MODEL 1
REMARK VINA RESULT:      -7.2      0.000      0.000
REMARK  Name = 
REMARK  10 active torsions:
REMARK  status: ('A' for Active; 'I' for Inactive)
REMARK    1  A    between atoms: C_1  and  C_2
REMARK    2  A    between atoms: C_5  and  S_6
REMARK    3  A    between atoms: S_6  and  C_7
REMARK    4  A    between atoms: C_7  and  C_8
REMARK    5  A    between atoms: N_10  and  N_11
REMARK    6  A    between atoms: C_12  and  C_14
REMARK    7  A    between atoms: C_14  and  O_15
REMARK    8  A    between atoms: O_15  and  C_16
REMARK    9  A    between atoms: C_20  and  C_21
REMARK   10  A    between atoms: C_26  and  C_27
REMARK                            x       y       z     vdW  Elec       q    Type
REMARK                         _______ _______ _______ _____ _____    ______ ____
ROOT
ATOM      1  N   UNL     1       8.066   7.019  16.835  0.00  0.00    +0.000 NA
ATOM      2  C   UNL     1       7.522   8.067  17.369  0.00  0.00    +0.000 C 
ATOM      3  N   UNL     1       6.213   8.466  17.206  0.00  0.00    +0.000 N 
ATOM      4  H   UNL     1       5.783   8.170  16.339  0.00  0.00    +0.000 HD
ATOM      5  H   UNL     1       6.020   9.441  17.415  0.00  0.00    +0.000 HD
ENDROOT
BRANCH   1   8
ATOM      6  C   UNL     1       6.943   4.948  16.558  0.00  0.00    +0.000 C 
ATOM      7  O   UNL     1       6.207   4.218  15.892  0.00  0.00    +0.000 OA
ATOM      8  N   UNL     1       7.288   6.199  16.091  0.00  0.00    +0.000 N 
ATOM      9  H   UNL     1       6.898   6.515  15.211  0.00  0.00    +0.000 HD
BRANCH   6  10
ATOM     10  C   UNL     1       7.508   4.583  17.928  0.00  0.00    +0.000 C 
BRANCH  10  11
ATOM     11  S   UNL     1       6.488   5.200  19.291  0.00  0.00    +0.000 S 
BRANCH  11  16
ATOM     12  C   UNL     1       1.435   3.928  17.946  0.00  0.00    +0.000 C 
ATOM     13  C   UNL     1       2.825   3.839  18.468  0.00  0.00    +0.000 A 
ATOM     14  S   UNL     1       3.437   2.406  19.166  0.00  0.00    +0.000 S 
ATOM     15  N   UNL     1       4.945   2.998  19.502  0.00  0.00    +0.000 NA
ATOM     16  C   UNL     1       5.011   4.261  19.082  0.00  0.00    +0.000 A 
ATOM     17  C   UNL     1       3.827   4.796  18.501  0.00  0.00    +0.000 A 
BRANCH  17  18
ATOM     18  C   UNL     1       3.654   6.124  18.012  0.00  0.00    +0.000 C 
ATOM     19  N   UNL     1       3.542   7.222  17.649  0.00  0.00    +0.000 NA
ENDBRANCH  17  18
ENDBRANCH  11  16
ENDBRANCH  10  11
ENDBRANCH   6  10
ENDBRANCH   1   8
BRANCH   2  20
ATOM     20  C   UNL     1       8.469   8.951  18.191  0.00  0.00    +0.000 C 
BRANCH  20  21
ATOM     21  O   UNL     1       8.256  10.309  17.840  0.00  0.00    +0.000 OA
BRANCH  21  22
ATOM     22  C   UNL     1       9.154  11.213  18.337  0.00  0.00    +0.000 A 
ATOM     23  C   UNL     1       9.764  10.828  19.532  0.00  0.00    +0.000 A 
ATOM     24  C   UNL     1      10.674  11.670  20.169  0.00  0.00    +0.000 A 
ATOM     25  C   UNL     1      10.979  12.913  19.616  0.00  0.00    +0.000 A 
ATOM     26  C   UNL     1      10.384  13.317  18.414  0.00  0.00    +0.000 A 
ATOM     27  C   UNL     1       9.475  12.450  17.775  0.00  0.00    +0.000 A 
BRANCH  26  28
ATOM     28  C   UNL     1      10.689  14.660  17.804  0.00  0.00    +0.000 C 
ATOM     29  F   UNL     1      11.396  15.488  18.623  0.00  0.00    +0.000 F 
ATOM     30  F   UNL     1      11.415  14.561  16.656  0.00  0.00    +0.000 F 
ATOM     31  F   UNL     1       9.559  15.345  17.469  0.00  0.00    +0.000 F 
ENDBRANCH  26  28
ENDBRANCH  21  22
ENDBRANCH  20  21
ENDBRANCH   2  20
TORSDOF 9
ENDMDL
MODEL 2
REMARK VINA RESULT:      -7.1      6.294      8.741
REMARK  Name = 
REMARK  10 active torsions:
REMARK  status: ('A' for Active; 'I' for Inactive)
REMARK    1  A    between atoms: C_1  and  C_2
REMARK    2  A    between atoms: C_5  and  S_6
REMARK    3  A    between atoms: S_6  and  C_7
REMARK    4  A    between atoms: C_7  and  C_8
REMARK    5  A    between atoms: N_10  and  N_11
REMARK    6  A    between atoms: C_12  and  C_14
REMARK    7  A    between atoms: C_14  and  O_15
REMARK    8  A    between atoms: O_15  and  C_16
REMARK    9  A    between atoms: C_20  and  C_21
REMARK   10  A    between atoms: C_26  and  C_27
REMARK                            x       y       z     vdW  Elec       q    Type
REMARK                         _______ _______ _______ _____ _____    ______ ____
ROOT
ATOM      1  N   UNL     1       2.614   6.784  19.410  0.00  0.00    +0.000 NA
ATOM      2  C   UNL     1       1.957   7.776  19.925  0.00  0.00    +0.000 C 
ATOM      3  N   UNL     1       1.458   7.831  21.209  0.00  0.00    +0.000 N 
ATOM      4  H   UNL     1       1.246   6.931  21.621  0.00  0.00    +0.000 HD
ATOM      5  H   UNL     1       0.718   8.507  21.365  0.00  0.00    +0.000 HD
ENDROOT
BRANCH   1   8
ATOM      6  C   UNL     1       3.140   4.483  19.642  0.00  0.00    +0.000 C 
ATOM      7  O   UNL     1       3.429   3.525  20.361  0.00  0.00    +0.000 OA
ATOM      8  N   UNL     1       2.896   5.721  20.198  0.00  0.00    +0.000 N 
ATOM      9  H   UNL     1       2.993   5.833  21.200  0.00  0.00    +0.000 HD
BRANCH   6  10
ATOM     10  C   UNL     1       3.052   4.422  18.119  0.00  0.00    +0.000 C 
BRANCH  10  11
ATOM     11  S   UNL     1       4.524   3.685  17.364  0.00  0.00    +0.000 S 
BRANCH  11  16
ATOM     12  C   UNL     1       7.829   7.923  17.631  0.00  0.00    +0.000 C 
ATOM     13  C   UNL     1       7.161   6.629  17.933  0.00  0.00    +0.000 A 
ATOM     14  S   UNL     1       7.622   5.665  19.265  0.00  0.00    +0.000 S 
ATOM     15  N   UNL     1       6.523   4.456  19.002  0.00  0.00    +0.000 NA
ATOM     16  C   UNL     1       5.794   4.767  17.931  0.00  0.00    +0.000 A 
ATOM     17  C   UNL     1       6.125   5.987  17.274  0.00  0.00    +0.000 A 
BRANCH  17  18
ATOM     18  C   UNL     1       5.504   6.506  16.100  0.00  0.00    +0.000 C 
ATOM     19  N   UNL     1       4.962   6.943  15.171  0.00  0.00    +0.000 NA
ENDBRANCH  17  18
ENDBRANCH  11  16
ENDBRANCH  10  11
ENDBRANCH   6  10
ENDBRANCH   1   8
BRANCH   2  20
ATOM     20  C   UNL     1       1.670   8.940  18.968  0.00  0.00    +0.000 C 
BRANCH  20  21
ATOM     21  O   UNL     1       1.131  10.024  19.707  0.00  0.00    +0.000 OA
BRANCH  21  22
ATOM     22  C   UNL     1      -0.100  10.474  19.317  0.00  0.00    +0.000 A 
ATOM     23  C   UNL     1      -0.518  10.012  18.068  0.00  0.00    +0.000 A 
ATOM     24  C   UNL     1      -1.739  10.419  17.531  0.00  0.00    +0.000 A 
ATOM     25  C   UNL     1      -2.553  11.300  18.240  0.00  0.00    +0.000 A 
ATOM     26  C   UNL     1      -2.156  11.772  19.499  0.00  0.00    +0.000 A 
ATOM     27  C   UNL     1      -0.926  11.342  20.034  0.00  0.00    +0.000 A 
BRANCH  26  28
ATOM     28  C   UNL     1      -3.014  12.735  20.277  0.00  0.00    +0.000 C 
ATOM     29  F   UNL     1      -2.516  14.002  20.323  0.00  0.00    +0.000 F 
ATOM     30  F   UNL     1      -4.273  12.846  19.766  0.00  0.00    +0.000 F 
ATOM     31  F   UNL     1      -3.175  12.351  21.575  0.00  0.00    +0.000 F 
ENDBRANCH  26  28
ENDBRANCH  21  22
ENDBRANCH  20  21
ENDBRANCH   2  20
TORSDOF 9
ENDMDL
MODEL 3
REMARK VINA RESULT:      -7.1      5.352      7.550
REMARK  Name = 
REMARK  10 active torsions:
REMARK  status: ('A' for Active; 'I' for Inactive)
REMARK    1  A    between atoms: C_1  and  C_2
REMARK    2  A    between atoms: C_5  and  S_6
REMARK    3  A    between atoms: S_6  and  C_7
REMARK    4  A    between atoms: C_7  and  C_8
REMARK    5  A    between atoms: N_10  and  N_11
REMARK    6  A    between atoms: C_12  and  C_14
REMARK    7  A    between atoms: C_14  and  O_15
REMARK    8  A    between atoms: O_15  and  C_16
REMARK    9  A    between atoms: C_20  and  C_21
REMARK   10  A    between atoms: C_26  and  C_27
REMARK                            x       y       z     vdW  Elec       q    Type
REMARK                         _______ _______ _______ _____ _____    ______ ____
ROOT
ATOM      1  N   UNL     1       2.696   2.707  19.084  0.00  0.00    +0.000 NA
ATOM      2  C   UNL     1       3.348   1.892  18.315  0.00  0.00    +0.000 C 
ATOM      3  N   UNL     1       3.907   0.693  18.704  0.00  0.00    +0.000 N 
ATOM      4  H   UNL     1       4.165   0.641  19.681  0.00  0.00    +0.000 HD
ATOM      5  H   UNL     1       4.635   0.329  18.097  0.00  0.00    +0.000 HD
ENDROOT
BRANCH   1   8
ATOM      6  C   UNL     1       1.801   3.184  21.228  0.00  0.00    +0.000 C 
ATOM      7  O   UNL     1       1.582   2.838  22.390  0.00  0.00    +0.000 OA
ATOM      8  N   UNL     1       2.484   2.347  20.371  0.00  0.00    +0.000 N 
ATOM      9  H   UNL     1       2.768   1.434  20.705  0.00  0.00    +0.000 HD
BRANCH   6  10
ATOM     10  C   UNL     1       1.339   4.506  20.621  0.00  0.00    +0.000 C 
BRANCH  10  11
ATOM     11  S   UNL     1       2.717   5.605  20.207  0.00  0.00    +0.000 S 
BRANCH  11  16
ATOM     12  C   UNL     1       1.155  10.471  18.522  0.00  0.00    +0.000 C 
ATOM     13  C   UNL     1       1.328   9.251  19.355  0.00  0.00    +0.000 A 
ATOM     14  S   UNL     1       0.579   9.085  20.880  0.00  0.00    +0.000 S 
ATOM     15  N   UNL     1       1.174   7.577  21.211  0.00  0.00    +0.000 NA
ATOM     16  C   UNL     1       1.921   7.177  20.182  0.00  0.00    +0.000 A 
ATOM     17  C   UNL     1       2.056   8.098  19.104  0.00  0.00    +0.000 A 
BRANCH  17  18
ATOM     18  C   UNL     1       2.824   7.901  17.919  0.00  0.00    +0.000 C 
ATOM     19  N   UNL     1       3.484   7.721  16.981  0.00  0.00    +0.000 NA
ENDBRANCH  17  18
ENDBRANCH  11  16
ENDBRANCH  10  11
ENDBRANCH   6  10
ENDBRANCH   1   8
BRANCH   2  20
ATOM     20  C   UNL     1       3.554   2.372  16.874  0.00  0.00    +0.000 C 
BRANCH  20  21
ATOM     21  O   UNL     1       3.537   3.790  16.851  0.00  0.00    +0.000 OA
BRANCH  21  22
ATOM     22  C   UNL     1       4.752   4.412  16.777  0.00  0.00    +0.000 A 
ATOM     23  C   UNL     1       5.194   4.671  15.479  0.00  0.00    +0.000 A 
ATOM     24  C   UNL     1       6.434   5.269  15.255  0.00  0.00    +0.000 A 
ATOM     25  C   UNL     1       7.247   5.611  16.334  0.00  0.00    +0.000 A 
ATOM     26  C   UNL     1       6.821   5.367  17.646  0.00  0.00    +0.000 A 
ATOM     27  C   UNL     1       5.560   4.773  17.857  0.00  0.00    +0.000 A 
BRANCH  26  28
ATOM     28  C   UNL     1       7.688   5.716  18.827  0.00  0.00    +0.000 C 
ATOM     29  F   UNL     1       8.706   4.837  19.041  0.00  0.00    +0.000 F 
ATOM     30  F   UNL     1       8.272   6.942  18.703  0.00  0.00    +0.000 F 
ATOM     31  F   UNL     1       6.983   5.759  19.992  0.00  0.00    +0.000 F 
ENDBRANCH  26  28
ENDBRANCH  21  22
ENDBRANCH  20  21
ENDBRANCH   2  20
TORSDOF 9
ENDMDL
MODEL 4
REMARK VINA RESULT:      -7.1      4.938      7.184
REMARK  Name = 
REMARK  10 active torsions:
REMARK  status: ('A' for Active; 'I' for Inactive)
REMARK    1  A    between atoms: C_1  and  C_2
REMARK    2  A    between atoms: C_5  and  S_6
REMARK    3  A    between atoms: S_6  and  C_7
REMARK    4  A    between atoms: C_7  and  C_8
REMARK    5  A    between atoms: N_10  and  N_11
REMARK    6  A    between atoms: C_12  and  C_14
REMARK    7  A    between atoms: C_14  and  O_15
REMARK    8  A    between atoms: O_15  and  C_16
REMARK    9  A    between atoms: C_20  and  C_21
REMARK   10  A    between atoms: C_26  and  C_27
REMARK                            x       y       z     vdW  Elec       q    Type
REMARK                         _______ _______ _______ _____ _____    ______ ____
ROOT
ATOM      1  N   UNL     1       2.235   6.220  19.704  0.00  0.00    +0.000 NA
ATOM      2  C   UNL     1       2.108   7.502  19.853  0.00  0.00    +0.000 C 
ATOM      3  N   UNL     1       1.783   8.147  21.027  0.00  0.00    +0.000 N 
ATOM      4  H   UNL     1       1.239   7.595  21.678  0.00  0.00    +0.000 HD
ATOM      5  H   UNL     1       1.418   9.089  20.926  0.00  0.00    +0.000 HD
ENDROOT
BRANCH   1   8
ATOM      6  C   UNL     1       2.394   4.084  20.722  0.00  0.00    +0.000 C 
ATOM      7  O   UNL     1       2.296   3.374  21.725  0.00  0.00    +0.000 OA
ATOM      8  N   UNL     1       2.095   5.428  20.791  0.00  0.00    +0.000 N 
ATOM      9  H   UNL     1       1.830   5.823  21.687  0.00  0.00    +0.000 HD
BRANCH   6  10
ATOM     10  C   UNL     1       2.864   3.589  19.358  0.00  0.00    +0.000 C 
BRANCH  10  11
ATOM     11  S   UNL     1       4.663   3.408  19.262  0.00  0.00    +0.000 S 
BRANCH  11  16
ATOM     12  C   UNL     1       7.382   7.641  17.351  0.00  0.00    +0.000 C 
ATOM     13  C   UNL     1       6.352   6.582  17.523  0.00  0.00    +0.000 A 
ATOM     14  S   UNL     1       5.017   6.441  16.468  0.00  0.00    +0.000 S 
ATOM     15  N   UNL     1       4.335   5.130  17.212  0.00  0.00    +0.000 NA
ATOM     16  C   UNL     1       5.104   4.776  18.241  0.00  0.00    +0.000 A 
ATOM     17  C   UNL     1       6.257   5.578  18.474  0.00  0.00    +0.000 A 
BRANCH  17  18
ATOM     18  C   UNL     1       7.203   5.408  19.527  0.00  0.00    +0.000 C 
ATOM     19  N   UNL     1       7.971   5.316  20.394  0.00  0.00    +0.000 NA
ENDBRANCH  17  18
ENDBRANCH  11  16
ENDBRANCH  10  11
ENDBRANCH   6  10
ENDBRANCH   1   8
BRANCH   2  20
ATOM     20  C   UNL     1       2.274   8.331  18.574  0.00  0.00    +0.000 C 
BRANCH  20  21
ATOM     21  O   UNL     1       0.994   8.734  18.114  0.00  0.00    +0.000 OA
BRANCH  21  22
ATOM     22  C   UNL     1       0.661  10.045  18.314  0.00  0.00    +0.000 A 
ATOM     23  C   UNL     1      -0.708  10.310  18.262  0.00  0.00    +0.000 A 
ATOM     24  C   UNL     1      -1.188  11.611  18.414  0.00  0.00    +0.000 A 
ATOM     25  C   UNL     1      -0.295  12.663  18.616  0.00  0.00    +0.000 A 
ATOM     26  C   UNL     1       1.083  12.419  18.678  0.00  0.00    +0.000 A 
ATOM     27  C   UNL     1       1.551  11.097  18.536  0.00  0.00    +0.000 A 
BRANCH  26  28
ATOM     28  C   UNL     1       2.066  13.541  18.883  0.00  0.00    +0.000 C 
ATOM     29  F   UNL     1       2.739  13.474  20.066  0.00  0.00    +0.000 F 
ATOM     30  F   UNL     1       3.021  13.584  17.912  0.00  0.00    +0.000 F 
ATOM     31  F   UNL     1       1.466  14.765  18.865  0.00  0.00    +0.000 F 
ENDBRANCH  26  28
ENDBRANCH  21  22
ENDBRANCH  20  21
ENDBRANCH   2  20
TORSDOF 9
ENDMDL
MODEL 5
REMARK VINA RESULT:      -7.0      5.082      7.741
REMARK  Name = 
REMARK  10 active torsions:
REMARK  status: ('A' for Active; 'I' for Inactive)
REMARK    1  A    between atoms: C_1  and  C_2
REMARK    2  A    between atoms: C_5  and  S_6
REMARK    3  A    between atoms: S_6  and  C_7
REMARK    4  A    between atoms: C_7  and  C_8
REMARK    5  A    between atoms: N_10  and  N_11
REMARK    6  A    between atoms: C_12  and  C_14
REMARK    7  A    between atoms: C_14  and  O_15
REMARK    8  A    between atoms: O_15  and  C_16
REMARK    9  A    between atoms: C_20  and  C_21
REMARK   10  A    between atoms: C_26  and  C_27
REMARK                            x       y       z     vdW  Elec       q    Type
REMARK                         _______ _______ _______ _____ _____    ______ ____
ROOT
ATOM      1  N   UNL     1       1.975   4.021  19.375  0.00  0.00    +0.000 NA
ATOM      2  C   UNL     1       1.896   4.381  20.618  0.00  0.00    +0.000 C 
ATOM      3  N   UNL     1       2.093   3.559  21.707  0.00  0.00    +0.000 N 
ATOM      4  H   UNL     1       1.894   2.580  21.543  0.00  0.00    +0.000 HD
ATOM      5  H   UNL     1       1.699   3.887  22.583  0.00  0.00    +0.000 HD
ENDROOT
BRANCH   1   8
ATOM      6  C   UNL     1       3.264   2.482  18.112  0.00  0.00    +0.000 C 
ATOM      7  O   UNL     1       3.612   1.322  17.884  0.00  0.00    +0.000 OA
ATOM      8  N   UNL     1       2.334   2.747  19.095  0.00  0.00    +0.000 N 
ATOM      9  H   UNL     1       1.972   1.976  19.644  0.00  0.00    +0.000 HD
BRANCH   6  10
ATOM     10  C   UNL     1       3.818   3.706  17.390  0.00  0.00    +0.000 C 
BRANCH  10  11
ATOM     11  S   UNL     1       5.462   3.418  16.688  0.00  0.00    +0.000 S 
BRANCH  11  16
ATOM     12  C   UNL     1       7.577   8.265  17.688  0.00  0.00    +0.000 C 
ATOM     13  C   UNL     1       7.254   6.815  17.780  0.00  0.00    +0.000 A 
ATOM     14  S   UNL     1       7.923   5.818  18.994  0.00  0.00    +0.000 S 
ATOM     15  N   UNL     1       7.173   4.423  18.515  0.00  0.00    +0.000 NA
ATOM     16  C   UNL     1       6.406   4.691  17.459  0.00  0.00    +0.000 A 
ATOM     17  C   UNL     1       6.427   6.035  16.989  0.00  0.00    +0.000 A 
BRANCH  17  18
ATOM     18  C   UNL     1       5.714   6.545  15.864  0.00  0.00    +0.000 C 
ATOM     19  N   UNL     1       5.136   6.916  14.927  0.00  0.00    +0.000 NA
ENDBRANCH  17  18
ENDBRANCH  11  16
ENDBRANCH  10  11
ENDBRANCH   6  10
ENDBRANCH   1   8
BRANCH   2  20
ATOM     20  C   UNL     1       1.477   5.836  20.855  0.00  0.00    +0.000 C 
BRANCH  20  21
ATOM     21  O   UNL     1       2.391   6.696  20.192  0.00  0.00    +0.000 OA
BRANCH  21  22
ATOM     22  C   UNL     1       1.883   7.871  19.713  0.00  0.00    +0.000 A 
ATOM     23  C   UNL     1       2.163   8.119  18.368  0.00  0.00    +0.000 A 
ATOM     24  C   UNL     1       1.735   9.298  17.758  0.00  0.00    +0.000 A 
ATOM     25  C   UNL     1       1.025  10.245  18.494  0.00  0.00    +0.000 A 
ATOM     26  C   UNL     1       0.727  10.014  19.843  0.00  0.00    +0.000 A 
ATOM     27  C   UNL     1       1.154   8.812  20.443  0.00  0.00    +0.000 A 
BRANCH  26  28
ATOM     28  C   UNL     1      -0.029  11.029  20.661  0.00  0.00    +0.000 C 
ATOM     29  F   UNL     1       0.541  12.266  20.666  0.00  0.00    +0.000 F 
ATOM     30  F   UNL     1      -1.307  11.208  20.222  0.00  0.00    +0.000 F 
ATOM     31  F   UNL     1      -0.136  10.663  21.969  0.00  0.00    +0.000 F 
ENDBRANCH  26  28
ENDBRANCH  21  22
ENDBRANCH  20  21
ENDBRANCH   2  20
TORSDOF 9
ENDMDL
MODEL 6
REMARK VINA RESULT:      -7.0      5.878     10.023
REMARK  Name = 
REMARK  10 active torsions:
REMARK  status: ('A' for Active; 'I' for Inactive)
REMARK    1  A    between atoms: C_1  and  C_2
REMARK    2  A    between atoms: C_5  and  S_6
REMARK    3  A    between atoms: S_6  and  C_7
REMARK    4  A    between atoms: C_7  and  C_8
REMARK    5  A    between atoms: N_10  and  N_11
REMARK    6  A    between atoms: C_12  and  C_14
REMARK    7  A    between atoms: C_14  and  O_15
REMARK    8  A    between atoms: O_15  and  C_16
REMARK    9  A    between atoms: C_20  and  C_21
REMARK   10  A    between atoms: C_26  and  C_27
REMARK                            x       y       z     vdW  Elec       q    Type
REMARK                         _______ _______ _______ _____ _____    ______ ____
ROOT
ATOM      1  N   UNL     1       8.269   8.307  18.188  0.00  0.00    +0.000 NA
ATOM      2  C   UNL     1       7.869   7.076  18.267  0.00  0.00    +0.000 C 
ATOM      3  N   UNL     1       8.039   6.242  19.351  0.00  0.00    +0.000 N 
ATOM      4  H   UNL     1       8.840   6.459  19.932  0.00  0.00    +0.000 HD
ATOM      5  H   UNL     1       7.964   5.248  19.159  0.00  0.00    +0.000 HD
ENDROOT
BRANCH   1   8
ATOM      6  C   UNL     1       9.213  10.195  19.270  0.00  0.00    +0.000 C 
ATOM      7  O   UNL     1       9.720  10.704  20.271  0.00  0.00    +0.000 OA
ATOM      8  N   UNL     1       8.859   8.862  19.271  0.00  0.00    +0.000 N 
ATOM      9  H   UNL     1       8.992   8.323  20.120  0.00  0.00    +0.000 HD
BRANCH   6  10
ATOM     10  C   UNL     1       8.904  10.951  17.981  0.00  0.00    +0.000 C 
BRANCH  10  11
ATOM     11  S   UNL     1       9.939  12.421  17.769  0.00  0.00    +0.000 S 
BRANCH  11  16
ATOM     12  C   UNL     1       7.805  17.282  18.649  0.00  0.00    +0.000 C 
ATOM     13  C   UNL     1       7.950  15.842  18.309  0.00  0.00    +0.000 A 
ATOM     14  S   UNL     1       6.615  14.888  17.836  0.00  0.00    +0.000 S 
ATOM     15  N   UNL     1       7.463  13.482  17.626  0.00  0.00    +0.000 NA
ATOM     16  C   UNL     1       8.748  13.715  17.890  0.00  0.00    +0.000 A 
ATOM     17  C   UNL     1       9.079  15.038  18.299  0.00  0.00    +0.000 A 
BRANCH  17  18
ATOM     18  C   UNL     1      10.376  15.509  18.660  0.00  0.00    +0.000 C 
ATOM     19  N   UNL     1      11.442  15.849  18.973  0.00  0.00    +0.000 NA
ENDBRANCH  17  18
ENDBRANCH  11  16
ENDBRANCH  10  11
ENDBRANCH   6  10
ENDBRANCH   1   8
BRANCH   2  20
ATOM     20  C   UNL     1       7.216   6.516  16.997  0.00  0.00    +0.000 C 
BRANCH  20  21
ATOM     21  O   UNL     1       5.994   7.198  16.765  0.00  0.00    +0.000 OA
BRANCH  21  22
ATOM     22  C   UNL     1       4.859   6.583  17.214  0.00  0.00    +0.000 A 
ATOM     23  C   UNL     1       3.824   7.453  17.557  0.00  0.00    +0.000 A 
ATOM     24  C   UNL     1       2.620   6.963  18.064  0.00  0.00    +0.000 A 
ATOM     25  C   UNL     1       2.444   5.591  18.235  0.00  0.00    +0.000 A 
ATOM     26  C   UNL     1       3.467   4.698  17.890  0.00  0.00    +0.000 A 
ATOM     27  C   UNL     1       4.673   5.207  17.367  0.00  0.00    +0.000 A 
BRANCH  26  28
ATOM     28  C   UNL     1       3.303   3.213  18.078  0.00  0.00    +0.000 C 
ATOM     29  F   UNL     1       3.703   2.766  19.301  0.00  0.00    +0.000 F 
ATOM     30  F   UNL     1       2.010   2.806  17.935  0.00  0.00    +0.000 F 
ATOM     31  F   UNL     1       4.019   2.494  17.167  0.00  0.00    +0.000 F 
ENDBRANCH  26  28
ENDBRANCH  21  22
ENDBRANCH  20  21
ENDBRANCH   2  20
TORSDOF 9
ENDMDL
MODEL 7
REMARK VINA RESULT:      -6.9      6.894      8.494
REMARK  Name = 
REMARK  10 active torsions:
REMARK  status: ('A' for Active; 'I' for Inactive)
REMARK    1  A    between atoms: C_1  and  C_2
REMARK    2  A    between atoms: C_5  and  S_6
REMARK    3  A    between atoms: S_6  and  C_7
REMARK    4  A    between atoms: C_7  and  C_8
REMARK    5  A    between atoms: N_10  and  N_11
REMARK    6  A    between atoms: C_12  and  C_14
REMARK    7  A    between atoms: C_14  and  O_15
REMARK    8  A    between atoms: O_15  and  C_16
REMARK    9  A    between atoms: C_20  and  C_21
REMARK   10  A    between atoms: C_26  and  C_27
REMARK                            x       y       z     vdW  Elec       q    Type
REMARK                         _______ _______ _______ _____ _____    ______ ____
ROOT
ATOM      1  N   UNL     1       2.656   2.534  18.713  0.00  0.00    +0.000 NA
ATOM      2  C   UNL     1       3.874   2.916  18.483  0.00  0.00    +0.000 C 
ATOM      3  N   UNL     1       4.900   2.926  19.403  0.00  0.00    +0.000 N 
ATOM      4  H   UNL     1       4.606   3.026  20.366  0.00  0.00    +0.000 HD
ATOM      5  H   UNL     1       5.686   3.528  19.179  0.00  0.00    +0.000 HD
ENDROOT
BRANCH   1   8
ATOM      6  C   UNL     1       1.622   2.803  20.830  0.00  0.00    +0.000 C 
ATOM      7  O   UNL     1       1.321   2.343  21.933  0.00  0.00    +0.000 OA
ATOM      8  N   UNL     1       2.354   2.048  19.938  0.00  0.00    +0.000 N 
ATOM      9  H   UNL     1       2.606   1.100  20.195  0.00  0.00    +0.000 HD
BRANCH   6  10
ATOM     10  C   UNL     1       1.213   4.187  20.333  0.00  0.00    +0.000 C 
BRANCH  10  11
ATOM     11  S   UNL     1       2.177   5.516  21.096  0.00  0.00    +0.000 S 
BRANCH  11  16
ATOM     12  C   UNL     1       1.594  10.076  18.298  0.00  0.00    +0.000 C 
ATOM     13  C   UNL     1       1.962   8.685  18.675  0.00  0.00    +0.000 A 
ATOM     14  S   UNL     1       2.795   7.650  17.602  0.00  0.00    +0.000 S 
ATOM     15  N   UNL     1       2.864   6.349  18.624  0.00  0.00    +0.000 NA
ATOM     16  C   UNL     1       2.283   6.680  19.776  0.00  0.00    +0.000 A 
ATOM     17  C   UNL     1       1.738   7.994  19.855  0.00  0.00    +0.000 A 
BRANCH  17  18
ATOM     18  C   UNL     1       1.049   8.554  20.970  0.00  0.00    +0.000 C 
ATOM     19  N   UNL     1       0.490   8.968  21.901  0.00  0.00    +0.000 NA
ENDBRANCH  17  18
ENDBRANCH  11  16
ENDBRANCH  10  11
ENDBRANCH   6  10
ENDBRANCH   1   8
BRANCH   2  20
ATOM     20  C   UNL     1       4.136   3.461  17.074  0.00  0.00    +0.000 C 
BRANCH  20  21
ATOM     21  O   UNL     1       5.386   4.132  17.062  0.00  0.00    +0.000 OA
BRANCH  21  22
ATOM     22  C   UNL     1       5.983   4.284  15.841  0.00  0.00    +0.000 A 
ATOM     23  C   UNL     1       7.014   5.224  15.813  0.00  0.00    +0.000 A 
ATOM     24  C   UNL     1       7.687   5.506  14.624  0.00  0.00    +0.000 A 
ATOM     25  C   UNL     1       7.328   4.850  13.448  0.00  0.00    +0.000 A 
ATOM     26  C   UNL     1       6.300   3.897  13.454  0.00  0.00    +0.000 A 
ATOM     27  C   UNL     1       5.638   3.614  14.666  0.00  0.00    +0.000 A 
BRANCH  26  28
ATOM     28  C   UNL     1       5.887   3.185  12.193  0.00  0.00    +0.000 C 
ATOM     29  F   UNL     1       6.890   3.057  11.280  0.00  0.00    +0.000 F 
ATOM     30  F   UNL     1       5.433   1.922  12.430  0.00  0.00    +0.000 F 
ATOM     31  F   UNL     1       4.874   3.827  11.545  0.00  0.00    +0.000 F 
ENDBRANCH  26  28
ENDBRANCH  21  22
ENDBRANCH  20  21
ENDBRANCH   2  20
TORSDOF 9
ENDMDL
MODEL 8
REMARK VINA RESULT:      -6.9      4.829      7.545
REMARK  Name = 
REMARK  10 active torsions:
REMARK  status: ('A' for Active; 'I' for Inactive)
REMARK    1  A    between atoms: C_1  and  C_2
REMARK    2  A    between atoms: C_5  and  S_6
REMARK    3  A    between atoms: S_6  and  C_7
REMARK    4  A    between atoms: C_7  and  C_8
REMARK    5  A    between atoms: N_10  and  N_11
REMARK    6  A    between atoms: C_12  and  C_14
REMARK    7  A    between atoms: C_14  and  O_15
REMARK    8  A    between atoms: O_15  and  C_16
REMARK    9  A    between atoms: C_20  and  C_21
REMARK   10  A    between atoms: C_26  and  C_27
REMARK                            x       y       z     vdW  Elec       q    Type
REMARK                         _______ _______ _______ _____ _____    ______ ____
ROOT
ATOM      1  N   UNL     1       1.292   3.707  19.334  0.00  0.00    +0.000 NA
ATOM      2  C   UNL     1       1.547   4.213  20.499  0.00  0.00    +0.000 C 
ATOM      3  N   UNL     1       2.270   3.602  21.501  0.00  0.00    +0.000 N 
ATOM      4  H   UNL     1       2.254   2.590  21.481  0.00  0.00    +0.000 HD
ATOM      5  H   UNL     1       2.123   3.967  22.437  0.00  0.00    +0.000 HD
ENDROOT
BRANCH   1   8
ATOM      6  C   UNL     1       3.036   2.402  18.394  0.00  0.00    +0.000 C 
ATOM      7  O   UNL     1       3.523   1.297  18.149  0.00  0.00    +0.000 OA
ATOM      8  N   UNL     1       1.815   2.497  19.029  0.00  0.00    +0.000 N 
ATOM      9  H   UNL     1       1.349   1.645  19.318  0.00  0.00    +0.000 HD
BRANCH   6  10
ATOM     10  C   UNL     1       3.708   3.733  18.068  0.00  0.00    +0.000 C 
BRANCH  10  11
ATOM     11  S   UNL     1       5.158   3.539  17.001  0.00  0.00    +0.000 S 
BRANCH  11  16
ATOM     12  C   UNL     1       7.717   8.230  17.641  0.00  0.00    +0.000 C 
ATOM     13  C   UNL     1       7.283   6.819  17.823  0.00  0.00    +0.000 A 
ATOM     14  S   UNL     1       7.937   5.825  19.048  0.00  0.00    +0.000 S 
ATOM     15  N   UNL     1       7.048   4.478  18.680  0.00  0.00    +0.000 NA
ATOM     16  C   UNL     1       6.246   4.762  17.655  0.00  0.00    +0.000 A 
ATOM     17  C   UNL     1       6.349   6.076  17.117  0.00  0.00    +0.000 A 
BRANCH  17  18
ATOM     18  C   UNL     1       5.617   6.593  16.009  0.00  0.00    +0.000 C 
ATOM     19  N   UNL     1       5.038   6.978  15.078  0.00  0.00    +0.000 NA
ENDBRANCH  17  18
ENDBRANCH  11  16
ENDBRANCH  10  11
ENDBRANCH   6  10
ENDBRANCH   1   8
BRANCH   2  20
ATOM     20  C   UNL     1       0.914   5.582  20.773  0.00  0.00    +0.000 C 
BRANCH  20  21
ATOM     21  O   UNL     1       1.937   6.563  20.833  0.00  0.00    +0.000 OA
BRANCH  21  22
ATOM     22  C   UNL     1       1.876   7.564  19.902  0.00  0.00    +0.000 A 
ATOM     23  C   UNL     1       2.585   7.308  18.728  0.00  0.00    +0.000 A 
ATOM     24  C   UNL     1       2.638   8.257  17.708  0.00  0.00    +0.000 A 
ATOM     25  C   UNL     1       1.982   9.478  17.858  0.00  0.00    +0.000 A 
ATOM     26  C   UNL     1       1.259   9.753  19.026  0.00  0.00    +0.000 A 
ATOM     27  C   UNL     1       1.204   8.779  20.043  0.00  0.00    +0.000 A 
BRANCH  26  28
ATOM     28  C   UNL     1       0.553  11.070  19.215  0.00  0.00    +0.000 C 
ATOM     29  F   UNL     1      -0.078  11.189  20.416  0.00  0.00    +0.000 F 
ATOM     30  F   UNL     1       1.400  12.135  19.131  0.00  0.00    +0.000 F 
ATOM     31  F   UNL     1      -0.405  11.285  18.269  0.00  0.00    +0.000 F 
ENDBRANCH  26  28
ENDBRANCH  21  22
ENDBRANCH  20  21
ENDBRANCH   2  20
TORSDOF 9
ENDMDL
MODEL 9
REMARK VINA RESULT:      -6.9      4.952      7.270
REMARK  Name = 
REMARK  10 active torsions:
REMARK  status: ('A' for Active; 'I' for Inactive)
REMARK    1  A    between atoms: C_1  and  C_2
REMARK    2  A    between atoms: C_5  and  S_6
REMARK    3  A    between atoms: S_6  and  C_7
REMARK    4  A    between atoms: C_7  and  C_8
REMARK    5  A    between atoms: N_10  and  N_11
REMARK    6  A    between atoms: C_12  and  C_14
REMARK    7  A    between atoms: C_14  and  O_15
REMARK    8  A    between atoms: O_15  and  C_16
REMARK    9  A    between atoms: C_20  and  C_21
REMARK   10  A    between atoms: C_26  and  C_27
REMARK                            x       y       z     vdW  Elec       q    Type
REMARK                         _______ _______ _______ _____ _____    ______ ____
ROOT
ATOM      1  N   UNL     1       2.395   2.076  19.028  0.00  0.00    +0.000 NA
ATOM      2  C   UNL     1       3.645   2.211  18.710  0.00  0.00    +0.000 C 
ATOM      3  N   UNL     1       4.702   2.225  19.595  0.00  0.00    +0.000 N 
ATOM      4  H   UNL     1       4.471   2.544  20.528  0.00  0.00    +0.000 HD
ATOM      5  H   UNL     1       5.560   2.643  19.249  0.00  0.00    +0.000 HD
ENDROOT
BRANCH   1   8
ATOM      6  C   UNL     1       1.519   2.890  21.076  0.00  0.00    +0.000 C 
ATOM      7  O   UNL     1       1.201   2.693  22.250  0.00  0.00    +0.000 OA
ATOM      8  N   UNL     1       2.078   1.876  20.327  0.00  0.00    +0.000 N 
ATOM      9  H   UNL     1       2.189   0.962  20.751  0.00  0.00    +0.000 HD
BRANCH   6  10
ATOM     10  C   UNL     1       1.311   4.209  20.337  0.00  0.00    +0.000 C 
BRANCH  10  11
ATOM     11  S   UNL     1       2.039   5.619  21.209  0.00  0.00    +0.000 S 
BRANCH  11  16
ATOM     12  C   UNL     1       1.228  10.344  18.762  0.00  0.00    +0.000 C 
ATOM     13  C   UNL     1       1.612   8.929  19.015  0.00  0.00    +0.000 A 
ATOM     14  S   UNL     1       2.308   7.952  17.800  0.00  0.00    +0.000 S 
ATOM     15  N   UNL     1       2.467   6.592  18.730  0.00  0.00    +0.000 NA
ATOM     16  C   UNL     1       2.019   6.859  19.956  0.00  0.00    +0.000 A 
ATOM     17  C   UNL     1       1.507   8.171  20.170  0.00  0.00    +0.000 A 
BRANCH  17  18
ATOM     18  C   UNL     1       0.951   8.670  21.385  0.00  0.00    +0.000 C 
ATOM     19  N   UNL     1       0.542   9.075  22.393  0.00  0.00    +0.000 NA
ENDBRANCH  17  18
ENDBRANCH  11  16
ENDBRANCH  10  11
ENDBRANCH   6  10
ENDBRANCH   1   8
BRANCH   2  20
ATOM     20  C   UNL     1       3.923   2.441  17.220  0.00  0.00    +0.000 C 
BRANCH  20  21
ATOM     21  O   UNL     1       3.804   3.825  16.935  0.00  0.00    +0.000 OA
BRANCH  21  22
ATOM     22  C   UNL     1       4.956   4.474  16.582  0.00  0.00    +0.000 A 
ATOM     23  C   UNL     1       5.590   3.956  15.453  0.00  0.00    +0.000 A 
ATOM     24  C   UNL     1       6.793   4.499  15.001  0.00  0.00    +0.000 A 
ATOM     25  C   UNL     1       7.374   5.567  15.681  0.00  0.00    +0.000 A 
ATOM     26  C   UNL     1       6.751   6.108  16.814  0.00  0.00    +0.000 A 
ATOM     27  C   UNL     1       5.530   5.557  17.251  0.00  0.00    +0.000 A 
BRANCH  26  28
ATOM     28  C   UNL     1       7.367   7.254  17.572  0.00  0.00    +0.000 C 
ATOM     29  F   UNL     1       7.969   6.883  18.736  0.00  0.00    +0.000 F 
ATOM     30  F   UNL     1       8.321   7.907  16.850  0.00  0.00    +0.000 F 
ATOM     31  F   UNL     1       6.449   8.201  17.914  0.00  0.00    +0.000 F 
ENDBRANCH  26  28
ENDBRANCH  21  22
ENDBRANCH  20  21
ENDBRANCH   2  20
TORSDOF 9
ENDMDL
