MODEL 1
REMARK VINA RESULT:      -7.2      0.000      0.000
REMARK  Name = 
REMARK  18 active torsions:
REMARK  status: ('A' for Active; 'I' for Inactive)
REMARK    1  A    between atoms: C_1  and  C_2
REMARK    2  A    between atoms: C_2  and  N_3
REMARK    3  A    between atoms: N_3  and  C_4
REMARK    4  A    between atoms: N_3  and  C_6
REMARK    5  A    between atoms: C_4  and  C_5
REMARK    6  A    between atoms: C_9  and  C_10
REMARK    7  A    between atoms: C_16  and  C_17
REMARK    8  A    between atoms: C_17  and  N_18
REMARK    9  A    between atoms: N_18  and  C_19
REMARK   10  A    between atoms: N_18  and  C_23
REMARK   11  A    between atoms: C_19  and  C_20
REMARK   12  A    between atoms: C_23  and  C_24
REMARK   13  A    between atoms: C_24  and  O_25
REMARK   14  A    between atoms: C_24  and  C_26
REMARK   15  A    between atoms: C_26  and  O_27
REMARK   16  A    between atoms: O_27  and  C_28
REMARK   17  A    between atoms: C_28  and  C_29
REMARK   18  A    between atoms: C_28  and  C_30
REMARK                            x       y       z     vdW  Elec       q    Type
REMARK                         _______ _______ _______ _____ _____    ______ ____
ROOT
ATOM      1  C   UNL     1       6.749   5.677  16.159  0.00  0.00    +0.000 A 
ATOM      2  O   UNL     1       7.789   5.966  15.320  0.00  0.00    +0.000 OA
ATOM      3  N   UNL     1       7.640   5.332  14.125  0.00  0.00    +0.000 NA
ATOM      4  C   UNL     1       6.493   4.650  14.189  0.00  0.00    +0.000 A 
ATOM      5  C   UNL     1       5.812   4.936  15.444  0.00  0.00    +0.000 A 
ENDROOT
BRANCH   4   6
ATOM      6  C   UNL     1       6.095   3.771  13.071  0.00  0.00    +0.000 A 
ATOM      7  C   UNL     1       7.015   2.932  12.426  0.00  0.00    +0.000 A 
ATOM      8  C   UNL     1       6.612   2.065  11.401  0.00  0.00    +0.000 A 
ATOM      9  C   UNL     1       5.289   2.065  10.972  0.00  0.00    +0.000 A 
ATOM     10  C   UNL     1       4.373   2.934  11.560  0.00  0.00    +0.000 A 
ATOM     11  C   UNL     1       4.771   3.779  12.602  0.00  0.00    +0.000 A 
ENDBRANCH   4   6
BRANCH   1  12
ATOM     12  N   UNL     1       6.891   6.133  17.436  0.00  0.00    +0.000 N 
BRANCH  12  14
ATOM     13  C   UNL     1       8.042   5.626  19.559  0.00  0.00    +0.000 C 
ATOM     14  C   UNL     1       6.965   5.216  18.565  0.00  0.00    +0.000 C 
ENDBRANCH  12  14
BRANCH  12  15
ATOM     15  C   UNL     1       6.701   7.562  17.723  0.00  0.00    +0.000 C 
ATOM     16  C   UNL     1       8.003   8.355  17.691  0.00  0.00    +0.000 C 
ENDBRANCH  12  15
ENDBRANCH   1  12
BRANCH   5  17
ATOM     17  C   UNL     1       4.446   4.401  15.779  0.00  0.00    +0.000 C 
BRANCH  17  18
ATOM     18  N   UNL     1       4.082   4.138  17.199  0.00  0.00    +0.000 NA
BRANCH  18  19
ATOM     19  C   UNL     1       2.982   5.021  17.628  0.00  0.00    +0.000 C 
BRANCH  19  20
ATOM     20  C   UNL     1       3.432   6.348  18.195  0.00  0.00    +0.000 C 
ATOM     21  C   UNL     1       2.897   7.716  17.816  0.00  0.00    +0.000 C 
ATOM     22  C   UNL     1       2.472   7.078  19.104  0.00  0.00    +0.000 C 
ENDBRANCH  19  20
ENDBRANCH  18  19
BRANCH  18  23
ATOM     23  C   UNL     1       3.633   2.720  17.300  0.00  0.00    +0.000 C 
BRANCH  23  24
ATOM     24  C   UNL     1       3.636   2.065  18.702  0.00  0.00    +0.000 C 
BRANCH  24  25
ATOM     25  O   UNL     1       4.292   0.791  18.576  0.00  0.00    +0.000 OA
ATOM     26  H   UNL     1       3.669   0.107  18.877  0.00  0.00    +0.000 HD
ENDBRANCH  24  25
BRANCH  24  27
ATOM     27  C   UNL     1       2.205   1.898  19.230  0.00  0.00    +0.000 C 
BRANCH  27  28
ATOM     28  O   UNL     1       2.158   2.100  20.646  0.00  0.00    +0.000 OA
BRANCH  28  29
ATOM     29  C   UNL     1       1.452   3.289  21.025  0.00  0.00    +0.000 C 
ATOM     30  C   UNL     1       2.414   4.430  21.349  0.00  0.00    +0.000 C 
ATOM     31  C   UNL     1       0.555   3.679  19.855  0.00  0.00    +0.000 C 
ENDBRANCH  28  29
ENDBRANCH  27  28
ENDBRANCH  24  27
ENDBRANCH  23  24
ENDBRANCH  18  23
ENDBRANCH  17  18
ENDBRANCH   5  17
TORSDOF 14
ENDMDL
MODEL 2
REMARK VINA RESULT:      -6.9      0.712      1.389
REMARK  Name = 
REMARK  18 active torsions:
REMARK  status: ('A' for Active; 'I' for Inactive)
REMARK    1  A    between atoms: C_1  and  C_2
REMARK    2  A    between atoms: C_2  and  N_3
REMARK    3  A    between atoms: N_3  and  C_4
REMARK    4  A    between atoms: N_3  and  C_6
REMARK    5  A    between atoms: C_4  and  C_5
REMARK    6  A    between atoms: C_9  and  C_10
REMARK    7  A    between atoms: C_16  and  C_17
REMARK    8  A    between atoms: C_17  and  N_18
REMARK    9  A    between atoms: N_18  and  C_19
REMARK   10  A    between atoms: N_18  and  C_23
REMARK   11  A    between atoms: C_19  and  C_20
REMARK   12  A    between atoms: C_23  and  C_24
REMARK   13  A    between atoms: C_24  and  O_25
REMARK   14  A    between atoms: C_24  and  C_26
REMARK   15  A    between atoms: C_26  and  O_27
REMARK   16  A    between atoms: O_27  and  C_28
REMARK   17  A    between atoms: C_28  and  C_29
REMARK   18  A    between atoms: C_28  and  C_30
REMARK                            x       y       z     vdW  Elec       q    Type
REMARK                         _______ _______ _______ _____ _____    ______ ____
ROOT
ATOM      1  C   UNL     1       6.916   5.754  15.951  0.00  0.00    +0.000 A 
ATOM      2  O   UNL     1       7.841   6.174  15.037  0.00  0.00    +0.000 OA
ATOM      3  N   UNL     1       7.701   5.505  13.861  0.00  0.00    +0.000 NA
ATOM      4  C   UNL     1       6.672   4.667  14.013  0.00  0.00    +0.000 A 
ATOM      5  C   UNL     1       6.047   4.874  15.311  0.00  0.00    +0.000 A 
ENDROOT
BRANCH   4   6
ATOM      6  C   UNL     1       6.328   3.720  12.933  0.00  0.00    +0.000 A 
ATOM      7  C   UNL     1       7.304   2.951  12.284  0.00  0.00    +0.000 A 
ATOM      8  C   UNL     1       6.956   2.019  11.297  0.00  0.00    +0.000 A 
ATOM      9  C   UNL     1       5.627   1.882  10.909  0.00  0.00    +0.000 A 
ATOM     10  C   UNL     1       4.650   2.680  11.499  0.00  0.00    +0.000 A 
ATOM     11  C   UNL     1       4.996   3.591  12.504  0.00  0.00    +0.000 A 
ENDBRANCH   4   6
BRANCH   1  12
ATOM     12  N   UNL     1       7.080   6.248  17.212  0.00  0.00    +0.000 N 
BRANCH  12  14
ATOM     13  C   UNL     1       8.210   8.329  17.906  0.00  0.00    +0.000 C 
ATOM     14  C   UNL     1       6.903   7.665  17.499  0.00  0.00    +0.000 C 
ENDBRANCH  12  14
BRANCH  12  15
ATOM     15  C   UNL     1       7.700   5.410  18.247  0.00  0.00    +0.000 C 
ATOM     16  C   UNL     1       6.906   5.386  19.549  0.00  0.00    +0.000 C 
ENDBRANCH  12  15
ENDBRANCH   1  12
BRANCH   5  17
ATOM     17  C   UNL     1       4.800   4.153  15.749  0.00  0.00    +0.000 C 
BRANCH  17  18
ATOM     18  N   UNL     1       4.324   4.284  17.153  0.00  0.00    +0.000 NA
BRANCH  18  19
ATOM     19  C   UNL     1       3.227   5.266  17.243  0.00  0.00    +0.000 C 
BRANCH  19  20
ATOM     20  C   UNL     1       3.540   6.475  18.095  0.00  0.00    +0.000 C 
ATOM     21  C   UNL     1       2.551   7.523  18.566  0.00  0.00    +0.000 C 
ATOM     22  C   UNL     1       3.037   6.473  19.518  0.00  0.00    +0.000 C 
ENDBRANCH  19  20
ENDBRANCH  18  19
BRANCH  18  23
ATOM     23  C   UNL     1       3.818   2.951  17.590  0.00  0.00    +0.000 C 
BRANCH  23  24
ATOM     24  C   UNL     1       3.831   2.640  19.105  0.00  0.00    +0.000 C 
BRANCH  24  25
ATOM     25  O   UNL     1       5.198   2.390  19.478  0.00  0.00    +0.000 OA
ATOM     26  H   UNL     1       5.620   1.909  18.746  0.00  0.00    +0.000 HD
ENDBRANCH  24  25
BRANCH  24  27
ATOM     27  C   UNL     1       2.943   1.429  19.422  0.00  0.00    +0.000 C 
BRANCH  27  28
ATOM     28  O   UNL     1       1.664   1.848  19.906  0.00  0.00    +0.000 OA
BRANCH  28  29
ATOM     29  C   UNL     1       1.721   3.039  20.701  0.00  0.00    +0.000 C 
ATOM     30  C   UNL     1       0.755   4.103  20.184  0.00  0.00    +0.000 C 
ATOM     31  C   UNL     1       1.357   2.653  22.130  0.00  0.00    +0.000 C 
ENDBRANCH  28  29
ENDBRANCH  27  28
ENDBRANCH  24  27
ENDBRANCH  23  24
ENDBRANCH  18  23
ENDBRANCH  17  18
ENDBRANCH   5  17
TORSDOF 14
ENDMDL
MODEL 3
REMARK VINA RESULT:      -6.8      1.317      4.828
REMARK  Name = 
REMARK  18 active torsions:
REMARK  status: ('A' for Active; 'I' for Inactive)
REMARK    1  A    between atoms: C_1  and  C_2
REMARK    2  A    between atoms: C_2  and  N_3
REMARK    3  A    between atoms: N_3  and  C_4
REMARK    4  A    between atoms: N_3  and  C_6
REMARK    5  A    between atoms: C_4  and  C_5
REMARK    6  A    between atoms: C_9  and  C_10
REMARK    7  A    between atoms: C_16  and  C_17
REMARK    8  A    between atoms: C_17  and  N_18
REMARK    9  A    between atoms: N_18  and  C_19
REMARK   10  A    between atoms: N_18  and  C_23
REMARK   11  A    between atoms: C_19  and  C_20
REMARK   12  A    between atoms: C_23  and  C_24
REMARK   13  A    between atoms: C_24  and  O_25
REMARK   14  A    between atoms: C_24  and  C_26
REMARK   15  A    between atoms: C_26  and  O_27
REMARK   16  A    between atoms: O_27  and  C_28
REMARK   17  A    between atoms: C_28  and  C_29
REMARK   18  A    between atoms: C_28  and  C_30
REMARK                            x       y       z     vdW  Elec       q    Type
REMARK                         _______ _______ _______ _____ _____    ______ ____
ROOT
ATOM      1  C   UNL     1       6.248   3.829  13.193  0.00  0.00    +0.000 A 
ATOM      2  O   UNL     1       7.347   4.586  12.896  0.00  0.00    +0.000 OA
ATOM      3  N   UNL     1       7.844   5.180  14.014  0.00  0.00    +0.000 NA
ATOM      4  C   UNL     1       7.074   4.791  15.034  0.00  0.00    +0.000 A 
ATOM      5  C   UNL     1       6.096   3.814  14.577  0.00  0.00    +0.000 A 
ENDROOT
BRANCH   4   6
ATOM      6  C   UNL     1       7.300   5.350  16.382  0.00  0.00    +0.000 A 
ATOM      7  C   UNL     1       7.629   4.536  17.476  0.00  0.00    +0.000 A 
ATOM      8  C   UNL     1       7.891   5.087  18.737  0.00  0.00    +0.000 A 
ATOM      9  C   UNL     1       7.775   6.459  18.934  0.00  0.00    +0.000 A 
ATOM     10  C   UNL     1       7.391   7.277  17.875  0.00  0.00    +0.000 A 
ATOM     11  C   UNL     1       7.157   6.729  16.608  0.00  0.00    +0.000 A 
ENDBRANCH   4   6
BRANCH   1  12
ATOM     12  N   UNL     1       5.583   3.324  12.114  0.00  0.00    +0.000 N 
BRANCH  12  14
ATOM     13  C   UNL     1       3.493   3.119  10.817  0.00  0.00    +0.000 C 
ATOM     14  C   UNL     1       4.487   4.054  11.490  0.00  0.00    +0.000 C 
ENDBRANCH  12  14
BRANCH  12  15
ATOM     15  C   UNL     1       5.779   1.920  11.730  0.00  0.00    +0.000 C 
ATOM     16  C   UNL     1       7.044   1.697  10.909  0.00  0.00    +0.000 C 
ENDBRANCH  12  15
ENDBRANCH   1  12
BRANCH   5  17
ATOM     17  C   UNL     1       5.145   3.106  15.503  0.00  0.00    +0.000 C 
BRANCH  17  18
ATOM     18  N   UNL     1       4.921   3.632  16.878  0.00  0.00    +0.000 NA
BRANCH  18  19
ATOM     19  C   UNL     1       3.719   4.485  16.921  0.00  0.00    +0.000 C 
BRANCH  19  20
ATOM     20  C   UNL     1       3.974   5.899  17.391  0.00  0.00    +0.000 C 
ATOM     21  C   UNL     1       2.963   6.827  18.038  0.00  0.00    +0.000 C 
ATOM     22  C   UNL     1       3.997   6.143  18.881  0.00  0.00    +0.000 C 
ENDBRANCH  19  20
ENDBRANCH  18  19
BRANCH  18  23
ATOM     23  C   UNL     1       4.721   2.466  17.786  0.00  0.00    +0.000 C 
BRANCH  23  24
ATOM     24  C   UNL     1       4.180   2.750  19.208  0.00  0.00    +0.000 C 
BRANCH  24  25
ATOM     25  O   UNL     1       5.133   2.212  20.142  0.00  0.00    +0.000 OA
ATOM     26  H   UNL     1       4.937   2.592  21.015  0.00  0.00    +0.000 HD
ENDBRANCH  24  25
BRANCH  24  27
ATOM     27  C   UNL     1       2.797   2.114  19.404  0.00  0.00    +0.000 C 
BRANCH  27  28
ATOM     28  O   UNL     1       2.225   2.511  20.653  0.00  0.00    +0.000 OA
BRANCH  28  29
ATOM     29  C   UNL     1       1.009   3.256  20.508  0.00  0.00    +0.000 C 
ATOM     30  C   UNL     1       1.254   4.757  20.639  0.00  0.00    +0.000 C 
ATOM     31  C   UNL     1       0.441   2.937  19.130  0.00  0.00    +0.000 C 
ENDBRANCH  28  29
ENDBRANCH  27  28
ENDBRANCH  24  27
ENDBRANCH  23  24
ENDBRANCH  18  23
ENDBRANCH  17  18
ENDBRANCH   5  17
TORSDOF 14
ENDMDL
MODEL 4
REMARK VINA RESULT:      -6.8      2.765      7.314
REMARK  Name = 
REMARK  18 active torsions:
REMARK  status: ('A' for Active; 'I' for Inactive)
REMARK    1  A    between atoms: C_1  and  C_2
REMARK    2  A    between atoms: C_2  and  N_3
REMARK    3  A    between atoms: N_3  and  C_4
REMARK    4  A    between atoms: N_3  and  C_6
REMARK    5  A    between atoms: C_4  and  C_5
REMARK    6  A    between atoms: C_9  and  C_10
REMARK    7  A    between atoms: C_16  and  C_17
REMARK    8  A    between atoms: C_17  and  N_18
REMARK    9  A    between atoms: N_18  and  C_19
REMARK   10  A    between atoms: N_18  and  C_23
REMARK   11  A    between atoms: C_19  and  C_20
REMARK   12  A    between atoms: C_23  and  C_24
REMARK   13  A    between atoms: C_24  and  O_25
REMARK   14  A    between atoms: C_24  and  C_26
REMARK   15  A    between atoms: C_26  and  O_27
REMARK   16  A    between atoms: O_27  and  C_28
REMARK   17  A    between atoms: C_28  and  C_29
REMARK   18  A    between atoms: C_28  and  C_30
REMARK                            x       y       z     vdW  Elec       q    Type
REMARK                         _______ _______ _______ _____ _____    ______ ____
ROOT
ATOM      1  C   UNL     1       2.015   7.966  19.289  0.00  0.00    +0.000 A 
ATOM      2  O   UNL     1       1.559   7.365  20.429  0.00  0.00    +0.000 OA
ATOM      3  N   UNL     1       1.849   6.036  20.428  0.00  0.00    +0.000 NA
ATOM      4  C   UNL     1       2.510   5.785  19.295  0.00  0.00    +0.000 A 
ATOM      5  C   UNL     1       2.753   7.026  18.573  0.00  0.00    +0.000 A 
ENDROOT
BRANCH   4   6
ATOM      6  C   UNL     1       2.881   4.398  18.950  0.00  0.00    +0.000 A 
ATOM      7  C   UNL     1       3.902   3.715  19.627  0.00  0.00    +0.000 A 
ATOM      8  C   UNL     1       4.207   2.382  19.324  0.00  0.00    +0.000 A 
ATOM      9  C   UNL     1       3.528   1.728  18.301  0.00  0.00    +0.000 A 
ATOM     10  C   UNL     1       2.552   2.408  17.577  0.00  0.00    +0.000 A 
ATOM     11  C   UNL     1       2.229   3.732  17.899  0.00  0.00    +0.000 A 
ENDBRANCH   4   6
BRANCH   1  12
ATOM     12  N   UNL     1       1.629   9.263  19.122  0.00  0.00    +0.000 N 
BRANCH  12  14
ATOM     13  C   UNL     1       2.068  11.543  18.286  0.00  0.00    +0.000 C 
ATOM     14  C   UNL     1       2.088  10.051  17.987  0.00  0.00    +0.000 C 
ENDBRANCH  12  14
BRANCH  12  15
ATOM     15  C   UNL     1       0.962   9.971  20.224  0.00  0.00    +0.000 C 
ATOM     16  C   UNL     1      -0.553  10.037  20.060  0.00  0.00    +0.000 C 
ENDBRANCH  12  15
ENDBRANCH   1  12
BRANCH   5  17
ATOM     17  C   UNL     1       3.561   7.097  17.306  0.00  0.00    +0.000 C 
BRANCH  17  18
ATOM     18  N   UNL     1       4.971   6.620  17.300  0.00  0.00    +0.000 NA
BRANCH  18  19
ATOM     19  C   UNL     1       5.391   6.248  15.937  0.00  0.00    +0.000 C 
BRANCH  19  20
ATOM     20  C   UNL     1       5.134   4.802  15.577  0.00  0.00    +0.000 C 
ATOM     21  C   UNL     1       5.705   4.056  14.387  0.00  0.00    +0.000 C 
ATOM     22  C   UNL     1       6.273   3.827  15.755  0.00  0.00    +0.000 C 
ENDBRANCH  19  20
ENDBRANCH  18  19
BRANCH  18  23
ATOM     23  C   UNL     1       5.833   7.737  17.784  0.00  0.00    +0.000 C 
BRANCH  23  24
ATOM     24  C   UNL     1       7.361   7.602  17.587  0.00  0.00    +0.000 C 
BRANCH  24  25
ATOM     25  O   UNL     1       7.846   6.708  18.604  0.00  0.00    +0.000 OA
ATOM     26  H   UNL     1       7.528   5.815  18.388  0.00  0.00    +0.000 HD
ENDBRANCH  24  25
BRANCH  24  27
ATOM     27  C   UNL     1       8.048   8.970  17.683  0.00  0.00    +0.000 C 
BRANCH  27  28
ATOM     28  O   UNL     1       8.785   9.087  18.904  0.00  0.00    +0.000 OA
BRANCH  28  29
ATOM     29  C   UNL     1       9.534  10.306  18.999  0.00  0.00    +0.000 C 
ATOM     30  C   UNL     1       9.048  11.340  17.986  0.00  0.00    +0.000 C 
ATOM     31  C   UNL     1       9.358  10.839  20.416  0.00  0.00    +0.000 C 
ENDBRANCH  28  29
ENDBRANCH  27  28
ENDBRANCH  24  27
ENDBRANCH  23  24
ENDBRANCH  18  23
ENDBRANCH  17  18
ENDBRANCH   5  17
TORSDOF 14
ENDMDL
MODEL 5
REMARK VINA RESULT:      -6.7      0.834      1.189
REMARK  Name = 
REMARK  18 active torsions:
REMARK  status: ('A' for Active; 'I' for Inactive)
REMARK    1  A    between atoms: C_1  and  C_2
REMARK    2  A    between atoms: C_2  and  N_3
REMARK    3  A    between atoms: N_3  and  C_4
REMARK    4  A    between atoms: N_3  and  C_6
REMARK    5  A    between atoms: C_4  and  C_5
REMARK    6  A    between atoms: C_9  and  C_10
REMARK    7  A    between atoms: C_16  and  C_17
REMARK    8  A    between atoms: C_17  and  N_18
REMARK    9  A    between atoms: N_18  and  C_19
REMARK   10  A    between atoms: N_18  and  C_23
REMARK   11  A    between atoms: C_19  and  C_20
REMARK   12  A    between atoms: C_23  and  C_24
REMARK   13  A    between atoms: C_24  and  O_25
REMARK   14  A    between atoms: C_24  and  C_26
REMARK   15  A    between atoms: C_26  and  O_27
REMARK   16  A    between atoms: O_27  and  C_28
REMARK   17  A    between atoms: C_28  and  C_29
REMARK   18  A    between atoms: C_28  and  C_30
REMARK                            x       y       z     vdW  Elec       q    Type
REMARK                         _______ _______ _______ _____ _____    ______ ____
ROOT
ATOM      1  C   UNL     1       7.074   5.962  15.967  0.00  0.00    +0.000 A 
ATOM      2  O   UNL     1       8.053   6.208  15.046  0.00  0.00    +0.000 OA
ATOM      3  N   UNL     1       7.828   5.512  13.899  0.00  0.00    +0.000 NA
ATOM      4  C   UNL     1       6.692   4.832  14.076  0.00  0.00    +0.000 A 
ATOM      5  C   UNL     1       6.095   5.183  15.356  0.00  0.00    +0.000 A 
ENDROOT
BRANCH   4   6
ATOM      6  C   UNL     1       6.226   3.894  13.035  0.00  0.00    +0.000 A 
ATOM      7  C   UNL     1       7.098   2.995  12.404  0.00  0.00    +0.000 A 
ATOM      8  C   UNL     1       6.630   2.076  11.455  0.00  0.00    +0.000 A 
ATOM      9  C   UNL     1       5.289   2.078  11.087  0.00  0.00    +0.000 A 
ATOM     10  C   UNL     1       4.419   3.003  11.658  0.00  0.00    +0.000 A 
ATOM     11  C   UNL     1       4.882   3.903  12.626  0.00  0.00    +0.000 A 
ENDBRANCH   4   6
BRANCH   1  12
ATOM     12  N   UNL     1       7.298   6.486  17.206  0.00  0.00    +0.000 N 
BRANCH  12  14
ATOM     13  C   UNL     1       8.038   4.265  17.985  0.00  0.00    +0.000 C 
ATOM     14  C   UNL     1       7.485   5.629  18.369  0.00  0.00    +0.000 C 
ENDBRANCH  12  14
BRANCH  12  15
ATOM     15  C   UNL     1       7.086   7.921  17.438  0.00  0.00    +0.000 C 
ATOM     16  C   UNL     1       8.297   8.610  18.059  0.00  0.00    +0.000 C 
ENDBRANCH  12  15
ENDBRANCH   1  12
BRANCH   5  17
ATOM     17  C   UNL     1       4.757   4.663  15.810  0.00  0.00    +0.000 C 
BRANCH  17  18
ATOM     18  N   UNL     1       4.279   4.956  17.189  0.00  0.00    +0.000 NA
BRANCH  18  19
ATOM     19  C   UNL     1       3.861   6.365  17.308  0.00  0.00    +0.000 C 
BRANCH  19  20
ATOM     20  C   UNL     1       2.580   6.573  18.082  0.00  0.00    +0.000 C 
ATOM     21  C   UNL     1       2.464   7.057  19.516  0.00  0.00    +0.000 C 
ATOM     22  C   UNL     1       2.172   7.996  18.384  0.00  0.00    +0.000 C 
ENDBRANCH  19  20
ENDBRANCH  18  19
BRANCH  18  23
ATOM     23  C   UNL     1       3.104   4.078  17.461  0.00  0.00    +0.000 C 
BRANCH  23  24
ATOM     24  C   UNL     1       3.376   2.579  17.729  0.00  0.00    +0.000 C 
BRANCH  24  25
ATOM     25  O   UNL     1       2.205   1.852  17.318  0.00  0.00    +0.000 OA
ATOM     26  H   UNL     1       1.427   2.341  17.636  0.00  0.00    +0.000 HD
ENDBRANCH  24  25
BRANCH  24  27
ATOM     27  C   UNL     1       3.683   2.336  19.212  0.00  0.00    +0.000 C 
BRANCH  27  28
ATOM     28  O   UNL     1       2.478   2.139  19.957  0.00  0.00    +0.000 OA
BRANCH  28  29
ATOM     29  C   UNL     1       2.078   3.296  20.703  0.00  0.00    +0.000 C 
ATOM     30  C   UNL     1       0.731   3.831  20.223  0.00  0.00    +0.000 C 
ATOM     31  C   UNL     1       1.984   2.884  22.168  0.00  0.00    +0.000 C 
ENDBRANCH  28  29
ENDBRANCH  27  28
ENDBRANCH  24  27
ENDBRANCH  23  24
ENDBRANCH  18  23
ENDBRANCH  17  18
ENDBRANCH   5  17
TORSDOF 14
ENDMDL
MODEL 6
REMARK VINA RESULT:      -6.6      0.910      1.781
REMARK  Name = 
REMARK  18 active torsions:
REMARK  status: ('A' for Active; 'I' for Inactive)
REMARK    1  A    between atoms: C_1  and  C_2
REMARK    2  A    between atoms: C_2  and  N_3
REMARK    3  A    between atoms: N_3  and  C_4
REMARK    4  A    between atoms: N_3  and  C_6
REMARK    5  A    between atoms: C_4  and  C_5
REMARK    6  A    between atoms: C_9  and  C_10
REMARK    7  A    between atoms: C_16  and  C_17
REMARK    8  A    between atoms: C_17  and  N_18
REMARK    9  A    between atoms: N_18  and  C_19
REMARK   10  A    between atoms: N_18  and  C_23
REMARK   11  A    between atoms: C_19  and  C_20
REMARK   12  A    between atoms: C_23  and  C_24
REMARK   13  A    between atoms: C_24  and  O_25
REMARK   14  A    between atoms: C_24  and  C_26
REMARK   15  A    between atoms: C_26  and  O_27
REMARK   16  A    between atoms: O_27  and  C_28
REMARK   17  A    between atoms: C_28  and  C_29
REMARK   18  A    between atoms: C_28  and  C_30
REMARK                            x       y       z     vdW  Elec       q    Type
REMARK                         _______ _______ _______ _____ _____    ______ ____
ROOT
ATOM      1  C   UNL     1       7.102   5.546  16.011  0.00  0.00    +0.000 A 
ATOM      2  O   UNL     1       8.025   5.794  15.033  0.00  0.00    +0.000 OA
ATOM      3  N   UNL     1       7.655   5.219  13.857  0.00  0.00    +0.000 NA
ATOM      4  C   UNL     1       6.483   4.615  14.074  0.00  0.00    +0.000 A 
ATOM      5  C   UNL     1       6.017   4.900  15.424  0.00  0.00    +0.000 A 
ENDROOT
BRANCH   4   6
ATOM      6  C   UNL     1       5.861   3.810  13.005  0.00  0.00    +0.000 A 
ATOM      7  C   UNL     1       4.578   4.094  12.515  0.00  0.00    +0.000 A 
ATOM      8  C   UNL     1       4.022   3.352  11.464  0.00  0.00    +0.000 A 
ATOM      9  C   UNL     1       4.723   2.281  10.922  0.00  0.00    +0.000 A 
ATOM     10  C   UNL     1       5.974   1.945  11.435  0.00  0.00    +0.000 A 
ATOM     11  C   UNL     1       6.540   2.704  12.466  0.00  0.00    +0.000 A 
ENDBRANCH   4   6
BRANCH   1  12
ATOM     12  N   UNL     1       7.464   5.942  17.264  0.00  0.00    +0.000 N 
BRANCH  12  14
ATOM     13  C   UNL     1       6.711   8.292  17.221  0.00  0.00    +0.000 C 
ATOM     14  C   UNL     1       7.838   7.321  17.545  0.00  0.00    +0.000 C 
ENDBRANCH  12  14
BRANCH  12  15
ATOM     15  C   UNL     1       7.743   4.932  18.294  0.00  0.00    +0.000 C 
ATOM     16  C   UNL     1       7.732   5.504  19.708  0.00  0.00    +0.000 C 
ENDBRANCH  12  15
ENDBRANCH   1  12
BRANCH   5  17
ATOM     17  C   UNL     1       4.680   4.448  15.945  0.00  0.00    +0.000 C 
BRANCH  17  18
ATOM     18  N   UNL     1       4.461   4.326  17.413  0.00  0.00    +0.000 NA
BRANCH  18  19
ATOM     19  C   UNL     1       4.345   5.657  18.036  0.00  0.00    +0.000 C 
BRANCH  19  20
ATOM     20  C   UNL     1       3.027   6.352  17.783  0.00  0.00    +0.000 C 
ATOM     21  C   UNL     1       2.334   7.331  18.712  0.00  0.00    +0.000 C 
ATOM     22  C   UNL     1       3.064   7.835  17.504  0.00  0.00    +0.000 C 
ENDBRANCH  19  20
ENDBRANCH  18  19
BRANCH  18  23
ATOM     23  C   UNL     1       3.186   3.580  17.623  0.00  0.00    +0.000 C 
BRANCH  23  24
ATOM     24  C   UNL     1       3.282   2.140  18.182  0.00  0.00    +0.000 C 
BRANCH  24  25
ATOM     25  O   UNL     1       2.002   1.517  17.978  0.00  0.00    +0.000 OA
ATOM     26  H   UNL     1       2.159   0.635  17.602  0.00  0.00    +0.000 HD
ENDBRANCH  24  25
BRANCH  24  27
ATOM     27  C   UNL     1       3.656   2.155  19.670  0.00  0.00    +0.000 C 
BRANCH  27  28
ATOM     28  O   UNL     1       3.262   3.386  20.283  0.00  0.00    +0.000 OA
BRANCH  28  29
ATOM     29  C   UNL     1       1.858   3.452  20.568  0.00  0.00    +0.000 C 
ATOM     30  C   UNL     1       1.485   2.562  21.752  0.00  0.00    +0.000 C 
ATOM     31  C   UNL     1       1.524   4.906  20.882  0.00  0.00    +0.000 C 
ENDBRANCH  28  29
ENDBRANCH  27  28
ENDBRANCH  24  27
ENDBRANCH  23  24
ENDBRANCH  18  23
ENDBRANCH  17  18
ENDBRANCH   5  17
TORSDOF 14
ENDMDL
MODEL 7
REMARK VINA RESULT:      -6.5      2.738      7.231
REMARK  Name = 
REMARK  18 active torsions:
REMARK  status: ('A' for Active; 'I' for Inactive)
REMARK    1  A    between atoms: C_1  and  C_2
REMARK    2  A    between atoms: C_2  and  N_3
REMARK    3  A    between atoms: N_3  and  C_4
REMARK    4  A    between atoms: N_3  and  C_6
REMARK    5  A    between atoms: C_4  and  C_5
REMARK    6  A    between atoms: C_9  and  C_10
REMARK    7  A    between atoms: C_16  and  C_17
REMARK    8  A    between atoms: C_17  and  N_18
REMARK    9  A    between atoms: N_18  and  C_19
REMARK   10  A    between atoms: N_18  and  C_23
REMARK   11  A    between atoms: C_19  and  C_20
REMARK   12  A    between atoms: C_23  and  C_24
REMARK   13  A    between atoms: C_24  and  O_25
REMARK   14  A    between atoms: C_24  and  C_26
REMARK   15  A    between atoms: C_26  and  O_27
REMARK   16  A    between atoms: O_27  and  C_28
REMARK   17  A    between atoms: C_28  and  C_29
REMARK   18  A    between atoms: C_28  and  C_30
REMARK                            x       y       z     vdW  Elec       q    Type
REMARK                         _______ _______ _______ _____ _____    ______ ____
ROOT
ATOM      1  C   UNL     1       2.068   7.846  19.292  0.00  0.00    +0.000 A 
ATOM      2  O   UNL     1       1.584   7.222  20.408  0.00  0.00    +0.000 OA
ATOM      3  N   UNL     1       1.894   5.897  20.398  0.00  0.00    +0.000 NA
ATOM      4  C   UNL     1       2.595   5.673  19.283  0.00  0.00    +0.000 A 
ATOM      5  C   UNL     1       2.843   6.928  18.588  0.00  0.00    +0.000 A 
ENDROOT
BRANCH   4   6
ATOM      6  C   UNL     1       2.998   4.296  18.931  0.00  0.00    +0.000 A 
ATOM      7  C   UNL     1       4.048   3.641  19.590  0.00  0.00    +0.000 A 
ATOM      8  C   UNL     1       4.385   2.317  19.280  0.00  0.00    +0.000 A 
ATOM      9  C   UNL     1       3.707   1.646  18.268  0.00  0.00    +0.000 A 
ATOM     10  C   UNL     1       2.700   2.299  17.561  0.00  0.00    +0.000 A 
ATOM     11  C   UNL     1       2.347   3.613  17.890  0.00  0.00    +0.000 A 
ENDBRANCH   4   6
BRANCH   1  12
ATOM     12  N   UNL     1       1.668   9.139  19.132  0.00  0.00    +0.000 N 
BRANCH  12  14
ATOM     13  C   UNL     1       1.022  10.133  21.296  0.00  0.00    +0.000 C 
ATOM     14  C   UNL     1       0.570   9.696  19.911  0.00  0.00    +0.000 C 
ENDBRANCH  12  14
BRANCH  12  15
ATOM     15  C   UNL     1       2.157   9.915  17.984  0.00  0.00    +0.000 C 
ATOM     16  C   UNL     1       2.164  11.418  18.239  0.00  0.00    +0.000 C 
ENDBRANCH  12  15
ENDBRANCH   1  12
BRANCH   5  17
ATOM     17  C   UNL     1       3.691   7.029  17.349  0.00  0.00    +0.000 C 
BRANCH  17  18
ATOM     18  N   UNL     1       5.125   6.631  17.399  0.00  0.00    +0.000 NA
BRANCH  18  19
ATOM     19  C   UNL     1       5.594   6.202  16.069  0.00  0.00    +0.000 C 
BRANCH  19  20
ATOM     20  C   UNL     1       5.082   4.848  15.634  0.00  0.00    +0.000 C 
ATOM     21  C   UNL     1       5.420   4.132  14.340  0.00  0.00    +0.000 C 
ATOM     22  C   UNL     1       6.064   3.702  15.623  0.00  0.00    +0.000 C 
ENDBRANCH  19  20
ENDBRANCH  18  19
BRANCH  18  23
ATOM     23  C   UNL     1       5.914   7.821  17.830  0.00  0.00    +0.000 C 
BRANCH  23  24
ATOM     24  C   UNL     1       7.446   7.780  17.622  0.00  0.00    +0.000 C 
BRANCH  24  25
ATOM     25  O   UNL     1       7.983   6.852  18.581  0.00  0.00    +0.000 OA
ATOM     26  H   UNL     1       8.816   7.223  18.917  0.00  0.00    +0.000 HD
ENDBRANCH  24  25
BRANCH  24  27
ATOM     27  C   UNL     1       8.060   9.174  17.802  0.00  0.00    +0.000 C 
BRANCH  27  28
ATOM     28  O   UNL     1       8.961   9.196  18.913  0.00  0.00    +0.000 OA
BRANCH  28  29
ATOM     29  C   UNL     1       9.611  10.462  19.090  0.00  0.00    +0.000 C 
ATOM     30  C   UNL     1       9.114  11.491  18.078  0.00  0.00    +0.000 C 
ATOM     31  C   UNL     1       9.310  10.935  20.508  0.00  0.00    +0.000 C 
ENDBRANCH  28  29
ENDBRANCH  27  28
ENDBRANCH  24  27
ENDBRANCH  23  24
ENDBRANCH  18  23
ENDBRANCH  17  18
ENDBRANCH   5  17
TORSDOF 14
ENDMDL
MODEL 8
REMARK VINA RESULT:      -6.4      2.259      6.878
REMARK  Name = 
REMARK  18 active torsions:
REMARK  status: ('A' for Active; 'I' for Inactive)
REMARK    1  A    between atoms: C_1  and  C_2
REMARK    2  A    between atoms: C_2  and  N_3
REMARK    3  A    between atoms: N_3  and  C_4
REMARK    4  A    between atoms: N_3  and  C_6
REMARK    5  A    between atoms: C_4  and  C_5
REMARK    6  A    between atoms: C_9  and  C_10
REMARK    7  A    between atoms: C_16  and  C_17
REMARK    8  A    between atoms: C_17  and  N_18
REMARK    9  A    between atoms: N_18  and  C_19
REMARK   10  A    between atoms: N_18  and  C_23
REMARK   11  A    between atoms: C_19  and  C_20
REMARK   12  A    between atoms: C_23  and  C_24
REMARK   13  A    between atoms: C_24  and  O_25
REMARK   14  A    between atoms: C_24  and  C_26
REMARK   15  A    between atoms: C_26  and  O_27
REMARK   16  A    between atoms: O_27  and  C_28
REMARK   17  A    between atoms: C_28  and  C_29
REMARK   18  A    between atoms: C_28  and  C_30
REMARK                            x       y       z     vdW  Elec       q    Type
REMARK                         _______ _______ _______ _____ _____    ______ ____
ROOT
ATOM      1  C   UNL     1       2.066   7.360  19.703  0.00  0.00    +0.000 A 
ATOM      2  O   UNL     1       1.740   6.720  20.867  0.00  0.00    +0.000 OA
ATOM      3  N   UNL     1       2.060   5.400  20.803  0.00  0.00    +0.000 NA
ATOM      4  C   UNL     1       2.609   5.193  19.603  0.00  0.00    +0.000 A 
ATOM      5  C   UNL     1       2.750   6.457  18.894  0.00  0.00    +0.000 A 
ENDROOT
BRANCH   4   6
ATOM      6  C   UNL     1       2.976   3.824  19.187  0.00  0.00    +0.000 A 
ATOM      7  C   UNL     1       3.840   3.025  19.950  0.00  0.00    +0.000 A 
ATOM      8  C   UNL     1       4.137   1.710  19.569  0.00  0.00    +0.000 A 
ATOM      9  C   UNL     1       3.614   1.193  18.389  0.00  0.00    +0.000 A 
ATOM     10  C   UNL     1       2.802   1.991  17.587  0.00  0.00    +0.000 A 
ATOM     11  C   UNL     1       2.483   3.295  17.982  0.00  0.00    +0.000 A 
ENDBRANCH   4   6
BRANCH   1  12
ATOM     12  N   UNL     1       1.635   8.650  19.610  0.00  0.00    +0.000 N 
BRANCH  12  14
ATOM     13  C   UNL     1      -0.252   9.750  20.758  0.00  0.00    +0.000 C 
ATOM     14  C   UNL     1       1.229   9.401  20.790  0.00  0.00    +0.000 C 
ENDBRANCH  12  14
BRANCH  12  15
ATOM     15  C   UNL     1       1.318   9.217  18.293  0.00  0.00    +0.000 C 
ATOM     16  C   UNL     1       2.304  10.294  17.854  0.00  0.00    +0.000 C 
ENDBRANCH  12  15
ENDBRANCH   1  12
BRANCH   5  17
ATOM     17  C   UNL     1       3.426   6.578  17.554  0.00  0.00    +0.000 C 
BRANCH  17  18
ATOM     18  N   UNL     1       4.911   6.639  17.478  0.00  0.00    +0.000 NA
BRANCH  18  19
ATOM     19  C   UNL     1       5.518   5.504  18.196  0.00  0.00    +0.000 C 
BRANCH  19  20
ATOM     20  C   UNL     1       6.624   5.889  19.152  0.00  0.00    +0.000 C 
ATOM     21  C   UNL     1       8.022   5.304  19.192  0.00  0.00    +0.000 C 
ATOM     22  C   UNL     1       7.796   6.657  18.588  0.00  0.00    +0.000 C 
ENDBRANCH  19  20
ENDBRANCH  18  19
BRANCH  18  23
ATOM     23  C   UNL     1       5.298   6.564  16.039  0.00  0.00    +0.000 C 
BRANCH  23  24
ATOM     24  C   UNL     1       6.109   5.331  15.578  0.00  0.00    +0.000 C 
BRANCH  24  25
ATOM     25  O   UNL     1       7.441   5.783  15.276  0.00  0.00    +0.000 OA
ATOM     26  H   UNL     1       7.528   6.691  15.614  0.00  0.00    +0.000 HD
ENDBRANCH  24  25
BRANCH  24  27
ATOM     27  C   UNL     1       5.459   4.676  14.352  0.00  0.00    +0.000 C 
BRANCH  27  28
ATOM     28  O   UNL     1       6.450   4.111  13.489  0.00  0.00    +0.000 OA
BRANCH  28  29
ATOM     29  C   UNL     1       5.930   3.101  12.615  0.00  0.00    +0.000 C 
ATOM     30  C   UNL     1       4.658   3.571  11.912  0.00  0.00    +0.000 C 
ATOM     31  C   UNL     1       7.010   2.788  11.585  0.00  0.00    +0.000 C 
ENDBRANCH  28  29
ENDBRANCH  27  28
ENDBRANCH  24  27
ENDBRANCH  23  24
ENDBRANCH  18  23
ENDBRANCH  17  18
ENDBRANCH   5  17
TORSDOF 14
ENDMDL
MODEL 9
REMARK VINA RESULT:      -6.4      0.764      1.491
REMARK  Name = 
REMARK  18 active torsions:
REMARK  status: ('A' for Active; 'I' for Inactive)
REMARK    1  A    between atoms: C_1  and  C_2
REMARK    2  A    between atoms: C_2  and  N_3
REMARK    3  A    between atoms: N_3  and  C_4
REMARK    4  A    between atoms: N_3  and  C_6
REMARK    5  A    between atoms: C_4  and  C_5
REMARK    6  A    between atoms: C_9  and  C_10
REMARK    7  A    between atoms: C_16  and  C_17
REMARK    8  A    between atoms: C_17  and  N_18
REMARK    9  A    between atoms: N_18  and  C_19
REMARK   10  A    between atoms: N_18  and  C_23
REMARK   11  A    between atoms: C_19  and  C_20
REMARK   12  A    between atoms: C_23  and  C_24
REMARK   13  A    between atoms: C_24  and  O_25
REMARK   14  A    between atoms: C_24  and  C_26
REMARK   15  A    between atoms: C_26  and  O_27
REMARK   16  A    between atoms: O_27  and  C_28
REMARK   17  A    between atoms: C_28  and  C_29
REMARK   18  A    between atoms: C_28  and  C_30
REMARK                            x       y       z     vdW  Elec       q    Type
REMARK                         _______ _______ _______ _____ _____    ______ ____
ROOT
ATOM      1  C   UNL     1       7.087   5.603  16.136  0.00  0.00    +0.000 A 
ATOM      2  O   UNL     1       8.026   5.926  15.197  0.00  0.00    +0.000 OA
ATOM      3  N   UNL     1       7.743   5.336  14.004  0.00  0.00    +0.000 NA
ATOM      4  C   UNL     1       6.610   4.648  14.171  0.00  0.00    +0.000 A 
ATOM      5  C   UNL     1       6.075   4.886  15.504  0.00  0.00    +0.000 A 
ENDROOT
BRANCH   4   6
ATOM      6  C   UNL     1       6.089   3.810  13.073  0.00  0.00    +0.000 A 
ATOM      7  C   UNL     1       6.917   2.942  12.347  0.00  0.00    +0.000 A 
ATOM      8  C   UNL     1       6.397   2.115  11.342  0.00  0.00    +0.000 A 
ATOM      9  C   UNL     1       5.047   2.182  11.016  0.00  0.00    +0.000 A 
ATOM     10  C   UNL     1       4.220   3.081  11.684  0.00  0.00    +0.000 A 
ATOM     11  C   UNL     1       4.735   3.887  12.706  0.00  0.00    +0.000 A 
ENDBRANCH   4   6
BRANCH   1  12
ATOM     12  N   UNL     1       7.372   6.012  17.405  0.00  0.00    +0.000 N 
BRANCH  12  14
ATOM     13  C   UNL     1       6.895   8.427  17.579  0.00  0.00    +0.000 C 
ATOM     14  C   UNL     1       7.942   7.326  17.668  0.00  0.00    +0.000 C 
ENDBRANCH  12  14
BRANCH  12  15
ATOM     15  C   UNL     1       7.361   5.037  18.504  0.00  0.00    +0.000 C 
ATOM     16  C   UNL     1       7.982   5.578  19.787  0.00  0.00    +0.000 C 
ENDBRANCH  12  15
ENDBRANCH   1  12
BRANCH   5  17
ATOM     17  C   UNL     1       4.754   4.334  15.971  0.00  0.00    +0.000 C 
BRANCH  17  18
ATOM     18  N   UNL     1       4.147   4.837  17.233  0.00  0.00    +0.000 NA
BRANCH  18  19
ATOM     19  C   UNL     1       3.721   6.241  17.084  0.00  0.00    +0.000 C 
BRANCH  19  20
ATOM     20  C   UNL     1       2.542   6.630  17.946  0.00  0.00    +0.000 C 
ATOM     21  C   UNL     1       2.584   7.509  19.182  0.00  0.00    +0.000 C 
ATOM     22  C   UNL     1       2.080   8.067  17.886  0.00  0.00    +0.000 C 
ENDBRANCH  19  20
ENDBRANCH  18  19
BRANCH  18  23
ATOM     23  C   UNL     1       2.951   3.997  17.531  0.00  0.00    +0.000 C 
BRANCH  23  24
ATOM     24  C   UNL     1       3.118   2.850  18.556  0.00  0.00    +0.000 C 
BRANCH  24  25
ATOM     25  O   UNL     1       3.988   1.870  17.963  0.00  0.00    +0.000 OA
ATOM     26  H   UNL     1       4.767   1.780  18.538  0.00  0.00    +0.000 HD
ENDBRANCH  24  25
BRANCH  24  27
ATOM     27  C   UNL     1       1.758   2.235  18.913  0.00  0.00    +0.000 C 
BRANCH  27  28
ATOM     28  O   UNL     1       0.894   3.212  19.501  0.00  0.00    +0.000 OA
BRANCH  28  29
ATOM     29  C   UNL     1       1.167   3.447  20.889  0.00  0.00    +0.000 C 
ATOM     30  C   UNL     1       1.952   2.293  21.507  0.00  0.00    +0.000 C 
ATOM     31  C   UNL     1       1.973   4.738  20.983  0.00  0.00    +0.000 C 
ENDBRANCH  28  29
ENDBRANCH  27  28
ENDBRANCH  24  27
ENDBRANCH  23  24
ENDBRANCH  18  23
ENDBRANCH  17  18
ENDBRANCH   5  17
TORSDOF 14
ENDMDL
