MODEL 1
REMARK VINA RESULT:     -10.3      0.000      0.000
REMARK  Name = 
REMARK  9 active torsions:
REMARK  status: ('A' for Active; 'I' for Inactive)
REMARK    1  A    between atoms: C_1  and  C_2
REMARK    2  A    between atoms: C_13  and  N_14
REMARK    3  A    between atoms: N_14  and  C_15
REMARK    4  A    between atoms: C_15  and  C_16
REMARK    5  A    between atoms: C_16  and  C_17
REMARK    6  A    between atoms: C_17  and  C_18
REMARK    7  A    between atoms: C_18  and  N_19
REMARK    8  A    between atoms: N_19  and  C_20
REMARK    9  A    between atoms: C_31  and  C_32
REMARK                            x       y       z     vdW  Elec       q    Type
REMARK                         _______ _______ _______ _____ _____    ______ ____
ROOT
ATOM      1  C   UNL     1       2.137   7.964  18.001  0.00  0.00    +0.000 C 
ENDROOT
BRANCH   1   2
ATOM      2  C   UNL     1       2.187   7.558  19.477  0.00  0.00    +0.000 C 
BRANCH   2   3
ATOM      3  N   UNL     1       3.257   6.655  19.816  0.00  0.00    +0.000 N 
ATOM      4  H   UNL     1       3.339   6.478  20.813  0.00  0.00    +0.000 HD
BRANCH   3  17
ATOM      5  C   UNL     1       7.707   7.765  17.399  0.00  0.00    +0.000 C 
ATOM      6  C   UNL     1       6.769   6.596  17.387  0.00  0.00    +0.000 A 
ATOM      7  C   UNL     1       7.008   5.482  16.593  0.00  0.00    +0.000 A 
ATOM      8  C   UNL     1       6.110   4.413  16.615  0.00  0.00    +0.000 A 
ATOM      9  C   UNL     1       4.975   4.415  17.414  0.00  0.00    +0.000 A 
ATOM     10  N   UNL     1       4.187   3.342  17.346  0.00  0.00    +0.000 NA
ATOM     11  C   UNL     1       3.073   3.286  18.076  0.00  0.00    +0.000 A 
ATOM     12  C   UNL     1       2.323   2.125  17.922  0.00  0.00    +0.000 A 
ATOM     13  C   UNL     1       1.137   1.894  18.611  0.00  0.00    +0.000 A 
ATOM     14  C   UNL     1       0.683   2.858  19.485  0.00  0.00    +0.000 A 
ATOM     15  C   UNL     1       1.424   4.029  19.647  0.00  0.00    +0.000 A 
ATOM     16  C   UNL     1       2.649   4.313  18.956  0.00  0.00    +0.000 A 
ATOM     17  C   UNL     1       3.519   5.477  19.051  0.00  0.00    +0.000 A 
ATOM     18  C   UNL     1       4.703   5.521  18.236  0.00  0.00    +0.000 A 
ATOM     19  C   UNL     1       5.621   6.610  18.190  0.00  0.00    +0.000 A 
ENDBRANCH   3  17
ENDBRANCH   2   3
ENDBRANCH   1   2
BRANCH   1  20
ATOM     20  C   UNL     1       1.958   9.501  17.864  0.00  0.00    +0.000 C 
BRANCH  20  21
ATOM     21  C   UNL     1       0.708   9.928  18.619  0.00  0.00    +0.000 C 
BRANCH  21  22
ATOM     22  N   UNL     1       0.168  11.221  18.299  0.00  0.00    +0.000 N 
ATOM     23  H   UNL     1       0.159  11.420  17.300  0.00  0.00    +0.000 HD
BRANCH  22  24
ATOM     24  C   UNL     1      -1.085  11.613  18.886  0.00  0.00    +0.000 A 
ATOM     25  C   UNL     1      -1.253  12.244  20.191  0.00  0.00    +0.000 A 
ATOM     26  C   UNL     1      -0.266  12.605  21.175  0.00  0.00    +0.000 A 
ATOM     27  C   UNL     1      -0.557  13.161  22.420  0.00  0.00    +0.000 A 
ATOM     28  C   UNL     1      -1.869  13.390  22.753  0.00  0.00    +0.000 A 
ATOM     29  C   UNL     1      -2.858  13.082  21.822  0.00  0.00    +0.000 A 
ATOM     30  C   UNL     1      -2.583  12.532  20.569  0.00  0.00    +0.000 A 
ATOM     31  N   UNL     1      -3.646  12.310  19.793  0.00  0.00    +0.000 NA
ATOM     32  C   UNL     1      -3.489  11.790  18.570  0.00  0.00    +0.000 A 
ATOM     33  C   UNL     1      -4.621  11.641  17.779  0.00  0.00    +0.000 A 
ATOM     34  C   UNL     1      -4.563  11.125  16.481  0.00  0.00    +0.000 A 
ATOM     35  C   UNL     1      -3.341  10.732  15.951  0.00  0.00    +0.000 A 
ATOM     36  C   UNL     1      -3.220  10.208  14.552  0.00  0.00    +0.000 C 
ATOM     37  C   UNL     1      -2.196  10.873  16.742  0.00  0.00    +0.000 A 
ATOM     38  C   UNL     1      -2.238  11.410  18.057  0.00  0.00    +0.000 A 
ENDBRANCH  22  24
ENDBRANCH  21  22
ENDBRANCH  20  21
ENDBRANCH   1  20
TORSDOF 7
ENDMDL
MODEL 2
REMARK VINA RESULT:     -10.1      0.168     10.176
REMARK  Name = 
REMARK  9 active torsions:
REMARK  status: ('A' for Active; 'I' for Inactive)
REMARK    1  A    between atoms: C_1  and  C_2
REMARK    2  A    between atoms: C_13  and  N_14
REMARK    3  A    between atoms: N_14  and  C_15
REMARK    4  A    between atoms: C_15  and  C_16
REMARK    5  A    between atoms: C_16  and  C_17
REMARK    6  A    between atoms: C_17  and  C_18
REMARK    7  A    between atoms: C_18  and  N_19
REMARK    8  A    between atoms: N_19  and  C_20
REMARK    9  A    between atoms: C_31  and  C_32
REMARK                            x       y       z     vdW  Elec       q    Type
REMARK                         _______ _______ _______ _____ _____    ______ ____
ROOT
ATOM      1  C   UNL     1       1.914   9.384  17.966  0.00  0.00    +0.000 C 
ENDROOT
BRANCH   1   2
ATOM      2  C   UNL     1       0.437   9.641  18.281  0.00  0.00    +0.000 C 
BRANCH   2   3
ATOM      3  N   UNL     1       0.070  11.032  18.344  0.00  0.00    +0.000 N 
ATOM      4  H   UNL     1       0.288  11.549  17.497  0.00  0.00    +0.000 HD
BRANCH   3  17
ATOM      5  C   UNL     1      -3.356  10.186  14.545  0.00  0.00    +0.000 C 
ATOM      6  C   UNL     1      -3.441  10.765  15.926  0.00  0.00    +0.000 A 
ATOM      7  C   UNL     1      -4.642  11.230  16.446  0.00  0.00    +0.000 A 
ATOM      8  C   UNL     1      -4.676  11.757  17.738  0.00  0.00    +0.000 A 
ATOM      9  C   UNL     1      -3.545  11.833  18.537  0.00  0.00    +0.000 A 
ATOM     10  N   UNL     1      -3.698  12.363  19.752  0.00  0.00    +0.000 NA
ATOM     11  C   UNL     1      -2.648  12.479  20.565  0.00  0.00    +0.000 A 
ATOM     12  C   UNL     1      -2.920  13.053  21.803  0.00  0.00    +0.000 A 
ATOM     13  C   UNL     1      -1.947  13.243  22.778  0.00  0.00    +0.000 A 
ATOM     14  C   UNL     1      -0.655  12.848  22.507  0.00  0.00    +0.000 A 
ATOM     15  C   UNL     1      -0.367  12.274  21.268  0.00  0.00    +0.000 A 
ATOM     16  C   UNL     1      -1.336  12.061  20.231  0.00  0.00    +0.000 A 
ATOM     17  C   UNL     1      -1.169  11.460  18.915  0.00  0.00    +0.000 A 
ATOM     18  C   UNL     1      -2.313  11.367  18.049  0.00  0.00    +0.000 A 
ATOM     19  C   UNL     1      -2.292  10.846  16.723  0.00  0.00    +0.000 A 
ENDBRANCH   3  17
ENDBRANCH   2   3
ENDBRANCH   1   2
BRANCH   1  20
ATOM     20  C   UNL     1       2.232   7.866  18.053  0.00  0.00    +0.000 C 
BRANCH  20  21
ATOM     21  C   UNL     1       2.314   7.455  19.516  0.00  0.00    +0.000 C 
BRANCH  21  22
ATOM     22  N   UNL     1       3.364   6.541  19.874  0.00  0.00    +0.000 N 
ATOM     23  H   UNL     1       3.342   6.263  20.853  0.00  0.00    +0.000 HD
BRANCH  22  24
ATOM     24  C   UNL     1       3.593   5.389  19.044  0.00  0.00    +0.000 A 
ATOM     25  C   UNL     1       2.700   4.243  18.912  0.00  0.00    +0.000 A 
ATOM     26  C   UNL     1       1.436   3.980  19.551  0.00  0.00    +0.000 A 
ATOM     27  C   UNL     1       0.693   2.813  19.383  0.00  0.00    +0.000 A 
ATOM     28  C   UNL     1       1.178   1.832  18.555  0.00  0.00    +0.000 A 
ATOM     29  C   UNL     1       2.384   2.052  17.893  0.00  0.00    +0.000 A 
ATOM     30  C   UNL     1       3.137   3.217  18.045  0.00  0.00    +0.000 A 
ATOM     31  N   UNL     1       4.261   3.273  17.328  0.00  0.00    +0.000 NA
ATOM     32  C   UNL     1       5.051   4.350  17.399  0.00  0.00    +0.000 A 
ATOM     33  C   UNL     1       6.175   4.385  16.582  0.00  0.00    +0.000 A 
ATOM     34  C   UNL     1       7.054   5.471  16.567  0.00  0.00    +0.000 A 
ATOM     35  C   UNL     1       6.818   6.559  17.398  0.00  0.00    +0.000 A 
ATOM     36  C   UNL     1       7.709   7.764  17.391  0.00  0.00    +0.000 C 
ATOM     37  C   UNL     1       5.693   6.532  18.228  0.00  0.00    +0.000 A 
ATOM     38  C   UNL     1       4.782   5.440  18.242  0.00  0.00    +0.000 A 
ENDBRANCH  22  24
ENDBRANCH  21  22
ENDBRANCH  20  21
ENDBRANCH   1  20
TORSDOF 7
ENDMDL
MODEL 3
REMARK VINA RESULT:      -9.9      0.587      3.462
REMARK  Name = 
REMARK  9 active torsions:
REMARK  status: ('A' for Active; 'I' for Inactive)
REMARK    1  A    between atoms: C_1  and  C_2
REMARK    2  A    between atoms: C_13  and  N_14
REMARK    3  A    between atoms: N_14  and  C_15
REMARK    4  A    between atoms: C_15  and  C_16
REMARK    5  A    between atoms: C_16  and  C_17
REMARK    6  A    between atoms: C_17  and  C_18
REMARK    7  A    between atoms: C_18  and  N_19
REMARK    8  A    between atoms: N_19  and  C_20
REMARK    9  A    between atoms: C_31  and  C_32
REMARK                            x       y       z     vdW  Elec       q    Type
REMARK                         _______ _______ _______ _____ _____    ______ ____
ROOT
ATOM      1  C   UNL     1       2.056   8.280  18.026  0.00  0.00    +0.000 C 
ENDROOT
BRANCH   1   2
ATOM      2  C   UNL     1       2.046   7.651  19.422  0.00  0.00    +0.000 C 
BRANCH   2   3
ATOM      3  N   UNL     1       3.193   6.831  19.720  0.00  0.00    +0.000 N 
ATOM      4  H   UNL     1       3.373   6.729  20.714  0.00  0.00    +0.000 HD
BRANCH   3  17
ATOM      5  C   UNL     1       7.656   7.818  17.273  0.00  0.00    +0.000 C 
ATOM      6  C   UNL     1       6.716   6.651  17.312  0.00  0.00    +0.000 A 
ATOM      7  C   UNL     1       6.955   5.500  16.571  0.00  0.00    +0.000 A 
ATOM      8  C   UNL     1       6.055   4.435  16.640  0.00  0.00    +0.000 A 
ATOM      9  C   UNL     1       4.917   4.478  17.433  0.00  0.00    +0.000 A 
ATOM     10  N   UNL     1       4.127   3.404  17.412  0.00  0.00    +0.000 NA
ATOM     11  C   UNL     1       3.010   3.385  18.138  0.00  0.00    +0.000 A 
ATOM     12  C   UNL     1       2.258   2.219  18.036  0.00  0.00    +0.000 A 
ATOM     13  C   UNL     1       1.068   2.023  18.730  0.00  0.00    +0.000 A 
ATOM     14  C   UNL     1       0.613   3.027  19.555  0.00  0.00    +0.000 A 
ATOM     15  C   UNL     1       1.355   4.204  19.666  0.00  0.00    +0.000 A 
ATOM     16  C   UNL     1       2.584   4.453  18.967  0.00  0.00    +0.000 A 
ATOM     17  C   UNL     1       3.456   5.618  19.011  0.00  0.00    +0.000 A 
ATOM     18  C   UNL     1       4.644   5.621  18.201  0.00  0.00    +0.000 A 
ATOM     19  C   UNL     1       5.564   6.705  18.108  0.00  0.00    +0.000 A 
ENDBRANCH   3  17
ENDBRANCH   2   3
ENDBRANCH   1   2
BRANCH   1  20
ATOM     20  C   UNL     1       1.723   9.795  18.110  0.00  0.00    +0.000 C 
BRANCH  20  21
ATOM     21  C   UNL     1       0.483   9.988  18.969  0.00  0.00    +0.000 C 
BRANCH  21  22
ATOM     22  N   UNL     1      -0.016  11.330  19.094  0.00  0.00    +0.000 N 
ATOM     23  H   UNL     1       0.501  12.008  18.537  0.00  0.00    +0.000 HD
BRANCH  22  24
ATOM     24  C   UNL     1      -1.429  11.560  18.955  0.00  0.00    +0.000 A 
ATOM     25  C   UNL     1      -2.261  11.106  17.845  0.00  0.00    +0.000 A 
ATOM     26  C   UNL     1      -1.899  10.364  16.665  0.00  0.00    +0.000 A 
ATOM     27  C   UNL     1      -2.782  10.031  15.639  0.00  0.00    +0.000 A 
ATOM     28  C   UNL     1      -4.093  10.427  15.739  0.00  0.00    +0.000 A 
ATOM     29  C   UNL     1      -4.496  11.124  16.875  0.00  0.00    +0.000 A 
ATOM     30  C   UNL     1      -3.626  11.459  17.914  0.00  0.00    +0.000 A 
ATOM     31  N   UNL     1      -4.178  12.116  18.936  0.00  0.00    +0.000 NA
ATOM     32  C   UNL     1      -3.430  12.478  19.985  0.00  0.00    +0.000 A 
ATOM     33  C   UNL     1      -4.068  13.102  21.051  0.00  0.00    +0.000 A 
ATOM     34  C   UNL     1      -3.381  13.503  22.200  0.00  0.00    +0.000 A 
ATOM     35  C   UNL     1      -2.012  13.289  22.294  0.00  0.00    +0.000 A 
ATOM     36  C   UNL     1      -1.237  13.666  23.520  0.00  0.00    +0.000 C 
ATOM     37  C   UNL     1      -1.360  12.667  21.224  0.00  0.00    +0.000 A 
ATOM     38  C   UNL     1      -2.049  12.240  20.056  0.00  0.00    +0.000 A 
ENDBRANCH  22  24
ENDBRANCH  21  22
ENDBRANCH  20  21
ENDBRANCH   1  20
TORSDOF 7
ENDMDL
MODEL 4
REMARK VINA RESULT:      -9.8      0.724     10.050
REMARK  Name = 
REMARK  9 active torsions:
REMARK  status: ('A' for Active; 'I' for Inactive)
REMARK    1  A    between atoms: C_1  and  C_2
REMARK    2  A    between atoms: C_13  and  N_14
REMARK    3  A    between atoms: N_14  and  C_15
REMARK    4  A    between atoms: C_15  and  C_16
REMARK    5  A    between atoms: C_16  and  C_17
REMARK    6  A    between atoms: C_17  and  C_18
REMARK    7  A    between atoms: C_18  and  N_19
REMARK    8  A    between atoms: N_19  and  C_20
REMARK    9  A    between atoms: C_31  and  C_32
REMARK                            x       y       z     vdW  Elec       q    Type
REMARK                         _______ _______ _______ _____ _____    ______ ____
ROOT
ATOM      1  C   UNL     1       1.207   9.087  17.720  0.00  0.00    +0.000 C 
ENDROOT
BRANCH   1   2
ATOM      2  C   UNL     1       0.852  10.353  18.504  0.00  0.00    +0.000 C 
BRANCH   2   3
ATOM      3  N   UNL     1      -0.336  10.246  19.312  0.00  0.00    +0.000 N 
ATOM      4  H   UNL     1      -0.156  10.311  20.310  0.00  0.00    +0.000 HD
BRANCH   3  17
ATOM      5  C   UNL     1      -1.344  13.227  23.433  0.00  0.00    +0.000 C 
ATOM      6  C   UNL     1      -2.048  12.953  22.138  0.00  0.00    +0.000 A 
ATOM      7  C   UNL     1      -3.261  13.555  21.829  0.00  0.00    +0.000 A 
ATOM      8  C   UNL     1      -3.880  13.274  20.609  0.00  0.00    +0.000 A 
ATOM      9  C   UNL     1      -3.323  12.409  19.678  0.00  0.00    +0.000 A 
ATOM     10  N   UNL     1      -4.010  12.212  18.552  0.00  0.00    +0.000 NA
ATOM     11  C   UNL     1      -3.539  11.382  17.622  0.00  0.00    +0.000 A 
ATOM     12  C   UNL     1      -4.339  11.245  16.492  0.00  0.00    +0.000 A 
ATOM     13  C   UNL     1      -3.999  10.428  15.419  0.00  0.00    +0.000 A 
ATOM     14  C   UNL     1      -2.819   9.720  15.477  0.00  0.00    +0.000 A 
ATOM     15  C   UNL     1      -2.007   9.845  16.605  0.00  0.00    +0.000 A 
ATOM     16  C   UNL     1      -2.318  10.672  17.737  0.00  0.00    +0.000 A 
ATOM     17  C   UNL     1      -1.553  10.903  18.954  0.00  0.00    +0.000 A 
ATOM     18  C   UNL     1      -2.095  11.786  19.951  0.00  0.00    +0.000 A 
ATOM     19  C   UNL     1      -1.483  12.071  21.206  0.00  0.00    +0.000 A 
ENDBRANCH   3  17
ENDBRANCH   2   3
ENDBRANCH   1   2
BRANCH   1  20
ATOM     20  C   UNL     1       2.538   8.479  18.243  0.00  0.00    +0.000 C 
BRANCH  20  21
ATOM     21  C   UNL     1       2.239   7.546  19.407  0.00  0.00    +0.000 C 
BRANCH  21  22
ATOM     22  N   UNL     1       3.289   6.648  19.804  0.00  0.00    +0.000 N 
ATOM     23  H   UNL     1       3.258   6.400  20.791  0.00  0.00    +0.000 HD
BRANCH  22  24
ATOM     24  C   UNL     1       3.530   5.472  19.012  0.00  0.00    +0.000 A 
ATOM     25  C   UNL     1       2.639   4.322  18.901  0.00  0.00    +0.000 A 
ATOM     26  C   UNL     1       1.366   4.078  19.529  0.00  0.00    +0.000 A 
ATOM     27  C   UNL     1       0.625   2.906  19.385  0.00  0.00    +0.000 A 
ATOM     28  C   UNL     1       1.122   1.901  18.593  0.00  0.00    +0.000 A 
ATOM     29  C   UNL     1       2.338   2.102  17.944  0.00  0.00    +0.000 A 
ATOM     30  C   UNL     1       3.088   3.272  18.072  0.00  0.00    +0.000 A 
ATOM     31  N   UNL     1       4.223   3.306  17.370  0.00  0.00    +0.000 NA
ATOM     32  C   UNL     1       5.012   4.386  17.420  0.00  0.00    +0.000 A 
ATOM     33  C   UNL     1       6.148   4.396  16.620  0.00  0.00    +0.000 A 
ATOM     34  C   UNL     1       7.027   5.482  16.584  0.00  0.00    +0.000 A 
ATOM     35  C   UNL     1       6.779   6.594  17.379  0.00  0.00    +0.000 A 
ATOM     36  C   UNL     1       7.670   7.798  17.350  0.00  0.00    +0.000 C 
ATOM     37  C   UNL     1       5.642   6.591  18.193  0.00  0.00    +0.000 A 
ATOM     38  C   UNL     1       4.731   5.500  18.227  0.00  0.00    +0.000 A 
ENDBRANCH  22  24
ENDBRANCH  21  22
ENDBRANCH  20  21
ENDBRANCH   1  20
TORSDOF 7
ENDMDL
MODEL 5
REMARK VINA RESULT:      -9.8      1.017     10.369
REMARK  Name = 
REMARK  9 active torsions:
REMARK  status: ('A' for Active; 'I' for Inactive)
REMARK    1  A    between atoms: C_1  and  C_2
REMARK    2  A    between atoms: C_13  and  N_14
REMARK    3  A    between atoms: N_14  and  C_15
REMARK    4  A    between atoms: C_15  and  C_16
REMARK    5  A    between atoms: C_16  and  C_17
REMARK    6  A    between atoms: C_17  and  C_18
REMARK    7  A    between atoms: C_18  and  N_19
REMARK    8  A    between atoms: N_19  and  C_20
REMARK    9  A    between atoms: C_31  and  C_32
REMARK                            x       y       z     vdW  Elec       q    Type
REMARK                         _______ _______ _______ _____ _____    ______ ____
ROOT
ATOM      1  C   UNL     1       0.600   9.524  19.193  0.00  0.00    +0.000 C 
ENDROOT
BRANCH   1   2
ATOM      2  C   UNL     1       0.997  10.993  19.371  0.00  0.00    +0.000 C 
BRANCH   2   3
ATOM      3  N   UNL     1       0.052  11.939  18.836  0.00  0.00    +0.000 N 
ATOM      4  H   UNL     1       0.041  11.973  17.821  0.00  0.00    +0.000 HD
BRANCH   3  17
ATOM      5  C   UNL     1      -3.028  10.470  14.932  0.00  0.00    +0.000 C 
ATOM      6  C   UNL     1      -3.265  10.987  16.319  0.00  0.00    +0.000 A 
ATOM      7  C   UNL     1      -4.549  11.176  16.814  0.00  0.00    +0.000 A 
ATOM      8  C   UNL     1      -4.724  11.655  18.113  0.00  0.00    +0.000 A 
ATOM      9  C   UNL     1      -3.654  11.951  18.944  0.00  0.00    +0.000 A 
ATOM     10  N   UNL     1      -3.944  12.410  20.163  0.00  0.00    +0.000 NA
ATOM     11  C   UNL     1      -2.962  12.728  21.006  0.00  0.00    +0.000 A 
ATOM     12  C   UNL     1      -3.378  13.204  22.245  0.00  0.00    +0.000 A 
ATOM     13  C   UNL     1      -2.490  13.575  23.250  0.00  0.00    +0.000 A 
ATOM     14  C   UNL     1      -1.138  13.469  23.007  0.00  0.00    +0.000 A 
ATOM     15  C   UNL     1      -0.706  12.996  21.768  0.00  0.00    +0.000 A 
ATOM     16  C   UNL     1      -1.583  12.605  20.701  0.00  0.00    +0.000 A 
ATOM     17  C   UNL     1      -1.262  12.082  19.381  0.00  0.00    +0.000 A 
ATOM     18  C   UNL     1      -2.340  11.767  18.482  0.00  0.00    +0.000 A 
ATOM     19  C   UNL     1      -2.178  11.292  17.149  0.00  0.00    +0.000 A 
ENDBRANCH   3  17
ENDBRANCH   2   3
ENDBRANCH   1   2
BRANCH   1  20
ATOM     20  C   UNL     1       1.358   8.898  17.990  0.00  0.00    +0.000 C 
BRANCH  20  21
ATOM     21  C   UNL     1       2.372   7.888  18.508  0.00  0.00    +0.000 C 
BRANCH  21  22
ATOM     22  N   UNL     1       2.949   6.996  17.540  0.00  0.00    +0.000 N 
ATOM     23  H   UNL     1       3.531   7.467  16.851  0.00  0.00    +0.000 HD
BRANCH  22  24
ATOM     24  C   UNL     1       3.607   5.804  18.003  0.00  0.00    +0.000 A 
ATOM     25  C   UNL     1       2.959   4.529  18.289  0.00  0.00    +0.000 A 
ATOM     26  C   UNL     1       1.570   4.159  18.197  0.00  0.00    +0.000 A 
ATOM     27  C   UNL     1       1.058   2.912  18.551  0.00  0.00    +0.000 A 
ATOM     28  C   UNL     1       1.920   1.952  19.022  0.00  0.00    +0.000 A 
ATOM     29  C   UNL     1       3.277   2.254  19.103  0.00  0.00    +0.000 A 
ATOM     30  C   UNL     1       3.806   3.496  18.746  0.00  0.00    +0.000 A 
ATOM     31  N   UNL     1       5.129   3.614  18.871  0.00  0.00    +0.000 NA
ATOM     32  C   UNL     1       5.735   4.762  18.549  0.00  0.00    +0.000 A 
ATOM     33  C   UNL     1       7.121   4.811  18.636  0.00  0.00    +0.000 A 
ATOM     34  C   UNL     1       7.851   5.956  18.305  0.00  0.00    +0.000 A 
ATOM     35  C   UNL     1       7.183   7.099  17.884  0.00  0.00    +0.000 A 
ATOM     36  C   UNL     1       7.922   8.340  17.482  0.00  0.00    +0.000 C 
ATOM     37  C   UNL     1       5.788   7.063  17.799  0.00  0.00    +0.000 A 
ATOM     38  C   UNL     1       5.035   5.900  18.118  0.00  0.00    +0.000 A 
ENDBRANCH  22  24
ENDBRANCH  21  22
ENDBRANCH  20  21
ENDBRANCH   1  20
TORSDOF 7
ENDMDL
MODEL 6
REMARK VINA RESULT:      -9.7      1.011      1.115
REMARK  Name = 
REMARK  9 active torsions:
REMARK  status: ('A' for Active; 'I' for Inactive)
REMARK    1  A    between atoms: C_1  and  C_2
REMARK    2  A    between atoms: C_13  and  N_14
REMARK    3  A    between atoms: N_14  and  C_15
REMARK    4  A    between atoms: C_15  and  C_16
REMARK    5  A    between atoms: C_16  and  C_17
REMARK    6  A    between atoms: C_17  and  C_18
REMARK    7  A    between atoms: C_18  and  N_19
REMARK    8  A    between atoms: N_19  and  C_20
REMARK    9  A    between atoms: C_31  and  C_32
REMARK                            x       y       z     vdW  Elec       q    Type
REMARK                         _______ _______ _______ _____ _____    ______ ____
ROOT
ATOM      1  C   UNL     1       1.366   8.924  17.867  0.00  0.00    +0.000 C 
ENDROOT
BRANCH   1   2
ATOM      2  C   UNL     1       2.441   8.009  18.460  0.00  0.00    +0.000 C 
BRANCH   2   3
ATOM      3  N   UNL     1       3.021   7.080  17.525  0.00  0.00    +0.000 N 
ATOM      4  H   UNL     1       3.514   7.528  16.758  0.00  0.00    +0.000 HD
BRANCH   3  17
ATOM      5  C   UNL     1       8.012   8.484  17.597  0.00  0.00    +0.000 C 
ATOM      6  C   UNL     1       7.276   7.207  17.874  0.00  0.00    +0.000 A 
ATOM      7  C   UNL     1       7.947   6.047  18.238  0.00  0.00    +0.000 A 
ATOM      8  C   UNL     1       7.222   4.881  18.490  0.00  0.00    +0.000 A 
ATOM      9  C   UNL     1       5.839   4.834  18.396  0.00  0.00    +0.000 A 
ATOM     10  N   UNL     1       5.255   3.662  18.653  0.00  0.00    +0.000 NA
ATOM     11  C   UNL     1       3.931   3.544  18.566  0.00  0.00    +0.000 A 
ATOM     12  C   UNL     1       3.431   2.277  18.848  0.00  0.00    +0.000 A 
ATOM     13  C   UNL     1       2.073   1.975  18.814  0.00  0.00    +0.000 A 
ATOM     14  C   UNL     1       1.183   2.974  18.485  0.00  0.00    +0.000 A 
ATOM     15  C   UNL     1       1.671   4.250  18.198  0.00  0.00    +0.000 A 
ATOM     16  C   UNL     1       3.061   4.607  18.216  0.00  0.00    +0.000 A 
ATOM     17  C   UNL     1       3.691   5.894  17.958  0.00  0.00    +0.000 A 
ATOM     18  C   UNL     1       5.124   5.988  18.037  0.00  0.00    +0.000 A 
ATOM     19  C   UNL     1       5.880   7.166  17.768  0.00  0.00    +0.000 A 
ENDBRANCH   3  17
ENDBRANCH   2   3
ENDBRANCH   1   2
BRANCH   1  20
ATOM     20  C   UNL     1       0.679   9.753  18.987  0.00  0.00    +0.000 C 
BRANCH  20  21
ATOM     21  C   UNL     1       1.150  11.197  18.903  0.00  0.00    +0.000 C 
BRANCH  21  22
ATOM     22  N   UNL     1       0.201  12.160  18.416  0.00  0.00    +0.000 N 
ATOM     23  H   UNL     1       0.050  12.109  17.411  0.00  0.00    +0.000 HD
BRANCH  22  24
ATOM     24  C   UNL     1      -1.061  12.292  19.093  0.00  0.00    +0.000 A 
ATOM     25  C   UNL     1      -1.263  12.878  20.414  0.00  0.00    +0.000 A 
ATOM     26  C   UNL     1      -0.303  13.434  21.332  0.00  0.00    +0.000 A 
ATOM     27  C   UNL     1      -0.613  13.922  22.601  0.00  0.00    +0.000 A 
ATOM     28  C   UNL     1      -1.917  13.880  23.026  0.00  0.00    +0.000 A 
ATOM     29  C   UNL     1      -2.886  13.376  22.162  0.00  0.00    +0.000 A 
ATOM     30  C   UNL     1      -2.593  12.890  20.886  0.00  0.00    +0.000 A 
ATOM     31  N   UNL     1      -3.641  12.456  20.183  0.00  0.00    +0.000 NA
ATOM     32  C   UNL     1      -3.467  11.976  18.946  0.00  0.00    +0.000 A 
ATOM     33  C   UNL     1      -4.599  11.598  18.233  0.00  0.00    +0.000 A 
ATOM     34  C   UNL     1      -4.528  11.102  16.928  0.00  0.00    +0.000 A 
ATOM     35  C   UNL     1      -3.291  10.965  16.310  0.00  0.00    +0.000 A 
ATOM     36  C   UNL     1      -3.165  10.473  14.900  0.00  0.00    +0.000 C 
ATOM     37  C   UNL     1      -2.146  11.336  17.022  0.00  0.00    +0.000 A 
ATOM     38  C   UNL     1      -2.205  11.857  18.343  0.00  0.00    +0.000 A 
ENDBRANCH  22  24
ENDBRANCH  21  22
ENDBRANCH  20  21
ENDBRANCH   1  20
TORSDOF 7
ENDMDL
MODEL 7
REMARK VINA RESULT:      -9.6      0.913     10.212
REMARK  Name = 
REMARK  9 active torsions:
REMARK  status: ('A' for Active; 'I' for Inactive)
REMARK    1  A    between atoms: C_1  and  C_2
REMARK    2  A    between atoms: C_13  and  N_14
REMARK    3  A    between atoms: N_14  and  C_15
REMARK    4  A    between atoms: C_15  and  C_16
REMARK    5  A    between atoms: C_16  and  C_17
REMARK    6  A    between atoms: C_17  and  C_18
REMARK    7  A    between atoms: C_18  and  N_19
REMARK    8  A    between atoms: N_19  and  C_20
REMARK    9  A    between atoms: C_31  and  C_32
REMARK                            x       y       z     vdW  Elec       q    Type
REMARK                         _______ _______ _______ _____ _____    ______ ____
ROOT
ATOM      1  C   UNL     1       1.251   9.082  17.676  0.00  0.00    +0.000 C 
ENDROOT
BRANCH   1   2
ATOM      2  C   UNL     1       0.761   9.950  18.839  0.00  0.00    +0.000 C 
BRANCH   2   3
ATOM      3  N   UNL     1       0.111  11.173  18.443  0.00  0.00    +0.000 N 
ATOM      4  H   UNL     1       0.182  11.368  17.448  0.00  0.00    +0.000 HD
BRANCH   3  17
ATOM      5  C   UNL     1      -3.130  10.119  14.535  0.00  0.00    +0.000 C 
ATOM      6  C   UNL     1      -3.291  10.711  15.903  0.00  0.00    +0.000 A 
ATOM      7  C   UNL     1      -4.531  11.126  16.372  0.00  0.00    +0.000 A 
ATOM      8  C   UNL     1      -4.637  11.668  17.655  0.00  0.00    +0.000 A 
ATOM      9  C   UNL     1      -3.541  11.807  18.493  0.00  0.00    +0.000 A 
ATOM     10  N   UNL     1      -3.763  12.345  19.694  0.00  0.00    +0.000 NA
ATOM     11  C   UNL     1      -2.751  12.520  20.542  0.00  0.00    +0.000 A 
ATOM     12  C   UNL     1      -3.094  13.097  21.761  0.00  0.00    +0.000 A 
ATOM     13  C   UNL     1      -2.167  13.344  22.768  0.00  0.00    +0.000 A 
ATOM     14  C   UNL     1      -0.850  13.007  22.550  0.00  0.00    +0.000 A 
ATOM     15  C   UNL     1      -0.490  12.430  21.331  0.00  0.00    +0.000 A 
ATOM     16  C   UNL     1      -1.409  12.159  20.263  0.00  0.00    +0.000 A 
ATOM     17  C   UNL     1      -1.166  11.549  18.963  0.00  0.00    +0.000 A 
ATOM     18  C   UNL     1      -2.272  11.392  18.057  0.00  0.00    +0.000 A 
ATOM     19  C   UNL     1      -2.178  10.855  16.741  0.00  0.00    +0.000 A 
ENDBRANCH   3  17
ENDBRANCH   2   3
ENDBRANCH   1   2
BRANCH   1  20
ATOM     20  C   UNL     1       2.616   8.425  18.024  0.00  0.00    +0.000 C 
BRANCH  20  21
ATOM     21  C   UNL     1       2.420   7.441  19.167  0.00  0.00    +0.000 C 
BRANCH  21  22
ATOM     22  N   UNL     1       3.509   6.544  19.443  0.00  0.00    +0.000 N 
ATOM     23  H   UNL     1       3.540   6.231  20.412  0.00  0.00    +0.000 HD
BRANCH  22  24
ATOM     24  C   UNL     1       3.729   5.429  18.562  0.00  0.00    +0.000 A 
ATOM     25  C   UNL     1       4.530   5.453  17.342  0.00  0.00    +0.000 A 
ATOM     26  C   UNL     1       5.256   6.539  16.737  0.00  0.00    +0.000 A 
ATOM     27  C   UNL     1       5.949   6.452  15.530  0.00  0.00    +0.000 A 
ATOM     28  C   UNL     1       5.954   5.256  14.855  0.00  0.00    +0.000 A 
ATOM     29  C   UNL     1       5.288   4.169  15.415  0.00  0.00    +0.000 A 
ATOM     30  C   UNL     1       4.596   4.238  16.625  0.00  0.00    +0.000 A 
ATOM     31  N   UNL     1       4.025   3.101  17.026  0.00  0.00    +0.000 NA
ATOM     32  C   UNL     1       3.342   3.060  18.176  0.00  0.00    +0.000 A 
ATOM     33  C   UNL     1       2.823   1.836  18.579  0.00  0.00    +0.000 A 
ATOM     34  C   UNL     1       2.111   1.683  19.772  0.00  0.00    +0.000 A 
ATOM     35  C   UNL     1       1.895   2.784  20.591  0.00  0.00    +0.000 A 
ATOM     36  C   UNL     1       1.170   2.665  21.897  0.00  0.00    +0.000 C 
ATOM     37  C   UNL     1       2.408   4.022  20.191  0.00  0.00    +0.000 A 
ATOM     38  C   UNL     1       3.147   4.189  18.988  0.00  0.00    +0.000 A 
ENDBRANCH  22  24
ENDBRANCH  21  22
ENDBRANCH  20  21
ENDBRANCH   1  20
TORSDOF 7
ENDMDL
MODEL 8
REMARK VINA RESULT:      -9.6      0.954      3.341
REMARK  Name = 
REMARK  9 active torsions:
REMARK  status: ('A' for Active; 'I' for Inactive)
REMARK    1  A    between atoms: C_1  and  C_2
REMARK    2  A    between atoms: C_13  and  N_14
REMARK    3  A    between atoms: N_14  and  C_15
REMARK    4  A    between atoms: C_15  and  C_16
REMARK    5  A    between atoms: C_16  and  C_17
REMARK    6  A    between atoms: C_17  and  C_18
REMARK    7  A    between atoms: C_18  and  N_19
REMARK    8  A    between atoms: N_19  and  C_20
REMARK    9  A    between atoms: C_31  and  C_32
REMARK                            x       y       z     vdW  Elec       q    Type
REMARK                         _______ _______ _______ _____ _____    ______ ____
ROOT
ATOM      1  C   UNL     1       2.112   8.070  17.989  0.00  0.00    +0.000 C 
ENDROOT
BRANCH   1   2
ATOM      2  C   UNL     1       2.307   7.460  19.380  0.00  0.00    +0.000 C 
BRANCH   2   3
ATOM      3  N   UNL     1       3.448   6.588  19.499  0.00  0.00    +0.000 N 
ATOM      4  H   UNL     1       3.674   6.343  20.459  0.00  0.00    +0.000 HD
BRANCH   3  17
ATOM      5  C   UNL     1       1.186   2.638  21.982  0.00  0.00    +0.000 C 
ATOM      6  C   UNL     1       1.944   2.774  20.695  0.00  0.00    +0.000 A 
ATOM      7  C   UNL     1       2.180   1.680  19.873  0.00  0.00    +0.000 A 
ATOM      8  C   UNL     1       2.886   1.852  18.681  0.00  0.00    +0.000 A 
ATOM      9  C   UNL     1       3.364   3.090  18.276  0.00  0.00    +0.000 A 
ATOM     10  N   UNL     1       4.031   3.131  17.121  0.00  0.00    +0.000 NA
ATOM     11  C   UNL     1       4.530   4.286  16.682  0.00  0.00    +0.000 A 
ATOM     12  C   UNL     1       5.214   4.212  15.472  0.00  0.00    +0.000 A 
ATOM     13  C   UNL     1       5.791   5.320  14.861  0.00  0.00    +0.000 A 
ATOM     14  C   UNL     1       5.684   6.546  15.481  0.00  0.00    +0.000 A 
ATOM     15  C   UNL     1       5.004   6.635  16.696  0.00  0.00    +0.000 A 
ATOM     16  C   UNL     1       4.396   5.520  17.365  0.00  0.00    +0.000 A 
ATOM     17  C   UNL     1       3.647   5.484  18.614  0.00  0.00    +0.000 A 
ATOM     18  C   UNL     1       3.139   4.222  19.077  0.00  0.00    +0.000 A 
ATOM     19  C   UNL     1       2.430   4.026  20.297  0.00  0.00    +0.000 A 
ENDBRANCH   3  17
ENDBRANCH   2   3
ENDBRANCH   1   2
BRANCH   1  20
ATOM     20  C   UNL     1       1.923   9.609  18.090  0.00  0.00    +0.000 C 
BRANCH  20  21
ATOM     21  C   UNL     1       0.479   9.912  18.460  0.00  0.00    +0.000 C 
BRANCH  21  22
ATOM     22  N   UNL     1       0.070  11.288  18.394  0.00  0.00    +0.000 N 
ATOM     23  H   UNL     1       0.158  11.693  17.464  0.00  0.00    +0.000 HD
BRANCH  22  24
ATOM     24  C   UNL     1      -1.192  11.664  18.973  0.00  0.00    +0.000 A 
ATOM     25  C   UNL     1      -1.380  12.276  20.284  0.00  0.00    +0.000 A 
ATOM     26  C   UNL     1      -0.406  12.631  21.284  0.00  0.00    +0.000 A 
ATOM     27  C   UNL     1      -0.715  13.168  22.533  0.00  0.00    +0.000 A 
ATOM     28  C   UNL     1      -2.032  13.383  22.854  0.00  0.00    +0.000 A 
ATOM     29  C   UNL     1      -3.009  13.080  21.909  0.00  0.00    +0.000 A 
ATOM     30  C   UNL     1      -2.716  12.549  20.651  0.00  0.00    +0.000 A 
ATOM     31  N   UNL     1      -3.768  12.330  19.861  0.00  0.00    +0.000 NA
ATOM     32  C   UNL     1      -3.594  11.828  18.633  0.00  0.00    +0.000 A 
ATOM     33  C   UNL     1      -4.717  11.681  17.827  0.00  0.00    +0.000 A 
ATOM     34  C   UNL     1      -4.640  11.183  16.524  0.00  0.00    +0.000 A 
ATOM     35  C   UNL     1      -3.409  10.806  16.002  0.00  0.00    +0.000 A 
ATOM     36  C   UNL     1      -3.270  10.302  14.597  0.00  0.00    +0.000 C 
ATOM     37  C   UNL     1      -2.274  10.944  16.807  0.00  0.00    +0.000 A 
ATOM     38  C   UNL     1      -2.335  11.464  18.129  0.00  0.00    +0.000 A 
ENDBRANCH  22  24
ENDBRANCH  21  22
ENDBRANCH  20  21
ENDBRANCH   1  20
TORSDOF 7
ENDMDL
MODEL 9
REMARK VINA RESULT:      -9.4      1.075     10.321
REMARK  Name = 
REMARK  9 active torsions:
REMARK  status: ('A' for Active; 'I' for Inactive)
REMARK    1  A    between atoms: C_1  and  C_2
REMARK    2  A    between atoms: C_13  and  N_14
REMARK    3  A    between atoms: N_14  and  C_15
REMARK    4  A    between atoms: C_15  and  C_16
REMARK    5  A    between atoms: C_16  and  C_17
REMARK    6  A    between atoms: C_17  and  C_18
REMARK    7  A    between atoms: C_18  and  N_19
REMARK    8  A    between atoms: N_19  and  C_20
REMARK    9  A    between atoms: C_31  and  C_32
REMARK                            x       y       z     vdW  Elec       q    Type
REMARK                         _______ _______ _______ _____ _____    ______ ____
ROOT
ATOM      1  C   UNL     1       0.455   9.536  18.953  0.00  0.00    +0.000 C 
ENDROOT
BRANCH   1   2
ATOM      2  C   UNL     1       0.671  10.896  19.624  0.00  0.00    +0.000 C 
BRANCH   2   3
ATOM      3  N   UNL     1      -0.035  11.989  19.006  0.00  0.00    +0.000 N 
ATOM      4  H   UNL     1       0.370  12.288  18.123  0.00  0.00    +0.000 HD
BRANCH   3  17
ATOM      5  C   UNL     1      -1.261  14.033  23.610  0.00  0.00    +0.000 C 
ATOM      6  C   UNL     1      -2.053  13.522  22.444  0.00  0.00    +0.000 A 
ATOM      7  C   UNL     1      -3.441  13.526  22.452  0.00  0.00    +0.000 A 
ATOM      8  C   UNL     1      -4.139  13.045  21.342  0.00  0.00    +0.000 A 
ATOM      9  C   UNL     1      -3.492  12.561  20.214  0.00  0.00    +0.000 A 
ATOM     10  N   UNL     1      -4.263  12.120  19.218  0.00  0.00    +0.000 NA
ATOM     11  C   UNL     1      -3.706  11.628  18.113  0.00  0.00    +0.000 A 
ATOM     12  C   UNL     1      -4.604  11.190  17.144  0.00  0.00    +0.000 A 
ATOM     13  C   UNL     1      -4.199  10.656  15.924  0.00  0.00    +0.000 A 
ATOM     14  C   UNL     1      -2.850  10.554  15.664  0.00  0.00    +0.000 A 
ATOM     15  C   UNL     1      -1.938  10.986  16.628  0.00  0.00    +0.000 A 
ATOM     16  C   UNL     1      -2.308  11.540  17.900  0.00  0.00    +0.000 A 
ATOM     17  C   UNL     1      -1.463  12.042  18.974  0.00  0.00    +0.000 A 
ATOM     18  C   UNL     1      -2.089  12.547  20.166  0.00  0.00    +0.000 A 
ATOM     19  C   UNL     1      -1.392  13.027  21.312  0.00  0.00    +0.000 A 
ENDBRANCH   3  17
ENDBRANCH   2   3
ENDBRANCH   1   2
BRANCH   1  20
ATOM     20  C   UNL     1       1.660   9.181  18.040  0.00  0.00    +0.000 C 
BRANCH  20  21
ATOM     21  C   UNL     1       2.312   7.903  18.546  0.00  0.00    +0.000 C 
BRANCH  21  22
ATOM     22  N   UNL     1       2.954   7.071  17.565  0.00  0.00    +0.000 N 
ATOM     23  H   UNL     1       3.556   7.588  16.927  0.00  0.00    +0.000 HD
BRANCH  22  24
ATOM     24  C   UNL     1       3.618   5.873  18.001  0.00  0.00    +0.000 A 
ATOM     25  C   UNL     1       2.974   4.592  18.272  0.00  0.00    +0.000 A 
ATOM     26  C   UNL     1       1.584   4.223  18.188  0.00  0.00    +0.000 A 
ATOM     27  C   UNL     1       1.077   2.969  18.527  0.00  0.00    +0.000 A 
ATOM     28  C   UNL     1       1.944   2.003  18.972  0.00  0.00    +0.000 A 
ATOM     29  C   UNL     1       3.302   2.304  19.045  0.00  0.00    +0.000 A 
ATOM     30  C   UNL     1       3.826   3.552  18.703  0.00  0.00    +0.000 A 
ATOM     31  N   UNL     1       5.151   3.669  18.817  0.00  0.00    +0.000 NA
ATOM     32  C   UNL     1       5.752   4.824  18.508  0.00  0.00    +0.000 A 
ATOM     33  C   UNL     1       7.139   4.872  18.581  0.00  0.00    +0.000 A 
ATOM     34  C   UNL     1       7.864   6.023  18.262  0.00  0.00    +0.000 A 
ATOM     35  C   UNL     1       7.192   7.173  17.867  0.00  0.00    +0.000 A 
ATOM     36  C   UNL     1       7.925   8.421  17.479  0.00  0.00    +0.000 C 
ATOM     37  C   UNL     1       5.796   7.137  17.797  0.00  0.00    +0.000 A 
ATOM     38  C   UNL     1       5.046   5.968  18.103  0.00  0.00    +0.000 A 
ENDBRANCH  22  24
ENDBRANCH  21  22
ENDBRANCH  20  21
ENDBRANCH   1  20
TORSDOF 7
ENDMDL
