MODEL 1
REMARK VINA RESULT:      -7.9      0.000      0.000
REMARK  Name = 
REMARK  7 active torsions:
REMARK  status: ('A' for Active; 'I' for Inactive)
REMARK    1  A    between atoms: C_1  and  C_2
REMARK    2  A    between atoms: C_2  and  O_3
REMARK    3  A    between atoms: O_3  and  C_4
REMARK    4  A    between atoms: C_4  and  C_6
REMARK    5  A    between atoms: C_9  and  C_10
REMARK    6  A    between atoms: C_15  and  O_16
REMARK    7  A    between atoms: C_17  and  C_18
REMARK                            x       y       z     vdW  Elec       q    Type
REMARK                         _______ _______ _______ _____ _____    ______ ____
ROOT
ATOM      1  C   UNL     1       3.299   6.582  18.217  0.00  0.00    +0.000 A 
ATOM      2  C   UNL     1       2.866   7.749  17.701  0.00  0.00    +0.000 A 
ATOM      3  C   UNL     1       2.004   8.640  18.464  0.00  0.00    +0.000 A 
ATOM      4  C   UNL     1       1.536   9.843  17.933  0.00  0.00    +0.000 A 
ATOM      5  C   UNL     1       0.680  10.660  18.680  0.00  0.00    +0.000 A 
ATOM      6  C   UNL     1       0.289  10.269  19.962  0.00  0.00    +0.000 A 
ATOM      7  C   UNL     1       0.755   9.070  20.515  0.00  0.00    +0.000 A 
ATOM      8  C   UNL     1       1.615   8.271  19.752  0.00  0.00    +0.000 A 
ATOM      9  O   UNL     1       2.095   7.061  20.288  0.00  0.00    +0.000 OA
ATOM     10  C   UNL     1       2.896   6.170  19.588  0.00  0.00    +0.000 A 
ATOM     11  O   UNL     1       3.221   5.101  20.093  0.00  0.00    +0.000 OA
ENDROOT
BRANCH   1  15
ATOM     12  C   UNL     1       5.682   4.781  15.778  0.00  0.00    +0.000 A 
ATOM     13  C   UNL     1       4.980   3.865  16.529  0.00  0.00    +0.000 A 
ATOM     14  N   UNL     1       4.059   4.394  17.416  0.00  0.00    +0.000 NA
ATOM     15  C   UNL     1       4.089   5.720  17.390  0.00  0.00    +0.000 A 
ATOM     16  S   UNL     1       5.149   6.353  16.170  0.00  0.00    +0.000 S 
BRANCH  12  17
ATOM     17  C   UNL     1       6.666   4.583  14.746  0.00  0.00    +0.000 C 
ATOM     18  O   UNL     1       7.617   5.315  14.497  0.00  0.00    +0.000 OA
BRANCH  17  19
ATOM     19  O   UNL     1       6.320   3.493  14.000  0.00  0.00    +0.000 OA
BRANCH  19  21
ATOM     20  C   UNL     1       5.056   3.352  11.983  0.00  0.00    +0.000 C 
ATOM     21  C   UNL     1       6.416   3.672  12.581  0.00  0.00    +0.000 C 
ENDBRANCH  19  21
ENDBRANCH  17  19
ENDBRANCH  12  17
ENDBRANCH   1  15
BRANCH   6  22
ATOM     22  O   UNL     1      -0.560  11.065  20.680  0.00  0.00    +0.000 OA
ATOM     23  H   UNL     1      -0.464  11.990  20.394  0.00  0.00    +0.000 HD
ENDBRANCH   6  22
BRANCH   7  24
ATOM     24  C   UNL     1       0.313   8.681  21.876  0.00  0.00    +0.000 C 
ATOM     25  O   UNL     1      -0.860   8.510  22.189  0.00  0.00    +0.000 OA
ENDBRANCH   7  24
TORSDOF 6
ENDMDL
MODEL 2
REMARK VINA RESULT:      -7.9      0.992      1.023
REMARK  Name = 
REMARK  7 active torsions:
REMARK  status: ('A' for Active; 'I' for Inactive)
REMARK    1  A    between atoms: C_1  and  C_2
REMARK    2  A    between atoms: C_2  and  O_3
REMARK    3  A    between atoms: O_3  and  C_4
REMARK    4  A    between atoms: C_4  and  C_6
REMARK    5  A    between atoms: C_9  and  C_10
REMARK    6  A    between atoms: C_15  and  O_16
REMARK    7  A    between atoms: C_17  and  C_18
REMARK                            x       y       z     vdW  Elec       q    Type
REMARK                         _______ _______ _______ _____ _____    ______ ____
ROOT
ATOM      1  C   UNL     1       2.714   6.857  18.722  0.00  0.00    +0.000 A 
ATOM      2  C   UNL     1       2.325   8.012  18.150  0.00  0.00    +0.000 A 
ATOM      3  C   UNL     1       1.510   8.978  18.872  0.00  0.00    +0.000 A 
ATOM      4  C   UNL     1       1.088  10.171  18.283  0.00  0.00    +0.000 A 
ATOM      5  C   UNL     1       0.275  11.062  18.993  0.00  0.00    +0.000 A 
ATOM      6  C   UNL     1      -0.119  10.754  20.297  0.00  0.00    +0.000 A 
ATOM      7  C   UNL     1       0.301   9.566  20.907  0.00  0.00    +0.000 A 
ATOM      8  C   UNL     1       1.118   8.693  20.181  0.00  0.00    +0.000 A 
ATOM      9  O   UNL     1       1.552   7.493  20.775  0.00  0.00    +0.000 OA
ATOM     10  C   UNL     1       2.307   6.533  20.116  0.00  0.00    +0.000 A 
ATOM     11  O   UNL     1       2.592   5.479  20.673  0.00  0.00    +0.000 OA
ENDROOT
BRANCH   1  15
ATOM     12  C   UNL     1       5.182   4.740  16.648  0.00  0.00    +0.000 A 
ATOM     13  C   UNL     1       4.001   4.057  16.835  0.00  0.00    +0.000 A 
ATOM     14  N   UNL     1       3.018   4.734  17.534  0.00  0.00    +0.000 NA
ATOM     15  C   UNL     1       3.459   5.920  17.935  0.00  0.00    +0.000 A 
ATOM     16  S   UNL     1       5.046   6.293  17.340  0.00  0.00    +0.000 S 
BRANCH  12  17
ATOM     17  C   UNL     1       6.377   4.362  15.941  0.00  0.00    +0.000 C 
ATOM     18  O   UNL     1       7.518   4.738  16.184  0.00  0.00    +0.000 OA
BRANCH  17  19
ATOM     19  O   UNL     1       6.037   3.587  14.869  0.00  0.00    +0.000 OA
BRANCH  19  21
ATOM     20  C   UNL     1       5.676   3.356  12.523  0.00  0.00    +0.000 C 
ATOM     21  C   UNL     1       6.463   4.090  13.596  0.00  0.00    +0.000 C 
ENDBRANCH  19  21
ENDBRANCH  17  19
ENDBRANCH  12  17
ENDBRANCH   1  15
BRANCH   6  22
ATOM     22  O   UNL     1      -0.926  11.622  20.979  0.00  0.00    +0.000 OA
ATOM     23  H   UNL     1      -1.853  11.334  20.909  0.00  0.00    +0.000 HD
ENDBRANCH   6  22
BRANCH   7  24
ATOM     24  C   UNL     1      -0.144   9.268  22.290  0.00  0.00    +0.000 C 
ATOM     25  O   UNL     1       0.191   9.922  23.271  0.00  0.00    +0.000 OA
ENDBRANCH   7  24
TORSDOF 6
ENDMDL
MODEL 3
REMARK VINA RESULT:      -7.5      1.508      2.262
REMARK  Name = 
REMARK  7 active torsions:
REMARK  status: ('A' for Active; 'I' for Inactive)
REMARK    1  A    between atoms: C_1  and  C_2
REMARK    2  A    between atoms: C_2  and  O_3
REMARK    3  A    between atoms: O_3  and  C_4
REMARK    4  A    between atoms: C_4  and  C_6
REMARK    5  A    between atoms: C_9  and  C_10
REMARK    6  A    between atoms: C_15  and  O_16
REMARK    7  A    between atoms: C_17  and  C_18
REMARK                            x       y       z     vdW  Elec       q    Type
REMARK                         _______ _______ _______ _____ _____    ______ ____
ROOT
ATOM      1  C   UNL     1       2.603   7.053  18.817  0.00  0.00    +0.000 A 
ATOM      2  C   UNL     1       2.232   8.235  18.289  0.00  0.00    +0.000 A 
ATOM      3  C   UNL     1       1.414   9.176  19.040  0.00  0.00    +0.000 A 
ATOM      4  C   UNL     1       1.009  10.396  18.495  0.00  0.00    +0.000 A 
ATOM      5  C   UNL     1       0.193  11.263  19.229  0.00  0.00    +0.000 A 
ATOM      6  C   UNL     1      -0.222  10.905  20.514  0.00  0.00    +0.000 A 
ATOM      7  C   UNL     1       0.180   9.689  21.080  0.00  0.00    +0.000 A 
ATOM      8  C   UNL     1       1.000   8.841  20.329  0.00  0.00    +0.000 A 
ATOM      9  O   UNL     1       1.416   7.613  20.879  0.00  0.00    +0.000 OA
ATOM     10  C   UNL     1       2.173   6.675  20.191  0.00  0.00    +0.000 A 
ATOM     11  O   UNL     1       2.442   5.596  20.708  0.00  0.00    +0.000 OA
ENDROOT
BRANCH   1  15
ATOM     12  C   UNL     1       5.031   5.062  16.579  0.00  0.00    +0.000 A 
ATOM     13  C   UNL     1       3.975   4.269  16.968  0.00  0.00    +0.000 A 
ATOM     14  N   UNL     1       3.012   4.887  17.745  0.00  0.00    +0.000 NA
ATOM     15  C   UNL     1       3.352   6.144  18.003  0.00  0.00    +0.000 A 
ATOM     16  S   UNL     1       4.795   6.642  17.177  0.00  0.00    +0.000 S 
BRANCH  12  17
ATOM     17  C   UNL     1       6.166   4.763  15.746  0.00  0.00    +0.000 C 
ATOM     18  O   UNL     1       6.153   4.127  14.698  0.00  0.00    +0.000 OA
BRANCH  17  19
ATOM     19  O   UNL     1       7.302   5.210  16.358  0.00  0.00    +0.000 OA
BRANCH  19  21
ATOM     20  C   UNL     1       7.839   5.577  18.653  0.00  0.00    +0.000 C 
ATOM     21  C   UNL     1       7.647   4.527  17.571  0.00  0.00    +0.000 C 
ENDBRANCH  19  21
ENDBRANCH  17  19
ENDBRANCH  12  17
ENDBRANCH   1  15
BRANCH   6  22
ATOM     22  O   UNL     1      -1.033  11.750  21.220  0.00  0.00    +0.000 OA
ATOM     23  H   UNL     1      -1.802  11.997  20.679  0.00  0.00    +0.000 HD
ENDBRANCH   6  22
BRANCH   7  24
ATOM     24  C   UNL     1      -0.288   9.337  22.443  0.00  0.00    +0.000 C 
ATOM     25  O   UNL     1       0.110   9.886  23.463  0.00  0.00    +0.000 OA
ENDBRANCH   7  24
TORSDOF 6
ENDMDL
MODEL 4
REMARK VINA RESULT:      -7.1      3.239      4.402
REMARK  Name = 
REMARK  7 active torsions:
REMARK  status: ('A' for Active; 'I' for Inactive)
REMARK    1  A    between atoms: C_1  and  C_2
REMARK    2  A    between atoms: C_2  and  O_3
REMARK    3  A    between atoms: O_3  and  C_4
REMARK    4  A    between atoms: C_4  and  C_6
REMARK    5  A    between atoms: C_9  and  C_10
REMARK    6  A    between atoms: C_15  and  O_16
REMARK    7  A    between atoms: C_17  and  C_18
REMARK                            x       y       z     vdW  Elec       q    Type
REMARK                         _______ _______ _______ _____ _____    ______ ____
ROOT
ATOM      1  C   UNL     1       1.745   8.225  19.498  0.00  0.00    +0.000 A 
ATOM      2  C   UNL     1       1.294   8.187  20.766  0.00  0.00    +0.000 A 
ATOM      3  C   UNL     1       0.490   9.268  21.317  0.00  0.00    +0.000 A 
ATOM      4  C   UNL     1       0.031   9.246  22.635  0.00  0.00    +0.000 A 
ATOM      5  C   UNL     1      -0.709  10.318  23.145  0.00  0.00    +0.000 A 
ATOM      6  C   UNL     1      -0.989  11.418  22.331  0.00  0.00    +0.000 A 
ATOM      7  C   UNL     1      -0.545  11.455  21.004  0.00  0.00    +0.000 A 
ATOM      8  C   UNL     1       0.189  10.369  20.514  0.00  0.00    +0.000 A 
ATOM      9  O   UNL     1       0.647  10.385  19.183  0.00  0.00    +0.000 OA
ATOM     10  C   UNL     1       1.436   9.390  18.625  0.00  0.00    +0.000 A 
ATOM     11  O   UNL     1       1.857   9.502  17.478  0.00  0.00    +0.000 OA
ENDROOT
BRANCH   1  15
ATOM     12  C   UNL     1       3.740   5.023  18.699  0.00  0.00    +0.000 A 
ATOM     13  C   UNL     1       4.047   6.019  17.799  0.00  0.00    +0.000 A 
ATOM     14  N   UNL     1       3.421   7.234  18.009  0.00  0.00    +0.000 NA
ATOM     15  C   UNL     1       2.586   7.162  19.038  0.00  0.00    +0.000 A 
ATOM     16  S   UNL     1       2.657   5.638  19.865  0.00  0.00    +0.000 S 
BRANCH  12  17
ATOM     17  C   UNL     1       4.233   3.675  18.805  0.00  0.00    +0.000 C 
ATOM     18  O   UNL     1       5.256   3.316  19.376  0.00  0.00    +0.000 OA
BRANCH  17  19
ATOM     19  O   UNL     1       3.435   2.847  18.069  0.00  0.00    +0.000 OA
BRANCH  19  21
ATOM     20  C   UNL     1       1.203   2.290  18.700  0.00  0.00    +0.000 C 
ATOM     21  C   UNL     1       2.667   1.906  18.832  0.00  0.00    +0.000 C 
ENDBRANCH  19  21
ENDBRANCH  17  19
ENDBRANCH  12  17
ENDBRANCH   1  15
BRANCH   6  22
ATOM     22  O   UNL     1      -1.700  12.469  22.841  0.00  0.00    +0.000 OA
ATOM     23  H   UNL     1      -1.689  13.211  22.211  0.00  0.00    +0.000 HD
ENDBRANCH   6  22
BRANCH   7  24
ATOM     24  C   UNL     1      -0.852  12.643  20.171  0.00  0.00    +0.000 C 
ATOM     25  O   UNL     1      -1.989  13.008  19.898  0.00  0.00    +0.000 OA
ENDBRANCH   7  24
TORSDOF 6
ENDMDL
MODEL 5
REMARK VINA RESULT:      -6.9      3.255      9.120
REMARK  Name = 
REMARK  7 active torsions:
REMARK  status: ('A' for Active; 'I' for Inactive)
REMARK    1  A    between atoms: C_1  and  C_2
REMARK    2  A    between atoms: C_2  and  O_3
REMARK    3  A    between atoms: O_3  and  C_4
REMARK    4  A    between atoms: C_4  and  C_6
REMARK    5  A    between atoms: C_9  and  C_10
REMARK    6  A    between atoms: C_15  and  O_16
REMARK    7  A    between atoms: C_17  and  C_18
REMARK                            x       y       z     vdW  Elec       q    Type
REMARK                         _______ _______ _______ _____ _____    ______ ____
ROOT
ATOM      1  C   UNL     1       1.824   8.466  19.319  0.00  0.00    +0.000 A 
ATOM      2  C   UNL     1       2.109   7.290  19.910  0.00  0.00    +0.000 A 
ATOM      3  C   UNL     1       3.013   6.331  19.291  0.00  0.00    +0.000 A 
ATOM      4  C   UNL     1       3.302   5.102  19.886  0.00  0.00    +0.000 A 
ATOM      5  C   UNL     1       4.147   4.188  19.249  0.00  0.00    +0.000 A 
ATOM      6  C   UNL     1       4.703   4.506  18.008  0.00  0.00    +0.000 A 
ATOM      7  C   UNL     1       4.432   5.737  17.399  0.00  0.00    +0.000 A 
ATOM      8  C   UNL     1       3.589   6.637  18.058  0.00  0.00    +0.000 A 
ATOM      9  O   UNL     1       3.302   7.881  17.463  0.00  0.00    +0.000 OA
ATOM     10  C   UNL     1       2.427   8.812  18.003  0.00  0.00    +0.000 A 
ATOM     11  O   UNL     1       2.171   9.847  17.397  0.00  0.00    +0.000 OA
ENDROOT
BRANCH   1  15
ATOM     12  C   UNL     1      -0.409  10.704  21.527  0.00  0.00    +0.000 A 
ATOM     13  C   UNL     1      -0.809  10.773  20.211  0.00  0.00    +0.000 A 
ATOM     14  N   UNL     1      -0.105   9.978  19.326  0.00  0.00    +0.000 NA
ATOM     15  C   UNL     1       0.875   9.335  19.947  0.00  0.00    +0.000 A 
ATOM     16  S   UNL     1       0.868   9.582  21.665  0.00  0.00    +0.000 S 
BRANCH  12  17
ATOM     17  C   UNL     1      -0.939  11.350  22.699  0.00  0.00    +0.000 C 
ATOM     18  O   UNL     1      -1.862  10.949  23.398  0.00  0.00    +0.000 OA
BRANCH  17  19
ATOM     19  O   UNL     1      -0.320  12.556  22.864  0.00  0.00    +0.000 OA
BRANCH  19  21
ATOM     20  C   UNL     1      -1.273  14.449  23.958  0.00  0.00    +0.000 C 
ATOM     21  C   UNL     1      -1.152  13.702  22.640  0.00  0.00    +0.000 C 
ENDBRANCH  19  21
ENDBRANCH  17  19
ENDBRANCH  12  17
ENDBRANCH   1  15
BRANCH   6  22
ATOM     22  O   UNL     1       5.517   3.601  17.383  0.00  0.00    +0.000 OA
ATOM     23  H   UNL     1       4.978   2.957  16.892  0.00  0.00    +0.000 HD
ENDBRANCH   6  22
BRANCH   7  24
ATOM     24  C   UNL     1       5.033   6.037  16.076  0.00  0.00    +0.000 C 
ATOM     25  O   UNL     1       6.240   6.106  15.875  0.00  0.00    +0.000 OA
ENDBRANCH   7  24
TORSDOF 6
ENDMDL
MODEL 6
REMARK VINA RESULT:      -6.9      3.442      9.226
REMARK  Name = 
REMARK  7 active torsions:
REMARK  status: ('A' for Active; 'I' for Inactive)
REMARK    1  A    between atoms: C_1  and  C_2
REMARK    2  A    between atoms: C_2  and  O_3
REMARK    3  A    between atoms: O_3  and  C_4
REMARK    4  A    between atoms: C_4  and  C_6
REMARK    5  A    between atoms: C_9  and  C_10
REMARK    6  A    between atoms: C_15  and  O_16
REMARK    7  A    between atoms: C_17  and  C_18
REMARK                            x       y       z     vdW  Elec       q    Type
REMARK                         _______ _______ _______ _____ _____    ______ ____
ROOT
ATOM      1  C   UNL     1       1.419   8.300  19.892  0.00  0.00    +0.000 A 
ATOM      2  C   UNL     1       1.437   7.157  20.604  0.00  0.00    +0.000 A 
ATOM      3  C   UNL     1       2.200   6.000  20.159  0.00  0.00    +0.000 A 
ATOM      4  C   UNL     1       2.211   4.805  20.881  0.00  0.00    +0.000 A 
ATOM      5  C   UNL     1       2.926   3.700  20.408  0.00  0.00    +0.000 A 
ATOM      6  C   UNL     1       3.631   3.791  19.205  0.00  0.00    +0.000 A 
ATOM      7  C   UNL     1       3.638   4.984  18.472  0.00  0.00    +0.000 A 
ATOM      8  C   UNL     1       2.921   6.078  18.967  0.00  0.00    +0.000 A 
ATOM      9  O   UNL     1       2.913   7.287  18.246  0.00  0.00    +0.000 OA
ATOM     10  C   UNL     1       2.181   8.405  18.618  0.00  0.00    +0.000 A 
ATOM     11  O   UNL     1       2.167   9.402  17.905  0.00  0.00    +0.000 OA
ENDROOT
BRANCH   1  15
ATOM     12  C   UNL     1      -0.517  11.124  21.666  0.00  0.00    +0.000 A 
ATOM     13  C   UNL     1      -0.851  11.076  20.331  0.00  0.00    +0.000 A 
ATOM     14  N   UNL     1      -0.248  10.073  19.596  0.00  0.00    +0.000 NA
ATOM     15  C   UNL     1       0.596   9.379  20.349  0.00  0.00    +0.000 A 
ATOM     16  S   UNL     1       0.562   9.852  22.019  0.00  0.00    +0.000 S 
BRANCH  12  17
ATOM     17  C   UNL     1      -0.983  11.994  22.714  0.00  0.00    +0.000 C 
ATOM     18  O   UNL     1      -0.389  12.962  23.176  0.00  0.00    +0.000 OA
BRANCH  17  19
ATOM     19  O   UNL     1      -2.162  11.512  23.205  0.00  0.00    +0.000 OA
BRANCH  19  21
ATOM     20  C   UNL     1      -3.979  12.500  24.394  0.00  0.00    +0.000 C 
ATOM     21  C   UNL     1      -3.289  12.384  23.045  0.00  0.00    +0.000 C 
ENDBRANCH  19  21
ENDBRANCH  17  19
ENDBRANCH  12  17
ENDBRANCH   1  15
BRANCH   6  22
ATOM     22  O   UNL     1       4.315   2.702  18.741  0.00  0.00    +0.000 OA
ATOM     23  H   UNL     1       4.859   2.326  19.455  0.00  0.00    +0.000 HD
ENDBRANCH   6  22
BRANCH   7  24
ATOM     24  C   UNL     1       4.390   5.042  17.195  0.00  0.00    +0.000 C 
ATOM     25  O   UNL     1       4.424   4.126  16.381  0.00  0.00    +0.000 OA
ENDBRANCH   7  24
TORSDOF 6
ENDMDL
MODEL 7
REMARK VINA RESULT:      -6.9      3.004      8.992
REMARK  Name = 
REMARK  7 active torsions:
REMARK  status: ('A' for Active; 'I' for Inactive)
REMARK    1  A    between atoms: C_1  and  C_2
REMARK    2  A    between atoms: C_2  and  O_3
REMARK    3  A    between atoms: O_3  and  C_4
REMARK    4  A    between atoms: C_4  and  C_6
REMARK    5  A    between atoms: C_9  and  C_10
REMARK    6  A    between atoms: C_15  and  O_16
REMARK    7  A    between atoms: C_17  and  C_18
REMARK                            x       y       z     vdW  Elec       q    Type
REMARK                         _______ _______ _______ _____ _____    ______ ____
ROOT
ATOM      1  C   UNL     1       2.102   8.099  19.109  0.00  0.00    +0.000 A 
ATOM      2  C   UNL     1       2.412   6.889  19.613  0.00  0.00    +0.000 A 
ATOM      3  C   UNL     1       3.308   5.983  18.909  0.00  0.00    +0.000 A 
ATOM      4  C   UNL     1       3.623   4.721  19.414  0.00  0.00    +0.000 A 
ATOM      5  C   UNL     1       4.459   3.859  18.696  0.00  0.00    +0.000 A 
ATOM      6  C   UNL     1       4.979   4.264  17.465  0.00  0.00    +0.000 A 
ATOM      7  C   UNL     1       4.682   5.530  16.946  0.00  0.00    +0.000 A 
ATOM      8  C   UNL     1       3.848   6.376  17.684  0.00  0.00    +0.000 A 
ATOM      9  O   UNL     1       3.535   7.653  17.180  0.00  0.00    +0.000 OA
ATOM     10  C   UNL     1       2.666   8.538  17.804  0.00  0.00    +0.000 A 
ATOM     11  O   UNL     1       2.385   9.607  17.274  0.00  0.00    +0.000 OA
ENDROOT
BRANCH   1  15
ATOM     12  C   UNL     1      -0.114  10.133  21.522  0.00  0.00    +0.000 A 
ATOM     13  C   UNL     1      -0.498  10.350  20.217  0.00  0.00    +0.000 A 
ATOM     14  N   UNL     1       0.201   9.639  19.259  0.00  0.00    +0.000 NA
ATOM     15  C   UNL     1       1.162   8.915  19.817  0.00  0.00    +0.000 A 
ATOM     16  S   UNL     1       1.140   8.977  21.551  0.00  0.00    +0.000 S 
BRANCH  12  17
ATOM     17  C   UNL     1      -0.645  10.661  22.751  0.00  0.00    +0.000 C 
ATOM     18  O   UNL     1      -0.586  10.135  23.856  0.00  0.00    +0.000 OA
BRANCH  17  19
ATOM     19  O   UNL     1      -1.333  11.811  22.485  0.00  0.00    +0.000 OA
BRANCH  19  21
ATOM     20  C   UNL     1      -3.494  12.815  22.384  0.00  0.00    +0.000 C 
ATOM     21  C   UNL     1      -2.547  11.980  23.229  0.00  0.00    +0.000 C 
ENDBRANCH  19  21
ENDBRANCH  17  19
ENDBRANCH  12  17
ENDBRANCH   1  15
BRANCH   6  22
ATOM     22  O   UNL     1       5.784   3.411  16.761  0.00  0.00    +0.000 OA
ATOM     23  H   UNL     1       6.713   3.686  16.848  0.00  0.00    +0.000 HD
ENDBRANCH   6  22
BRANCH   7  24
ATOM     24  C   UNL     1       5.245   5.922  15.631  0.00  0.00    +0.000 C 
ATOM     25  O   UNL     1       6.431   5.820  15.339  0.00  0.00    +0.000 OA
ENDBRANCH   7  24
TORSDOF 6
ENDMDL
MODEL 8
REMARK VINA RESULT:      -6.9      2.281      3.597
REMARK  Name = 
REMARK  7 active torsions:
REMARK  status: ('A' for Active; 'I' for Inactive)
REMARK    1  A    between atoms: C_1  and  C_2
REMARK    2  A    between atoms: C_2  and  O_3
REMARK    3  A    between atoms: O_3  and  C_4
REMARK    4  A    between atoms: C_4  and  C_6
REMARK    5  A    between atoms: C_9  and  C_10
REMARK    6  A    between atoms: C_15  and  O_16
REMARK    7  A    between atoms: C_17  and  C_18
REMARK                            x       y       z     vdW  Elec       q    Type
REMARK                         _______ _______ _______ _____ _____    ______ ____
ROOT
ATOM      1  C   UNL     1       2.077   7.773  19.020  0.00  0.00    +0.000 A 
ATOM      2  C   UNL     1       1.706   7.619  20.305  0.00  0.00    +0.000 A 
ATOM      3  C   UNL     1       1.019   8.679  21.027  0.00  0.00    +0.000 A 
ATOM      4  C   UNL     1       0.646   8.536  22.365  0.00  0.00    +0.000 A 
ATOM      5  C   UNL     1       0.018   9.588  23.041  0.00  0.00    +0.000 A 
ATOM      6  C   UNL     1      -0.234  10.789  22.375  0.00  0.00    +0.000 A 
ATOM      7  C   UNL     1       0.125  10.949  21.031  0.00  0.00    +0.000 A 
ATOM      8  C   UNL     1       0.746   9.882  20.374  0.00  0.00    +0.000 A 
ATOM      9  O   UNL     1       1.117  10.020  19.023  0.00  0.00    +0.000 OA
ATOM     10  C   UNL     1       1.796   9.047  18.304  0.00  0.00    +0.000 A 
ATOM     11  O   UNL     1       2.148   9.262  17.149  0.00  0.00    +0.000 OA
ENDROOT
BRANCH   1  15
ATOM     12  C   UNL     1       4.469   5.365  17.190  0.00  0.00    +0.000 A 
ATOM     13  C   UNL     1       3.397   4.675  17.711  0.00  0.00    +0.000 A 
ATOM     14  N   UNL     1       2.445   5.442  18.358  0.00  0.00    +0.000 NA
ATOM     15  C   UNL     1       2.809   6.718  18.387  0.00  0.00    +0.000 A 
ATOM     16  S   UNL     1       4.262   7.031  17.492  0.00  0.00    +0.000 S 
BRANCH  12  17
ATOM     17  C   UNL     1       5.599   4.898  16.430  0.00  0.00    +0.000 C 
ATOM     18  O   UNL     1       5.592   4.014  15.582  0.00  0.00    +0.000 OA
BRANCH  17  19
ATOM     19  O   UNL     1       6.727   5.525  16.875  0.00  0.00    +0.000 OA
BRANCH  19  21
ATOM     20  C   UNL     1       7.740   5.869  19.007  0.00  0.00    +0.000 C 
ATOM     21  C   UNL     1       7.424   4.847  17.929  0.00  0.00    +0.000 C 
ENDBRANCH  19  21
ENDBRANCH  17  19
ENDBRANCH  12  17
ENDBRANCH   1  15
BRANCH   6  22
ATOM     22  O   UNL     1      -0.835  11.818  23.046  0.00  0.00    +0.000 OA
ATOM     23  H   UNL     1      -1.394  12.329  22.435  0.00  0.00    +0.000 HD
ENDBRANCH   6  22
BRANCH   7  24
ATOM     24  C   UNL     1      -0.150  12.241  20.358  0.00  0.00    +0.000 C 
ATOM     25  O   UNL     1       0.179  13.331  20.812  0.00  0.00    +0.000 OA
ENDBRANCH   7  24
TORSDOF 6
ENDMDL
MODEL 9
REMARK VINA RESULT:      -6.8      1.931      2.997
REMARK  Name = 
REMARK  7 active torsions:
REMARK  status: ('A' for Active; 'I' for Inactive)
REMARK    1  A    between atoms: C_1  and  C_2
REMARK    2  A    between atoms: C_2  and  O_3
REMARK    3  A    between atoms: O_3  and  C_4
REMARK    4  A    between atoms: C_4  and  C_6
REMARK    5  A    between atoms: C_9  and  C_10
REMARK    6  A    between atoms: C_15  and  O_16
REMARK    7  A    between atoms: C_17  and  C_18
REMARK                            x       y       z     vdW  Elec       q    Type
REMARK                         _______ _______ _______ _____ _____    ______ ____
ROOT
ATOM      1  C   UNL     1       2.151   7.614  19.032  0.00  0.00    +0.000 A 
ATOM      2  C   UNL     1       1.777   7.520  20.322  0.00  0.00    +0.000 A 
ATOM      3  C   UNL     1       1.116   8.624  21.001  0.00  0.00    +0.000 A 
ATOM      4  C   UNL     1       0.740   8.543  22.343  0.00  0.00    +0.000 A 
ATOM      5  C   UNL     1       0.139   9.636  22.977  0.00  0.00    +0.000 A 
ATOM      6  C   UNL     1      -0.083  10.816  22.264  0.00  0.00    +0.000 A 
ATOM      7  C   UNL     1       0.280  10.914  20.915  0.00  0.00    +0.000 A 
ATOM      8  C   UNL     1       0.874   9.807  20.301  0.00  0.00    +0.000 A 
ATOM      9  O   UNL     1       1.248   9.883  18.946  0.00  0.00    +0.000 OA
ATOM     10  C   UNL     1       1.903   8.865  18.266  0.00  0.00    +0.000 A 
ATOM     11  O   UNL     1       2.261   9.026  17.104  0.00  0.00    +0.000 OA
ENDROOT
BRANCH   1  15
ATOM     12  C   UNL     1       4.556   5.003  17.526  0.00  0.00    +0.000 A 
ATOM     13  C   UNL     1       3.274   4.501  17.581  0.00  0.00    +0.000 A 
ATOM     14  N   UNL     1       2.311   5.366  18.068  0.00  0.00    +0.000 NA
ATOM     15  C   UNL     1       2.856   6.516  18.442  0.00  0.00    +0.000 A 
ATOM     16  S   UNL     1       4.548   6.619  18.069  0.00  0.00    +0.000 S 
BRANCH  12  17
ATOM     17  C   UNL     1       5.772   4.404  17.040  0.00  0.00    +0.000 C 
ATOM     18  O   UNL     1       6.890   4.530  17.526  0.00  0.00    +0.000 OA
BRANCH  17  19
ATOM     19  O   UNL     1       5.512   3.746  15.872  0.00  0.00    +0.000 OA
BRANCH  19  21
ATOM     20  C   UNL     1       5.639   3.965  13.501  0.00  0.00    +0.000 C 
ATOM     21  C   UNL     1       6.423   4.025  14.801  0.00  0.00    +0.000 C 
ENDBRANCH  19  21
ENDBRANCH  17  19
ENDBRANCH  12  17
ENDBRANCH   1  15
BRANCH   6  22
ATOM     22  O   UNL     1      -0.657  11.886  22.894  0.00  0.00    +0.000 OA
ATOM     23  H   UNL     1      -1.602  11.711  23.046  0.00  0.00    +0.000 HD
ENDBRANCH   6  22
BRANCH   7  24
ATOM     24  C   UNL     1       0.038  12.186  20.192  0.00  0.00    +0.000 C 
ATOM     25  O   UNL     1       0.460  13.274  20.564  0.00  0.00    +0.000 OA
ENDBRANCH   7  24
TORSDOF 6
ENDMDL
