MODEL 1
REMARK VINA RESULT:      -8.9      0.000      0.000
REMARK  Name = 
REMARK  6 active torsions:
REMARK  status: ('A' for Active; 'I' for Inactive)
REMARK    1  A    between atoms: C_1  and  C_2
REMARK    2  A    between atoms: C_3  and  C_4
REMARK    3  A    between atoms: N_6  and  N_7
REMARK    4  A    between atoms: N_13  and  C_14
REMARK    5  A    between atoms: C_20  and  C_21
REMARK    6  A    between atoms: C_24  and  C_25
REMARK                            x       y       z     vdW  Elec       q    Type
REMARK                         _______ _______ _______ _____ _____    ______ ____
ROOT
ATOM      1  C   UNL     1       4.655   7.463  16.249  0.00  0.00    +0.000 C 
ATOM      2  C   UNL     1       4.301   6.276  17.075  0.00  0.00    +0.000 A 
ATOM      3  C   UNL     1       4.910   4.978  17.053  0.00  0.00    +0.000 A 
ATOM      4  N   UNL     1       4.401   4.191  18.020  0.00  0.00    +0.000 NA
ATOM      5  N   UNL     1       3.370   4.903  18.556  0.00  0.00    +0.000 N 
ATOM      6  C   UNL     1       3.351   6.227  18.094  0.00  0.00    +0.000 A 
ENDROOT
BRANCH   5   7
ATOM      7  C   UNL     1       2.513   4.310  19.534  0.00  0.00    +0.000 A 
ATOM      8  C   UNL     1       1.297   3.743  19.135  0.00  0.00    +0.000 A 
ATOM      9  C   UNL     1       0.579   2.945  20.034  0.00  0.00    +0.000 A 
ATOM     10  C   UNL     1       1.054   2.734  21.330  0.00  0.00    +0.000 A 
ATOM     11  C   UNL     1       2.220   3.364  21.753  0.00  0.00    +0.000 A 
ATOM     12  C   UNL     1       2.934   4.170  20.867  0.00  0.00    +0.000 A 
ENDBRANCH   5   7
BRANCH   6  13
ATOM     13  C   UNL     1       2.554   7.319  18.697  0.00  0.00    +0.000 A 
ATOM     14  C   UNL     1       2.259   7.303  20.067  0.00  0.00    +0.000 A 
ATOM     15  C   UNL     1       1.389   8.236  20.629  0.00  0.00    +0.000 A 
ATOM     16  C   UNL     1       0.865   9.297  19.881  0.00  0.00    +0.000 A 
ATOM     17  C   UNL     1       1.213   9.355  18.524  0.00  0.00    +0.000 A 
ATOM     18  C   UNL     1       2.033   8.373  17.936  0.00  0.00    +0.000 A 
BRANCH  16  19
ATOM     19  C   UNL     1      -0.028  10.305  20.562  0.00  0.00    +0.000 C 
ATOM     20  C   UNL     1       0.579  11.674  20.815  0.00  0.00    +0.000 C 
ATOM     21  C   UNL     1      -0.569  11.528  19.872  0.00  0.00    +0.000 C 
ENDBRANCH  16  19
ENDBRANCH   6  13
BRANCH   3  22
ATOM     22  C   UNL     1       5.993   4.497  16.140  0.00  0.00    +0.000 C 
ATOM     23  O   UNL     1       7.153   4.352  16.511  0.00  0.00    +0.000 OA
ATOM     24  N   UNL     1       5.542   4.249  14.842  0.00  0.00    +0.000 N 
ATOM     25  H   UNL     1       4.554   4.425  14.671  0.00  0.00    +0.000 HD
BRANCH  24  26
ATOM     26  N   UNL     1       6.362   3.865  13.758  0.00  0.00    +0.000 NA
ATOM     27  C   UNL     1       5.661   3.281  12.613  0.00  0.00    +0.000 C 
ATOM     28  C   UNL     1       6.799   3.153  11.614  0.00  0.00    +0.000 C 
ATOM     29  C   UNL     1       7.591   4.438  11.812  0.00  0.00    +0.000 C 
ATOM     30  C   UNL     1       7.225   4.923  13.218  0.00  0.00    +0.000 C 
ENDBRANCH  24  26
ENDBRANCH   3  22
TORSDOF 5
ENDMDL
MODEL 2
REMARK VINA RESULT:      -8.7      0.617      1.464
REMARK  Name = 
REMARK  6 active torsions:
REMARK  status: ('A' for Active; 'I' for Inactive)
REMARK    1  A    between atoms: C_1  and  C_2
REMARK    2  A    between atoms: C_3  and  C_4
REMARK    3  A    between atoms: N_6  and  N_7
REMARK    4  A    between atoms: N_13  and  C_14
REMARK    5  A    between atoms: C_20  and  C_21
REMARK    6  A    between atoms: C_24  and  C_25
REMARK                            x       y       z     vdW  Elec       q    Type
REMARK                         _______ _______ _______ _____ _____    ______ ____
ROOT
ATOM      1  C   UNL     1       4.834   7.225  16.095  0.00  0.00    +0.000 C 
ATOM      2  C   UNL     1       4.517   5.983  16.853  0.00  0.00    +0.000 A 
ATOM      3  C   UNL     1       5.160   4.705  16.752  0.00  0.00    +0.000 A 
ATOM      4  N   UNL     1       4.680   3.851  17.675  0.00  0.00    +0.000 NA
ATOM      5  N   UNL     1       3.635   4.503  18.258  0.00  0.00    +0.000 N 
ATOM      6  C   UNL     1       3.578   5.851  17.874  0.00  0.00    +0.000 A 
ENDROOT
BRANCH   5   7
ATOM      7  C   UNL     1       2.802   3.832  19.206  0.00  0.00    +0.000 A 
ATOM      8  C   UNL     1       3.307   3.519  20.472  0.00  0.00    +0.000 A 
ATOM      9  C   UNL     1       2.433   3.098  21.481  0.00  0.00    +0.000 A 
ATOM     10  C   UNL     1       1.067   2.961  21.223  0.00  0.00    +0.000 A 
ATOM     11  C   UNL     1       0.576   3.192  19.942  0.00  0.00    +0.000 A 
ATOM     12  C   UNL     1       1.443   3.600  18.930  0.00  0.00    +0.000 A 
ENDBRANCH   5   7
BRANCH   6  13
ATOM     13  C   UNL     1       2.758   6.885  18.545  0.00  0.00    +0.000 A 
ATOM     14  C   UNL     1       2.318   8.008  17.832  0.00  0.00    +0.000 A 
ATOM     15  C   UNL     1       1.676   9.065  18.475  0.00  0.00    +0.000 A 
ATOM     16  C   UNL     1       1.336   9.003  19.832  0.00  0.00    +0.000 A 
ATOM     17  C   UNL     1       1.716   7.851  20.533  0.00  0.00    +0.000 A 
ATOM     18  C   UNL     1       2.430   6.813  19.905  0.00  0.00    +0.000 A 
BRANCH  16  19
ATOM     19  C   UNL     1       0.592  10.159  20.455  0.00  0.00    +0.000 C 
ATOM     20  C   UNL     1      -0.899  10.227  20.171  0.00  0.00    +0.000 C 
ATOM     21  C   UNL     1      -0.413   9.992  21.563  0.00  0.00    +0.000 C 
ENDBRANCH  16  19
ENDBRANCH   6  13
BRANCH   3  22
ATOM     22  C   UNL     1       6.247   4.307  15.804  0.00  0.00    +0.000 C 
ATOM     23  O   UNL     1       7.422   4.224  16.145  0.00  0.00    +0.000 OA
ATOM     24  N   UNL     1       5.779   4.056  14.512  0.00  0.00    +0.000 N 
ATOM     25  H   UNL     1       4.779   4.175  14.367  0.00  0.00    +0.000 HD
BRANCH  24  26
ATOM     26  N   UNL     1       6.594   3.741  13.403  0.00  0.00    +0.000 NA
ATOM     27  C   UNL     1       5.939   2.984  12.334  0.00  0.00    +0.000 C 
ATOM     28  C   UNL     1       7.030   2.977  11.276  0.00  0.00    +0.000 C 
ATOM     29  C   UNL     1       7.612   4.382  11.358  0.00  0.00    +0.000 C 
ATOM     30  C   UNL     1       7.245   4.887  12.756  0.00  0.00    +0.000 C 
ENDBRANCH  24  26
ENDBRANCH   3  22
TORSDOF 5
ENDMDL
MODEL 3
REMARK VINA RESULT:      -8.0      3.036      8.280
REMARK  Name = 
REMARK  6 active torsions:
REMARK  status: ('A' for Active; 'I' for Inactive)
REMARK    1  A    between atoms: C_1  and  C_2
REMARK    2  A    between atoms: C_3  and  C_4
REMARK    3  A    between atoms: N_6  and  N_7
REMARK    4  A    between atoms: N_13  and  C_14
REMARK    5  A    between atoms: C_20  and  C_21
REMARK    6  A    between atoms: C_24  and  C_25
REMARK                            x       y       z     vdW  Elec       q    Type
REMARK                         _______ _______ _______ _____ _____    ______ ____
ROOT
ATOM      1  C   UNL     1       2.456   9.265  17.888  0.00  0.00    +0.000 C 
ATOM      2  C   UNL     1       2.141   8.191  18.870  0.00  0.00    +0.000 A 
ATOM      3  C   UNL     1       1.217   8.248  19.966  0.00  0.00    +0.000 A 
ATOM      4  N   UNL     1       1.111   7.048  20.568  0.00  0.00    +0.000 NA
ATOM      5  N   UNL     1       2.064   6.269  19.984  0.00  0.00    +0.000 N 
ATOM      6  C   UNL     1       2.631   6.886  18.860  0.00  0.00    +0.000 A 
ENDROOT
BRANCH   5   7
ATOM      7  C   UNL     1       2.323   4.952  20.477  0.00  0.00    +0.000 A 
ATOM      8  C   UNL     1       1.254   4.134  20.861  0.00  0.00    +0.000 A 
ATOM      9  C   UNL     1       1.477   2.773  21.101  0.00  0.00    +0.000 A 
ATOM     10  C   UNL     1       2.761   2.234  20.987  0.00  0.00    +0.000 A 
ATOM     11  C   UNL     1       3.837   3.063  20.686  0.00  0.00    +0.000 A 
ATOM     12  C   UNL     1       3.624   4.422  20.458  0.00  0.00    +0.000 A 
ENDBRANCH   5   7
BRANCH   6  13
ATOM     13  C   UNL     1       3.465   6.197  17.849  0.00  0.00    +0.000 A 
ATOM     14  C   UNL     1       3.153   4.891  17.451  0.00  0.00    +0.000 A 
ATOM     15  C   UNL     1       4.005   4.168  16.616  0.00  0.00    +0.000 A 
ATOM     16  C   UNL     1       5.143   4.750  16.046  0.00  0.00    +0.000 A 
ATOM     17  C   UNL     1       5.421   6.080  16.390  0.00  0.00    +0.000 A 
ATOM     18  C   UNL     1       4.604   6.789  17.290  0.00  0.00    +0.000 A 
BRANCH  16  19
ATOM     19  C   UNL     1       5.994   3.930  15.107  0.00  0.00    +0.000 C 
ATOM     20  C   UNL     1       5.639   4.018  13.633  0.00  0.00    +0.000 C 
ATOM     21  C   UNL     1       6.953   4.537  14.118  0.00  0.00    +0.000 C 
ENDBRANCH  16  19
ENDBRANCH   6  13
BRANCH   3  22
ATOM     22  C   UNL     1       0.414   9.426  20.418  0.00  0.00    +0.000 C 
ATOM     23  O   UNL     1      -0.588   9.809  19.824  0.00  0.00    +0.000 OA
ATOM     24  N   UNL     1       0.934  10.033  21.564  0.00  0.00    +0.000 N 
ATOM     25  H   UNL     1       1.781   9.616  21.945  0.00  0.00    +0.000 HD
BRANCH  24  26
ATOM     26  N   UNL     1       0.426  11.208  22.160  0.00  0.00    +0.000 NA
ATOM     27  C   UNL     1       0.297  12.362  21.268  0.00  0.00    +0.000 C 
ATOM     28  C   UNL     1      -0.411  13.352  22.179  0.00  0.00    +0.000 C 
ATOM     29  C   UNL     1      -1.419  12.487  22.925  0.00  0.00    +0.000 C 
ATOM     30  C   UNL     1      -0.870  11.061  22.834  0.00  0.00    +0.000 C 
ENDBRANCH  24  26
ENDBRANCH   3  22
TORSDOF 5
ENDMDL
MODEL 4
REMARK VINA RESULT:      -7.6      2.939      8.254
REMARK  Name = 
REMARK  6 active torsions:
REMARK  status: ('A' for Active; 'I' for Inactive)
REMARK    1  A    between atoms: C_1  and  C_2
REMARK    2  A    between atoms: C_3  and  C_4
REMARK    3  A    between atoms: N_6  and  N_7
REMARK    4  A    between atoms: N_13  and  C_14
REMARK    5  A    between atoms: C_20  and  C_21
REMARK    6  A    between atoms: C_24  and  C_25
REMARK                            x       y       z     vdW  Elec       q    Type
REMARK                         _______ _______ _______ _____ _____    ______ ____
ROOT
ATOM      1  C   UNL     1       2.966   9.182  17.901  0.00  0.00    +0.000 C 
ATOM      2  C   UNL     1       2.367   8.139  18.781  0.00  0.00    +0.000 A 
ATOM      3  C   UNL     1       1.303   8.297  19.729  0.00  0.00    +0.000 A 
ATOM      4  N   UNL     1       0.952   7.110  20.258  0.00  0.00    +0.000 NA
ATOM      5  N   UNL     1       1.872   6.222  19.789  0.00  0.00    +0.000 N 
ATOM      6  C   UNL     1       2.679   6.781  18.789  0.00  0.00    +0.000 A 
ENDROOT
BRANCH   5   7
ATOM      7  C   UNL     1       1.879   4.872  20.260  0.00  0.00    +0.000 A 
ATOM      8  C   UNL     1       2.618   4.541  21.402  0.00  0.00    +0.000 A 
ATOM      9  C   UNL     1       2.430   3.294  22.010  0.00  0.00    +0.000 A 
ATOM     10  C   UNL     1       1.532   2.371  21.470  0.00  0.00    +0.000 A 
ATOM     11  C   UNL     1       0.859   2.667  20.289  0.00  0.00    +0.000 A 
ATOM     12  C   UNL     1       1.051   3.902  19.671  0.00  0.00    +0.000 A 
ENDBRANCH   5   7
BRANCH   6  13
ATOM     13  C   UNL     1       3.559   6.007  17.884  0.00  0.00    +0.000 A 
ATOM     14  C   UNL     1       4.707   6.600  17.341  0.00  0.00    +0.000 A 
ATOM     15  C   UNL     1       5.468   5.946  16.373  0.00  0.00    +0.000 A 
ATOM     16  C   UNL     1       5.192   4.629  15.987  0.00  0.00    +0.000 A 
ATOM     17  C   UNL     1       4.083   4.009  16.579  0.00  0.00    +0.000 A 
ATOM     18  C   UNL     1       3.269   4.692  17.502  0.00  0.00    +0.000 A 
BRANCH  16  19
ATOM     19  C   UNL     1       6.088   3.959  14.974  0.00  0.00    +0.000 C 
ATOM     20  C   UNL     1       5.620   4.011  13.529  0.00  0.00    +0.000 C 
ATOM     21  C   UNL     1       6.872   4.716  13.937  0.00  0.00    +0.000 C 
ENDBRANCH  16  19
ENDBRANCH   6  13
BRANCH   3  22
ATOM     22  C   UNL     1       0.602   9.563  20.107  0.00  0.00    +0.000 C 
ATOM     23  O   UNL     1      -0.187  10.130  19.358  0.00  0.00    +0.000 OA
ATOM     24  N   UNL     1       0.951  10.021  21.380  0.00  0.00    +0.000 N 
ATOM     25  H   UNL     1       1.629   9.456  21.888  0.00  0.00    +0.000 HD
BRANCH  24  26
ATOM     26  N   UNL     1       0.503  11.229  21.957  0.00  0.00    +0.000 NA
ATOM     27  C   UNL     1       0.484  12.387  21.060  0.00  0.00    +0.000 C 
ATOM     28  C   UNL     1      -0.187  13.425  21.945  0.00  0.00    +0.000 C 
ATOM     29  C   UNL     1      -1.276  12.634  22.657  0.00  0.00    +0.000 C 
ATOM     30  C   UNL     1      -0.822  11.173  22.587  0.00  0.00    +0.000 C 
ENDBRANCH  24  26
ENDBRANCH   3  22
TORSDOF 5
ENDMDL
MODEL 5
REMARK VINA RESULT:      -7.5      1.135      1.763
REMARK  Name = 
REMARK  6 active torsions:
REMARK  status: ('A' for Active; 'I' for Inactive)
REMARK    1  A    between atoms: C_1  and  C_2
REMARK    2  A    between atoms: C_3  and  C_4
REMARK    3  A    between atoms: N_6  and  N_7
REMARK    4  A    between atoms: N_13  and  C_14
REMARK    5  A    between atoms: C_20  and  C_21
REMARK    6  A    between atoms: C_24  and  C_25
REMARK                            x       y       z     vdW  Elec       q    Type
REMARK                         _______ _______ _______ _____ _____    ______ ____
ROOT
ATOM      1  C   UNL     1       4.749   7.080  15.757  0.00  0.00    +0.000 C 
ATOM      2  C   UNL     1       4.432   5.797  16.442  0.00  0.00    +0.000 A 
ATOM      3  C   UNL     1       4.957   4.494  16.151  0.00  0.00    +0.000 A 
ATOM      4  N   UNL     1       4.528   3.591  17.053  0.00  0.00    +0.000 NA
ATOM      5  N   UNL     1       3.615   4.254  17.818  0.00  0.00    +0.000 N 
ATOM      6  C   UNL     1       3.616   5.632  17.560  0.00  0.00    +0.000 A 
ENDROOT
BRANCH   5   7
ATOM      7  C   UNL     1       2.854   3.554  18.805  0.00  0.00    +0.000 A 
ATOM      8  C   UNL     1       3.465   3.161  20.000  0.00  0.00    +0.000 A 
ATOM      9  C   UNL     1       2.676   2.708  21.064  0.00  0.00    +0.000 A 
ATOM     10  C   UNL     1       1.289   2.619  20.929  0.00  0.00    +0.000 A 
ATOM     11  C   UNL     1       0.688   2.930  19.714  0.00  0.00    +0.000 A 
ATOM     12  C   UNL     1       1.470   3.371  18.646  0.00  0.00    +0.000 A 
ENDBRANCH   5   7
BRANCH   6  13
ATOM     13  C   UNL     1       2.967   6.651  18.415  0.00  0.00    +0.000 A 
ATOM     14  C   UNL     1       2.826   6.430  19.791  0.00  0.00    +0.000 A 
ATOM     15  C   UNL     1       2.088   7.303  20.590  0.00  0.00    +0.000 A 
ATOM     16  C   UNL     1       1.557   8.494  20.083  0.00  0.00    +0.000 A 
ATOM     17  C   UNL     1       1.754   8.750  18.719  0.00  0.00    +0.000 A 
ATOM     18  C   UNL     1       2.435   7.837  17.892  0.00  0.00    +0.000 A 
BRANCH  16  19
ATOM     19  C   UNL     1       0.815   9.422  21.013  0.00  0.00    +0.000 C 
ATOM     20  C   UNL     1      -0.413   8.844  21.696  0.00  0.00    +0.000 C 
ATOM     21  C   UNL     1       0.778   9.237  22.507  0.00  0.00    +0.000 C 
ENDBRANCH  16  19
ENDBRANCH   6  13
BRANCH   3  22
ATOM     22  C   UNL     1       5.887   4.115  15.043  0.00  0.00    +0.000 C 
ATOM     23  O   UNL     1       7.098   4.004  15.206  0.00  0.00    +0.000 OA
ATOM     24  N   UNL     1       5.232   3.916  13.826  0.00  0.00    +0.000 N 
ATOM     25  H   UNL     1       4.223   4.054  13.832  0.00  0.00    +0.000 HD
BRANCH  24  26
ATOM     26  N   UNL     1       5.870   3.630  12.599  0.00  0.00    +0.000 NA
ATOM     27  C   UNL     1       7.265   4.066  12.497  0.00  0.00    +0.000 C 
ATOM     28  C   UNL     1       7.658   3.462  11.159  0.00  0.00    +0.000 C 
ATOM     29  C   UNL     1       6.987   2.095  11.176  0.00  0.00    +0.000 C 
ATOM     30  C   UNL     1       5.849   2.219  12.193  0.00  0.00    +0.000 C 
ENDBRANCH  24  26
ENDBRANCH   3  22
TORSDOF 5
ENDMDL
MODEL 6
REMARK VINA RESULT:      -7.5      2.950      7.927
REMARK  Name = 
REMARK  6 active torsions:
REMARK  status: ('A' for Active; 'I' for Inactive)
REMARK    1  A    between atoms: C_1  and  C_2
REMARK    2  A    between atoms: C_3  and  C_4
REMARK    3  A    between atoms: N_6  and  N_7
REMARK    4  A    between atoms: N_13  and  C_14
REMARK    5  A    between atoms: C_20  and  C_21
REMARK    6  A    between atoms: C_24  and  C_25
REMARK                            x       y       z     vdW  Elec       q    Type
REMARK                         _______ _______ _______ _____ _____    ______ ____
ROOT
ATOM      1  C   UNL     1       2.436   9.062  17.811  0.00  0.00    +0.000 C 
ATOM      2  C   UNL     1       2.272   7.991  18.832  0.00  0.00    +0.000 A 
ATOM      3  C   UNL     1       1.439   8.012  20.000  0.00  0.00    +0.000 A 
ATOM      4  N   UNL     1       1.461   6.821  20.627  0.00  0.00    +0.000 NA
ATOM      5  N   UNL     1       2.411   6.091  19.978  0.00  0.00    +0.000 N 
ATOM      6  C   UNL     1       2.843   6.720  18.801  0.00  0.00    +0.000 A 
ENDROOT
BRANCH   5   7
ATOM      7  C   UNL     1       2.794   4.804  20.468  0.00  0.00    +0.000 A 
ATOM      8  C   UNL     1       1.879   4.043  21.204  0.00  0.00    +0.000 A 
ATOM      9  C   UNL     1       2.152   2.695  21.466  0.00  0.00    +0.000 A 
ATOM     10  C   UNL     1       3.342   2.115  21.022  0.00  0.00    +0.000 A 
ATOM     11  C   UNL     1       4.289   2.891  20.362  0.00  0.00    +0.000 A 
ATOM     12  C   UNL     1       4.029   4.238  20.108  0.00  0.00    +0.000 A 
ENDBRANCH   5   7
BRANCH   6  13
ATOM     13  C   UNL     1       3.633   6.064  17.735  0.00  0.00    +0.000 A 
ATOM     14  C   UNL     1       3.299   4.775  17.302  0.00  0.00    +0.000 A 
ATOM     15  C   UNL     1       4.114   4.079  16.410  0.00  0.00    +0.000 A 
ATOM     16  C   UNL     1       5.233   4.675  15.818  0.00  0.00    +0.000 A 
ATOM     17  C   UNL     1       5.532   5.990  16.199  0.00  0.00    +0.000 A 
ATOM     18  C   UNL     1       4.754   6.671  17.155  0.00  0.00    +0.000 A 
BRANCH  16  19
ATOM     19  C   UNL     1       6.043   3.886  14.818  0.00  0.00    +0.000 C 
ATOM     20  C   UNL     1       5.595   3.982  13.370  0.00  0.00    +0.000 C 
ATOM     21  C   UNL     1       6.924   4.527  13.780  0.00  0.00    +0.000 C 
ENDBRANCH  16  19
ENDBRANCH   6  13
BRANCH   3  22
ATOM     22  C   UNL     1       0.602   9.146  20.500  0.00  0.00    +0.000 C 
ATOM     23  O   UNL     1      -0.365   8.979  21.236  0.00  0.00    +0.000 OA
ATOM     24  N   UNL     1       1.034  10.390  20.032  0.00  0.00    +0.000 N 
ATOM     25  H   UNL     1       1.845  10.380  19.417  0.00  0.00    +0.000 HD
BRANCH  24  26
ATOM     26  N   UNL     1       0.383  11.619  20.280  0.00  0.00    +0.000 NA
ATOM     27  C   UNL     1       1.266  12.762  20.519  0.00  0.00    +0.000 C 
ATOM     28  C   UNL     1       0.258  13.898  20.576  0.00  0.00    +0.000 C 
ATOM     29  C   UNL     1      -0.729  13.551  19.470  0.00  0.00    +0.000 C 
ATOM     30  C   UNL     1      -0.571  12.044  19.249  0.00  0.00    +0.000 C 
ENDBRANCH  24  26
ENDBRANCH   3  22
TORSDOF 5
ENDMDL
MODEL 7
REMARK VINA RESULT:      -7.4      2.894      7.820
REMARK  Name = 
REMARK  6 active torsions:
REMARK  status: ('A' for Active; 'I' for Inactive)
REMARK    1  A    between atoms: C_1  and  C_2
REMARK    2  A    between atoms: C_3  and  C_4
REMARK    3  A    between atoms: N_6  and  N_7
REMARK    4  A    between atoms: N_13  and  C_14
REMARK    5  A    between atoms: C_20  and  C_21
REMARK    6  A    between atoms: C_24  and  C_25
REMARK                            x       y       z     vdW  Elec       q    Type
REMARK                         _______ _______ _______ _____ _____    ______ ____
ROOT
ATOM      1  C   UNL     1       2.889   8.827  17.776  0.00  0.00    +0.000 C 
ATOM      2  C   UNL     1       2.573   7.802  18.809  0.00  0.00    +0.000 A 
ATOM      3  C   UNL     1       1.675   7.925  19.921  0.00  0.00    +0.000 A 
ATOM      4  N   UNL     1       1.557   6.754  20.575  0.00  0.00    +0.000 NA
ATOM      5  N   UNL     1       2.480   5.930  20.004  0.00  0.00    +0.000 N 
ATOM      6  C   UNL     1       3.035   6.488  18.844  0.00  0.00    +0.000 A 
ENDROOT
BRANCH   5   7
ATOM      7  C   UNL     1       2.722   4.630  20.547  0.00  0.00    +0.000 A 
ATOM      8  C   UNL     1       1.724   3.996  21.296  0.00  0.00    +0.000 A 
ATOM      9  C   UNL     1       1.854   2.638  21.610  0.00  0.00    +0.000 A 
ATOM     10  C   UNL     1       2.984   1.922  21.208  0.00  0.00    +0.000 A 
ATOM     11  C   UNL     1       4.014   2.572  20.536  0.00  0.00    +0.000 A 
ATOM     12  C   UNL     1       3.897   3.927  20.229  0.00  0.00    +0.000 A 
ENDBRANCH   5   7
BRANCH   6  13
ATOM     13  C   UNL     1       3.831   5.739  17.845  0.00  0.00    +0.000 A 
ATOM     14  C   UNL     1       5.096   6.203  17.461  0.00  0.00    +0.000 A 
ATOM     15  C   UNL     1       5.799   5.602  16.418  0.00  0.00    +0.000 A 
ATOM     16  C   UNL     1       5.332   4.442  15.788  0.00  0.00    +0.000 A 
ATOM     17  C   UNL     1       4.097   3.936  16.217  0.00  0.00    +0.000 A 
ATOM     18  C   UNL     1       3.349   4.582  17.220  0.00  0.00    +0.000 A 
BRANCH  16  19
ATOM     19  C   UNL     1       6.167   3.810  14.703  0.00  0.00    +0.000 C 
ATOM     20  C   UNL     1       5.599   3.878  13.295  0.00  0.00    +0.000 C 
ATOM     21  C   UNL     1       6.862   4.602  13.628  0.00  0.00    +0.000 C 
ENDBRANCH  16  19
ENDBRANCH   6  13
BRANCH   3  22
ATOM     22  C   UNL     1       0.908   9.139  20.341  0.00  0.00    +0.000 C 
ATOM     23  O   UNL     1       0.995   9.618  21.466  0.00  0.00    +0.000 OA
ATOM     24  N   UNL     1       0.090   9.644  19.328  0.00  0.00    +0.000 N 
ATOM     25  H   UNL     1       0.107   9.138  18.444  0.00  0.00    +0.000 HD
BRANCH  24  26
ATOM     26  N   UNL     1      -0.801  10.731  19.472  0.00  0.00    +0.000 NA
ATOM     27  C   UNL     1      -0.214  12.058  19.275  0.00  0.00    +0.000 C 
ATOM     28  C   UNL     1      -1.455  12.933  19.338  0.00  0.00    +0.000 C 
ATOM     29  C   UNL     1      -2.497  12.126  18.576  0.00  0.00    +0.000 C 
ATOM     30  C   UNL     1      -1.998  10.679  18.623  0.00  0.00    +0.000 C 
ENDBRANCH  24  26
ENDBRANCH   3  22
TORSDOF 5
ENDMDL
MODEL 8
REMARK VINA RESULT:      -7.4      3.098      8.348
REMARK  Name = 
REMARK  6 active torsions:
REMARK  status: ('A' for Active; 'I' for Inactive)
REMARK    1  A    between atoms: C_1  and  C_2
REMARK    2  A    between atoms: C_3  and  C_4
REMARK    3  A    between atoms: N_6  and  N_7
REMARK    4  A    between atoms: N_13  and  C_14
REMARK    5  A    between atoms: C_20  and  C_21
REMARK    6  A    between atoms: C_24  and  C_25
REMARK                            x       y       z     vdW  Elec       q    Type
REMARK                         _______ _______ _______ _____ _____    ______ ____
ROOT
ATOM      1  C   UNL     1       2.755   9.279  17.738  0.00  0.00    +0.000 C 
ATOM      2  C   UNL     1       2.149   8.317  18.699  0.00  0.00    +0.000 A 
ATOM      3  C   UNL     1       1.064   8.550  19.608  0.00  0.00    +0.000 A 
ATOM      4  N   UNL     1       0.713   7.414  20.239  0.00  0.00    +0.000 NA
ATOM      5  N   UNL     1       1.652   6.496  19.874  0.00  0.00    +0.000 N 
ATOM      6  C   UNL     1       2.474   6.969  18.841  0.00  0.00    +0.000 A 
ENDROOT
BRANCH   5   7
ATOM      7  C   UNL     1       1.663   5.196  20.470  0.00  0.00    +0.000 A 
ATOM      8  C   UNL     1       0.700   4.254  20.092  0.00  0.00    +0.000 A 
ATOM      9  C   UNL     1       0.856   2.916  20.474  0.00  0.00    +0.000 A 
ATOM     10  C   UNL     1       1.947   2.523  21.252  0.00  0.00    +0.000 A 
ATOM     11  C   UNL     1       2.859   3.474  21.697  0.00  0.00    +0.000 A 
ATOM     12  C   UNL     1       2.704   4.811  21.331  0.00  0.00    +0.000 A 
ENDBRANCH   5   7
BRANCH   6  13
ATOM     13  C   UNL     1       3.380   6.124  18.031  0.00  0.00    +0.000 A 
ATOM     14  C   UNL     1       4.626   6.618  17.623  0.00  0.00    +0.000 A 
ATOM     15  C   UNL     1       5.431   5.902  16.737  0.00  0.00    +0.000 A 
ATOM     16  C   UNL     1       5.090   4.614  16.310  0.00  0.00    +0.000 A 
ATOM     17  C   UNL     1       3.875   4.090  16.771  0.00  0.00    +0.000 A 
ATOM     18  C   UNL     1       3.024   4.838  17.606  0.00  0.00    +0.000 A 
BRANCH  16  19
ATOM     19  C   UNL     1       6.032   3.871  15.395  0.00  0.00    +0.000 C 
ATOM     20  C   UNL     1       5.731   3.962  13.908  0.00  0.00    +0.000 C 
ATOM     21  C   UNL     1       6.986   4.560  14.456  0.00  0.00    +0.000 C 
ENDBRANCH  16  19
ENDBRANCH   6  13
BRANCH   3  22
ATOM     22  C   UNL     1       0.343   9.837  19.851  0.00  0.00    +0.000 C 
ATOM     23  O   UNL     1       0.210  10.694  18.984  0.00  0.00    +0.000 OA
ATOM     24  N   UNL     1      -0.141   9.953  21.157  0.00  0.00    +0.000 N 
ATOM     25  H   UNL     1       0.053   9.169  21.777  0.00  0.00    +0.000 HD
BRANCH  24  26
ATOM     26  N   UNL     1      -0.787  11.093  21.683  0.00  0.00    +0.000 NA
ATOM     27  C   UNL     1      -1.259  10.969  23.064  0.00  0.00    +0.000 C 
ATOM     28  C   UNL     1      -1.730  12.388  23.336  0.00  0.00    +0.000 C 
ATOM     29  C   UNL     1      -0.667  13.249  22.666  0.00  0.00    +0.000 C 
ATOM     30  C   UNL     1      -0.013  12.339  21.622  0.00  0.00    +0.000 C 
ENDBRANCH  24  26
ENDBRANCH   3  22
TORSDOF 5
ENDMDL
MODEL 9
REMARK VINA RESULT:      -7.3      2.920      7.980
REMARK  Name = 
REMARK  6 active torsions:
REMARK  status: ('A' for Active; 'I' for Inactive)
REMARK    1  A    between atoms: C_1  and  C_2
REMARK    2  A    between atoms: C_3  and  C_4
REMARK    3  A    between atoms: N_6  and  N_7
REMARK    4  A    between atoms: N_13  and  C_14
REMARK    5  A    between atoms: C_20  and  C_21
REMARK    6  A    between atoms: C_24  and  C_25
REMARK                            x       y       z     vdW  Elec       q    Type
REMARK                         _______ _______ _______ _____ _____    ______ ____
ROOT
ATOM      1  C   UNL     1       2.760   9.146  18.028  0.00  0.00    +0.000 C 
ATOM      2  C   UNL     1       2.358   8.030  18.927  0.00  0.00    +0.000 A 
ATOM      3  C   UNL     1       1.426   8.073  20.016  0.00  0.00    +0.000 A 
ATOM      4  N   UNL     1       1.229   6.844  20.530  0.00  0.00    +0.000 NA
ATOM      5  N   UNL     1       2.133   6.043  19.899  0.00  0.00    +0.000 N 
ATOM      6  C   UNL     1       2.757   6.698  18.827  0.00  0.00    +0.000 A 
ENDROOT
BRANCH   5   7
ATOM      7  C   UNL     1       2.294   4.679  20.298  0.00  0.00    +0.000 A 
ATOM      8  C   UNL     1       3.568   4.101  20.286  0.00  0.00    +0.000 A 
ATOM      9  C   UNL     1       3.770   2.863  20.910  0.00  0.00    +0.000 A 
ATOM     10  C   UNL     1       2.706   2.193  21.516  0.00  0.00    +0.000 A 
ATOM     11  C   UNL     1       1.423   2.728  21.456  0.00  0.00    +0.000 A 
ATOM     12  C   UNL     1       1.212   3.954  20.826  0.00  0.00    +0.000 A 
ENDBRANCH   5   7
BRANCH   6  13
ATOM     13  C   UNL     1       3.554   6.026  17.776  0.00  0.00    +0.000 A 
ATOM     14  C   UNL     1       3.211   4.737  17.347  0.00  0.00    +0.000 A 
ATOM     15  C   UNL     1       4.030   4.026  16.471  0.00  0.00    +0.000 A 
ATOM     16  C   UNL     1       5.162   4.606  15.889  0.00  0.00    +0.000 A 
ATOM     17  C   UNL     1       5.471   5.920  16.265  0.00  0.00    +0.000 A 
ATOM     18  C   UNL     1       4.688   6.616  17.206  0.00  0.00    +0.000 A 
BRANCH  16  19
ATOM     19  C   UNL     1       5.976   3.801  14.906  0.00  0.00    +0.000 C 
ATOM     20  C   UNL     1       5.572   3.920  13.446  0.00  0.00    +0.000 C 
ATOM     21  C   UNL     1       6.904   4.423  13.897  0.00  0.00    +0.000 C 
ENDBRANCH  16  19
ENDBRANCH   6  13
BRANCH   3  22
ATOM     22  C   UNL     1       0.702   9.269  20.546  0.00  0.00    +0.000 C 
ATOM     23  O   UNL     1       0.868   9.690  21.687  0.00  0.00    +0.000 OA
ATOM     24  N   UNL     1      -0.175   9.832  19.616  0.00  0.00    +0.000 N 
ATOM     25  H   UNL     1      -0.222   9.372  18.710  0.00  0.00    +0.000 HD
BRANCH  24  26
ATOM     26  N   UNL     1      -1.043  10.917  19.874  0.00  0.00    +0.000 NA
ATOM     27  C   UNL     1      -0.408  12.235  19.916  0.00  0.00    +0.000 C 
ATOM     28  C   UNL     1      -1.625  13.137  20.040  0.00  0.00    +0.000 C 
ATOM     29  C   UNL     1      -2.640  12.493  19.105  0.00  0.00    +0.000 C 
ATOM     30  C   UNL     1      -2.185  11.038  18.960  0.00  0.00    +0.000 C 
ENDBRANCH  24  26
ENDBRANCH   3  22
TORSDOF 5
ENDMDL
