MODEL 1
REMARK VINA RESULT:      -8.1      0.000      0.000
REMARK  Name = 
REMARK  7 active torsions:
REMARK  status: ('A' for Active; 'I' for Inactive)
REMARK    1  A    between atoms: C_2  and  C_26
REMARK    2  A    between atoms: N_3  and  C_4
REMARK    3  A    between atoms: C_7  and  C_8
REMARK    4  A    between atoms: N_12  and  C_13
REMARK    5  A    between atoms: C_13  and  C_14
REMARK    6  A    between atoms: C_14  and  C_15
REMARK    7  A    between atoms: C_15  and  N_16
REMARK                            x       y       z     vdW  Elec       q    Type
REMARK                         _______ _______ _______ _____ _____    ______ ____
ROOT
ATOM      1  C   UNL     1       9.827  12.261  19.311  0.00  0.00    +0.000 A 
ATOM      2  C   UNL     1       9.728  11.210  20.222  0.00  0.00    +0.000 A 
ATOM      3  C   UNL     1       9.212   9.971  19.834  0.00  0.00    +0.000 A 
ATOM      4  C   UNL     1       8.777   9.746  18.524  0.00  0.00    +0.000 A 
ATOM      5  C   UNL     1       8.880  10.798  17.604  0.00  0.00    +0.000 A 
ATOM      6  C   UNL     1       9.391  12.047  17.998  0.00  0.00    +0.000 A 
ENDROOT
BRANCH   4   7
ATOM      7  C   UNL     1       8.192   8.451  18.199  0.00  0.00    +0.000 A 
ATOM      8  N   UNL     1       8.389   7.285  18.782  0.00  0.00    +0.000 NA
ATOM      9  N   UNL     1       7.542   6.395  18.163  0.00  0.00    +0.000 NA
ATOM     10  C   UNL     1       6.907   7.069  17.230  0.00  0.00    +0.000 A 
ATOM     11  N   UNL     1       5.955   6.686  16.363  0.00  0.00    +0.000 N 
ATOM     12  O   UNL     1       7.269   8.388  17.187  0.00  0.00    +0.000 OA
ATOM     13  H   UNL     1       5.519   7.426  15.825  0.00  0.00    +0.000 HD
BRANCH  11  14
ATOM     14  C   UNL     1       5.075   5.589  16.745  0.00  0.00    +0.000 C 
BRANCH  14  15
ATOM     15  C   UNL     1       4.059   6.082  17.777  0.00  0.00    +0.000 C 
BRANCH  15  16
ATOM     16  C   UNL     1       3.135   4.975  18.305  0.00  0.00    +0.000 C 
BRANCH  16  17
ATOM     17  N   UNL     1       3.350   4.579  19.705  0.00  0.00    +0.000 NA
ATOM     18  C   UNL     1       2.282   4.989  20.631  0.00  0.00    +0.000 C 
ATOM     19  C   UNL     1       0.951   4.301  20.335  0.00  0.00    +0.000 C 
ATOM     20  C   UNL     1       1.111   2.790  20.382  0.00  0.00    +0.000 C 
ATOM     21  F   UNL     1       1.273   2.421  21.686  0.00  0.00    +0.000 F 
ATOM     22  C   UNL     1       2.313   2.284  19.592  0.00  0.00    +0.000 C 
ATOM     23  C   UNL     1       3.567   3.127  19.841  0.00  0.00    +0.000 C 
ENDBRANCH  16  17
ENDBRANCH  15  16
ENDBRANCH  14  15
ENDBRANCH  11  14
ENDBRANCH   4   7
BRANCH   1  26
ATOM     24  O   UNL     1       8.372  14.620  20.295  0.00  0.00    +0.000 OA
ATOM     25  C   UNL     1       9.584  14.617  20.091  0.00  0.00    +0.000 C 
ATOM     26  N   UNL     1      10.332  13.535  19.655  0.00  0.00    +0.000 N 
ATOM     27  H   UNL     1      11.340  13.646  19.622  0.00  0.00    +0.000 HD
BRANCH  25  28
ATOM     28  C   UNL     1      10.304  15.889  20.341  0.00  0.00    +0.000 A 
ATOM     29  C   UNL     1      10.405  16.807  19.282  0.00  0.00    +0.000 A 
ATOM     30  C   UNL     1      11.025  18.042  19.470  0.00  0.00    +0.000 A 
ATOM     31  C   UNL     1      11.542  18.377  20.720  0.00  0.00    +0.000 A 
ATOM     32  C   UNL     1      11.453  17.468  21.776  0.00  0.00    +0.000 A 
ATOM     33  C   UNL     1      10.842  16.230  21.581  0.00  0.00    +0.000 A 
ATOM     34  F   UNL     1      10.777  15.380  22.618  0.00  0.00    +0.000 F 
ENDBRANCH  25  28
ENDBRANCH   1  26
TORSDOF 7
ENDMDL
MODEL 2
REMARK VINA RESULT:      -8.0      1.423      2.016
REMARK  Name = 
REMARK  7 active torsions:
REMARK  status: ('A' for Active; 'I' for Inactive)
REMARK    1  A    between atoms: C_2  and  C_26
REMARK    2  A    between atoms: N_3  and  C_4
REMARK    3  A    between atoms: C_7  and  C_8
REMARK    4  A    between atoms: N_12  and  C_13
REMARK    5  A    between atoms: C_13  and  C_14
REMARK    6  A    between atoms: C_14  and  C_15
REMARK    7  A    between atoms: C_15  and  N_16
REMARK                            x       y       z     vdW  Elec       q    Type
REMARK                         _______ _______ _______ _____ _____    ______ ____
ROOT
ATOM      1  C   UNL     1       9.175  12.373  18.663  0.00  0.00    +0.000 A 
ATOM      2  C   UNL     1       8.272  11.958  17.686  0.00  0.00    +0.000 A 
ATOM      3  C   UNL     1       7.945  10.607  17.539  0.00  0.00    +0.000 A 
ATOM      4  C   UNL     1       8.514   9.631  18.363  0.00  0.00    +0.000 A 
ATOM      5  C   UNL     1       9.417  10.045  19.352  0.00  0.00    +0.000 A 
ATOM      6  C   UNL     1       9.752  11.404  19.492  0.00  0.00    +0.000 A 
ENDROOT
BRANCH   4   7
ATOM      7  C   UNL     1       8.178   8.234  18.119  0.00  0.00    +0.000 A 
ATOM      8  N   UNL     1       8.386   7.187  18.893  0.00  0.00    +0.000 NA
ATOM      9  N   UNL     1       7.811   6.113  18.254  0.00  0.00    +0.000 NA
ATOM     10  C   UNL     1       7.315   6.570  17.125  0.00  0.00    +0.000 A 
ATOM     11  N   UNL     1       6.628   5.950  16.152  0.00  0.00    +0.000 N 
ATOM     12  O   UNL     1       7.511   7.915  16.965  0.00  0.00    +0.000 OA
ATOM     13  H   UNL     1       6.231   6.549  15.436  0.00  0.00    +0.000 HD
BRANCH  11  14
ATOM     14  C   UNL     1       5.829   4.784  16.506  0.00  0.00    +0.000 C 
BRANCH  14  15
ATOM     15  C   UNL     1       4.378   5.209  16.743  0.00  0.00    +0.000 C 
BRANCH  15  16
ATOM     16  C   UNL     1       3.979   5.231  18.225  0.00  0.00    +0.000 C 
BRANCH  16  17
ATOM     17  N   UNL     1       2.546   5.421  18.498  0.00  0.00    +0.000 NA
ATOM     18  C   UNL     1       1.656   4.494  17.780  0.00  0.00    +0.000 C 
ATOM     19  C   UNL     1       1.845   3.043  18.214  0.00  0.00    +0.000 C 
ATOM     20  C   UNL     1       1.623   2.902  19.711  0.00  0.00    +0.000 C 
ATOM     21  F   UNL     1       0.288   3.041  19.957  0.00  0.00    +0.000 F 
ATOM     22  C   UNL     1       2.369   3.946  20.534  0.00  0.00    +0.000 C 
ATOM     23  C   UNL     1       2.244   5.351  19.939  0.00  0.00    +0.000 C 
ENDBRANCH  16  17
ENDBRANCH  15  16
ENDBRANCH  14  15
ENDBRANCH  11  14
ENDBRANCH   4   7
BRANCH   1  26
ATOM     24  O   UNL     1       8.018  14.375  20.482  0.00  0.00    +0.000 OA
ATOM     25  C   UNL     1       8.939  14.625  19.708  0.00  0.00    +0.000 C 
ATOM     26  N   UNL     1       9.546  13.725  18.847  0.00  0.00    +0.000 N 
ATOM     27  H   UNL     1      10.361  14.044  18.335  0.00  0.00    +0.000 HD
BRANCH  25  28
ATOM     28  C   UNL     1       9.445  16.020  19.706  0.00  0.00    +0.000 A 
ATOM     29  C   UNL     1      10.240  16.433  20.788  0.00  0.00    +0.000 A 
ATOM     30  C   UNL     1      10.788  17.715  20.817  0.00  0.00    +0.000 A 
ATOM     31  C   UNL     1      10.554  18.595  19.762  0.00  0.00    +0.000 A 
ATOM     32  C   UNL     1       9.759  18.195  18.687  0.00  0.00    +0.000 A 
ATOM     33  C   UNL     1       9.204  16.916  18.666  0.00  0.00    +0.000 A 
ATOM     34  F   UNL     1       8.443  16.568  17.618  0.00  0.00    +0.000 F 
ENDBRANCH  25  28
ENDBRANCH   1  26
TORSDOF 7
ENDMDL
MODEL 3
REMARK VINA RESULT:      -8.0      7.736      9.597
REMARK  Name = 
REMARK  7 active torsions:
REMARK  status: ('A' for Active; 'I' for Inactive)
REMARK    1  A    between atoms: C_2  and  C_26
REMARK    2  A    between atoms: N_3  and  C_4
REMARK    3  A    between atoms: C_7  and  C_8
REMARK    4  A    between atoms: N_12  and  C_13
REMARK    5  A    between atoms: C_13  and  C_14
REMARK    6  A    between atoms: C_14  and  C_15
REMARK    7  A    between atoms: C_15  and  N_16
REMARK                            x       y       z     vdW  Elec       q    Type
REMARK                         _______ _______ _______ _____ _____    ______ ____
ROOT
ATOM      1  C   UNL     1      -0.826  12.281  21.201  0.00  0.00    +0.000 A 
ATOM      2  C   UNL     1      -0.042  11.279  21.771  0.00  0.00    +0.000 A 
ATOM      3  C   UNL     1       0.681  10.392  20.970  0.00  0.00    +0.000 A 
ATOM      4  C   UNL     1       0.642  10.479  19.575  0.00  0.00    +0.000 A 
ATOM      5  C   UNL     1      -0.140  11.489  18.998  0.00  0.00    +0.000 A 
ATOM      6  C   UNL     1      -0.876  12.375  19.805  0.00  0.00    +0.000 A 
ENDROOT
BRANCH   4   7
ATOM      7  C   UNL     1       1.371   9.487  18.796  0.00  0.00    +0.000 A 
ATOM      8  N   UNL     1       1.833   9.579  17.565  0.00  0.00    +0.000 NA
ATOM      9  N   UNL     1       2.521   8.412  17.321  0.00  0.00    +0.000 NA
ATOM     10  C   UNL     1       2.411   7.679  18.406  0.00  0.00    +0.000 A 
ATOM     11  N   UNL     1       2.917   6.471  18.706  0.00  0.00    +0.000 N 
ATOM     12  O   UNL     1       1.689   8.294  19.392  0.00  0.00    +0.000 OA
ATOM     13  H   UNL     1       2.805   6.167  19.666  0.00  0.00    +0.000 HD
BRANCH  11  14
ATOM     14  C   UNL     1       4.160   6.065  18.063  0.00  0.00    +0.000 C 
BRANCH  14  15
ATOM     15  C   UNL     1       4.000   4.660  17.479  0.00  0.00    +0.000 C 
BRANCH  15  16
ATOM     16  C   UNL     1       2.618   4.044  17.731  0.00  0.00    +0.000 C 
BRANCH  16  17
ATOM     17  N   UNL     1       2.614   2.743  18.418  0.00  0.00    +0.000 NA
ATOM     18  C   UNL     1       3.472   2.676  19.612  0.00  0.00    +0.000 C 
ATOM     19  C   UNL     1       2.993   3.596  20.732  0.00  0.00    +0.000 C 
ATOM     20  C   UNL     1       1.560   3.266  21.117  0.00  0.00    +0.000 C 
ATOM     21  F   UNL     1       1.565   2.077  21.786  0.00  0.00    +0.000 F 
ATOM     22  C   UNL     1       0.627   3.133  19.918  0.00  0.00    +0.000 C 
ATOM     23  C   UNL     1       1.252   2.315  18.785  0.00  0.00    +0.000 C 
ENDBRANCH  16  17
ENDBRANCH  15  16
ENDBRANCH  14  15
ENDBRANCH  11  14
ENDBRANCH   4   7
BRANCH   1  26
ATOM     24  O   UNL     1      -2.935  11.736  23.177  0.00  0.00    +0.000 OA
ATOM     25  C   UNL     1      -2.586  12.872  22.865  0.00  0.00    +0.000 C 
ATOM     26  N   UNL     1      -1.585  13.197  21.964  0.00  0.00    +0.000 N 
ATOM     27  H   UNL     1      -1.336  14.176  21.875  0.00  0.00    +0.000 HD
BRANCH  25  28
ATOM     28  C   UNL     1      -3.305  13.992  23.521  0.00  0.00    +0.000 A 
ATOM     29  C   UNL     1      -2.625  14.720  24.512  0.00  0.00    +0.000 A 
ATOM     30  C   UNL     1      -3.229  15.815  25.127  0.00  0.00    +0.000 A 
ATOM     31  C   UNL     1      -4.515  16.201  24.755  0.00  0.00    +0.000 A 
ATOM     32  C   UNL     1      -5.201  15.479  23.777  0.00  0.00    +0.000 A 
ATOM     33  C   UNL     1      -4.599  14.377  23.170  0.00  0.00    +0.000 A 
ATOM     34  F   UNL     1      -5.289  13.705  22.237  0.00  0.00    +0.000 F 
ENDBRANCH  25  28
ENDBRANCH   1  26
TORSDOF 7
ENDMDL
MODEL 4
REMARK VINA RESULT:      -7.9      8.309     12.340
REMARK  Name = 
REMARK  7 active torsions:
REMARK  status: ('A' for Active; 'I' for Inactive)
REMARK    1  A    between atoms: C_2  and  C_26
REMARK    2  A    between atoms: N_3  and  C_4
REMARK    3  A    between atoms: C_7  and  C_8
REMARK    4  A    between atoms: N_12  and  C_13
REMARK    5  A    between atoms: C_13  and  C_14
REMARK    6  A    between atoms: C_14  and  C_15
REMARK    7  A    between atoms: C_15  and  N_16
REMARK                            x       y       z     vdW  Elec       q    Type
REMARK                         _______ _______ _______ _____ _____    ______ ____
ROOT
ATOM      1  C   UNL     1       1.382   8.641  20.354  0.00  0.00    +0.000 A 
ATOM      2  C   UNL     1       1.260   8.627  21.743  0.00  0.00    +0.000 A 
ATOM      3  C   UNL     1       0.518   9.606  22.407  0.00  0.00    +0.000 A 
ATOM      4  C   UNL     1      -0.122  10.631  21.703  0.00  0.00    +0.000 A 
ATOM      5  C   UNL     1      -0.007  10.646  20.307  0.00  0.00    +0.000 A 
ATOM      6  C   UNL     1       0.748   9.664  19.640  0.00  0.00    +0.000 A 
ENDROOT
BRANCH   4   7
ATOM      7  C   UNL     1      -0.830  11.656  22.460  0.00  0.00    +0.000 A 
ATOM      8  N   UNL     1      -0.362  12.779  22.968  0.00  0.00    +0.000 NA
ATOM      9  N   UNL     1      -1.441  13.439  23.510  0.00  0.00    +0.000 NA
ATOM     10  C   UNL     1      -2.487  12.666  23.319  0.00  0.00    +0.000 A 
ATOM     11  N   UNL     1      -3.782  12.847  23.625  0.00  0.00    +0.000 N 
ATOM     12  O   UNL     1      -2.178  11.508  22.658  0.00  0.00    +0.000 OA
ATOM     13  H   UNL     1      -4.428  12.161  23.252  0.00  0.00    +0.000 HD
BRANCH  11  14
ATOM     14  C   UNL     1      -4.290  14.211  23.694  0.00  0.00    +0.000 C 
BRANCH  14  15
ATOM     15  C   UNL     1      -5.424  14.389  22.682  0.00  0.00    +0.000 C 
BRANCH  15  16
ATOM     16  C   UNL     1      -5.827  13.086  21.978  0.00  0.00    +0.000 C 
BRANCH  16  17
ATOM     17  N   UNL     1      -6.798  13.226  20.882  0.00  0.00    +0.000 NA
ATOM     18  C   UNL     1      -6.199  13.426  19.553  0.00  0.00    +0.000 C 
ATOM     19  C   UNL     1      -5.400  12.215  19.079  0.00  0.00    +0.000 C 
ATOM     20  C   UNL     1      -6.277  10.974  19.059  0.00  0.00    +0.000 C 
ATOM     21  F   UNL     1      -7.152  11.090  18.018  0.00  0.00    +0.000 F 
ATOM     22  C   UNL     1      -7.084  10.782  20.338  0.00  0.00    +0.000 C 
ATOM     23  C   UNL     1      -7.729  12.085  20.818  0.00  0.00    +0.000 C 
ENDBRANCH  16  17
ENDBRANCH  15  16
ENDBRANCH  14  15
ENDBRANCH  11  14
ENDBRANCH   4   7
BRANCH   1  26
ATOM     24  O   UNL     1       1.481   5.725  20.724  0.00  0.00    +0.000 OA
ATOM     25  C   UNL     1       2.148   6.316  19.878  0.00  0.00    +0.000 C 
ATOM     26  N   UNL     1       2.128   7.680  19.635  0.00  0.00    +0.000 N 
ATOM     27  H   UNL     1       2.658   8.020  18.840  0.00  0.00    +0.000 HD
BRANCH  25  28
ATOM     28  C   UNL     1       3.050   5.485  19.043  0.00  0.00    +0.000 A 
ATOM     29  C   UNL     1       4.392   5.369  19.440  0.00  0.00    +0.000 A 
ATOM     30  C   UNL     1       5.276   4.561  18.725  0.00  0.00    +0.000 A 
ATOM     31  C   UNL     1       4.826   3.855  17.611  0.00  0.00    +0.000 A 
ATOM     32  C   UNL     1       3.496   3.971  17.205  0.00  0.00    +0.000 A 
ATOM     33  C   UNL     1       2.617   4.788  17.916  0.00  0.00    +0.000 A 
ATOM     34  F   UNL     1       1.347   4.878  17.494  0.00  0.00    +0.000 F 
ENDBRANCH  25  28
ENDBRANCH   1  26
TORSDOF 7
ENDMDL
MODEL 5
REMARK VINA RESULT:      -7.9      8.212     12.122
REMARK  Name = 
REMARK  7 active torsions:
REMARK  status: ('A' for Active; 'I' for Inactive)
REMARK    1  A    between atoms: C_2  and  C_26
REMARK    2  A    between atoms: N_3  and  C_4
REMARK    3  A    between atoms: C_7  and  C_8
REMARK    4  A    between atoms: N_12  and  C_13
REMARK    5  A    between atoms: C_13  and  C_14
REMARK    6  A    between atoms: C_14  and  C_15
REMARK    7  A    between atoms: C_15  and  N_16
REMARK                            x       y       z     vdW  Elec       q    Type
REMARK                         _______ _______ _______ _____ _____    ______ ____
ROOT
ATOM      1  C   UNL     1       1.416   8.720  20.371  0.00  0.00    +0.000 A 
ATOM      2  C   UNL     1       0.787   9.801  19.757  0.00  0.00    +0.000 A 
ATOM      3  C   UNL     1       0.053  10.724  20.505  0.00  0.00    +0.000 A 
ATOM      4  C   UNL     1      -0.075  10.593  21.892  0.00  0.00    +0.000 A 
ATOM      5  C   UNL     1       0.561   9.510  22.515  0.00  0.00    +0.000 A 
ATOM      6  C   UNL     1       1.291   8.576  21.758  0.00  0.00    +0.000 A 
ENDROOT
BRANCH   4   7
ATOM      7  C   UNL     1      -0.905  11.554  22.607  0.00  0.00    +0.000 A 
ATOM      8  N   UNL     1      -0.612  12.786  22.974  0.00  0.00    +0.000 NA
ATOM      9  N   UNL     1      -1.755  13.304  23.539  0.00  0.00    +0.000 NA
ATOM     10  C   UNL     1      -2.657  12.349  23.502  0.00  0.00    +0.000 A 
ATOM     11  N   UNL     1      -3.941  12.337  23.893  0.00  0.00    +0.000 N 
ATOM     12  O   UNL     1      -2.190  11.199  22.925  0.00  0.00    +0.000 OA
ATOM     13  H   UNL     1      -4.478  11.517  23.637  0.00  0.00    +0.000 HD
BRANCH  11  14
ATOM     14  C   UNL     1      -4.678  13.595  23.880  0.00  0.00    +0.000 C 
BRANCH  14  15
ATOM     15  C   UNL     1      -5.871  13.481  22.928  0.00  0.00    +0.000 C 
BRANCH  15  16
ATOM     16  C   UNL     1      -5.473  13.463  21.446  0.00  0.00    +0.000 C 
BRANCH  16  17
ATOM     17  N   UNL     1      -6.587  13.460  20.486  0.00  0.00    +0.000 NA
ATOM     18  C   UNL     1      -6.181  13.501  19.072  0.00  0.00    +0.000 C 
ATOM     19  C   UNL     1      -5.424  12.248  18.641  0.00  0.00    +0.000 C 
ATOM     20  C   UNL     1      -6.264  11.006  18.892  0.00  0.00    +0.000 C 
ATOM     21  F   UNL     1      -7.275  10.986  17.976  0.00  0.00    +0.000 F 
ATOM     22  C   UNL     1      -6.883  10.965  20.285  0.00  0.00    +0.000 C 
ATOM     23  C   UNL     1      -7.489  12.312  20.690  0.00  0.00    +0.000 C 
ENDBRANCH  16  17
ENDBRANCH  15  16
ENDBRANCH  14  15
ENDBRANCH  11  14
ENDBRANCH   4   7
BRANCH   1  26
ATOM     24  O   UNL     1       2.203   8.715  17.537  0.00  0.00    +0.000 OA
ATOM     25  C   UNL     1       2.478   7.801  18.311  0.00  0.00    +0.000 C 
ATOM     26  N   UNL     1       2.162   7.753  19.659  0.00  0.00    +0.000 N 
ATOM     27  H   UNL     1       2.537   6.982  20.200  0.00  0.00    +0.000 HD
BRANCH  25  28
ATOM     28  C   UNL     1       3.221   6.650  17.742  0.00  0.00    +0.000 A 
ATOM     29  C   UNL     1       4.417   6.913  17.053  0.00  0.00    +0.000 A 
ATOM     30  C   UNL     1       5.186   5.869  16.542  0.00  0.00    +0.000 A 
ATOM     31  C   UNL     1       4.773   4.550  16.719  0.00  0.00    +0.000 A 
ATOM     32  C   UNL     1       3.582   4.279  17.395  0.00  0.00    +0.000 A 
ATOM     33  C   UNL     1       2.810   5.326  17.897  0.00  0.00    +0.000 A 
ATOM     34  F   UNL     1       1.670   5.028  18.538  0.00  0.00    +0.000 F 
ENDBRANCH  25  28
ENDBRANCH   1  26
TORSDOF 7
ENDMDL
MODEL 6
REMARK VINA RESULT:      -7.8      8.526     12.536
REMARK  Name = 
REMARK  7 active torsions:
REMARK  status: ('A' for Active; 'I' for Inactive)
REMARK    1  A    between atoms: C_2  and  C_26
REMARK    2  A    between atoms: N_3  and  C_4
REMARK    3  A    between atoms: C_7  and  C_8
REMARK    4  A    between atoms: N_12  and  C_13
REMARK    5  A    between atoms: C_13  and  C_14
REMARK    6  A    between atoms: C_14  and  C_15
REMARK    7  A    between atoms: C_15  and  N_16
REMARK                            x       y       z     vdW  Elec       q    Type
REMARK                         _______ _______ _______ _____ _____    ______ ____
ROOT
ATOM      1  C   UNL     1       1.313   8.617  20.386  0.00  0.00    +0.000 A 
ATOM      2  C   UNL     1       1.213   8.611  21.777  0.00  0.00    +0.000 A 
ATOM      3  C   UNL     1       0.441   9.564  22.445  0.00  0.00    +0.000 A 
ATOM      4  C   UNL     1      -0.252  10.555  21.743  0.00  0.00    +0.000 A 
ATOM      5  C   UNL     1      -0.160  10.562  20.345  0.00  0.00    +0.000 A 
ATOM      6  C   UNL     1       0.626   9.607  19.674  0.00  0.00    +0.000 A 
ENDROOT
BRANCH   4   7
ATOM      7  C   UNL     1      -0.990  11.556  22.502  0.00  0.00    +0.000 A 
ATOM      8  N   UNL     1      -0.568  12.713  22.973  0.00  0.00    +0.000 NA
ATOM      9  N   UNL     1      -1.664  13.325  23.537  0.00  0.00    +0.000 NA
ATOM     10  C   UNL     1      -2.672  12.493  23.396  0.00  0.00    +0.000 A 
ATOM     11  N   UNL     1      -3.964  12.610  23.741  0.00  0.00    +0.000 N 
ATOM     12  O   UNL     1      -2.322  11.339  22.748  0.00  0.00    +0.000 OA
ATOM     13  H   UNL     1      -4.584  11.882  23.404  0.00  0.00    +0.000 HD
BRANCH  11  14
ATOM     14  C   UNL     1      -4.544  13.946  23.800  0.00  0.00    +0.000 C 
BRANCH  14  15
ATOM     15  C   UNL     1      -5.900  13.949  23.092  0.00  0.00    +0.000 C 
BRANCH  15  16
ATOM     16  C   UNL     1      -6.076  12.792  22.099  0.00  0.00    +0.000 C 
BRANCH  16  17
ATOM     17  N   UNL     1      -5.465  12.988  20.776  0.00  0.00    +0.000 NA
ATOM     18  C   UNL     1      -5.645  11.863  19.844  0.00  0.00    +0.000 C 
ATOM     19  C   UNL     1      -7.106  11.646  19.459  0.00  0.00    +0.000 C 
ATOM     20  C   UNL     1      -7.689  12.910  18.848  0.00  0.00    +0.000 C 
ATOM     21  F   UNL     1      -7.148  13.069  17.605  0.00  0.00    +0.000 F 
ATOM     22  C   UNL     1      -7.392  14.167  19.659  0.00  0.00    +0.000 C 
ATOM     23  C   UNL     1      -5.936  14.225  20.127  0.00  0.00    +0.000 C 
ENDBRANCH  16  17
ENDBRANCH  15  16
ENDBRANCH  14  15
ENDBRANCH  11  14
ENDBRANCH   4   7
BRANCH   1  26
ATOM     24  O   UNL     1       1.471   5.699  20.721  0.00  0.00    +0.000 OA
ATOM     25  C   UNL     1       2.134   6.316  19.890  0.00  0.00    +0.000 C 
ATOM     26  N   UNL     1       2.088   7.682  19.663  0.00  0.00    +0.000 N 
ATOM     27  H   UNL     1       2.618   8.044  18.878  0.00  0.00    +0.000 HD
BRANCH  25  28
ATOM     28  C   UNL     1       3.062   5.516  19.053  0.00  0.00    +0.000 A 
ATOM     29  C   UNL     1       4.404   5.426  19.462  0.00  0.00    +0.000 A 
ATOM     30  C   UNL     1       5.312   4.647  18.747  0.00  0.00    +0.000 A 
ATOM     31  C   UNL     1       4.889   3.943  17.621  0.00  0.00    +0.000 A 
ATOM     32  C   UNL     1       3.560   4.034  17.203  0.00  0.00    +0.000 A 
ATOM     33  C   UNL     1       2.657   4.822  17.914  0.00  0.00    +0.000 A 
ATOM     34  F   UNL     1       1.389   4.887  17.481  0.00  0.00    +0.000 F 
ENDBRANCH  25  28
ENDBRANCH   1  26
TORSDOF 7
ENDMDL
MODEL 7
REMARK VINA RESULT:      -7.7      8.071     12.054
REMARK  Name = 
REMARK  7 active torsions:
REMARK  status: ('A' for Active; 'I' for Inactive)
REMARK    1  A    between atoms: C_2  and  C_26
REMARK    2  A    between atoms: N_3  and  C_4
REMARK    3  A    between atoms: C_7  and  C_8
REMARK    4  A    between atoms: N_12  and  C_13
REMARK    5  A    between atoms: C_13  and  C_14
REMARK    6  A    between atoms: C_14  and  C_15
REMARK    7  A    between atoms: C_15  and  N_16
REMARK                            x       y       z     vdW  Elec       q    Type
REMARK                         _______ _______ _______ _____ _____    ______ ____
ROOT
ATOM      1  C   UNL     1       1.387   8.288  20.482  0.00  0.00    +0.000 A 
ATOM      2  C   UNL     1       1.027   9.315  19.610  0.00  0.00    +0.000 A 
ATOM      3  C   UNL     1       0.466  10.500  20.092  0.00  0.00    +0.000 A 
ATOM      4  C   UNL     1       0.246  10.694  21.459  0.00  0.00    +0.000 A 
ATOM      5  C   UNL     1       0.612   9.666  22.340  0.00  0.00    +0.000 A 
ATOM      6  C   UNL     1       1.168   8.470  21.852  0.00  0.00    +0.000 A 
ENDROOT
BRANCH   4   7
ATOM      7  C   UNL     1      -0.399  11.927  21.892  0.00  0.00    +0.000 A 
ATOM      8  N   UNL     1       0.125  13.129  22.031  0.00  0.00    +0.000 NA
ATOM      9  N   UNL     1      -0.911  13.966  22.377  0.00  0.00    +0.000 NA
ATOM     10  C   UNL     1      -1.988  13.217  22.451  0.00  0.00    +0.000 A 
ATOM     11  N   UNL     1      -3.265  13.537  22.720  0.00  0.00    +0.000 N 
ATOM     12  O   UNL     1      -1.743  11.902  22.158  0.00  0.00    +0.000 OA
ATOM     13  H   UNL     1      -3.947  12.799  22.585  0.00  0.00    +0.000 HD
BRANCH  11  14
ATOM     14  C   UNL     1      -3.723  14.880  22.391  0.00  0.00    +0.000 C 
BRANCH  14  15
ATOM     15  C   UNL     1      -4.131  14.937  20.918  0.00  0.00    +0.000 C 
BRANCH  15  16
ATOM     16  C   UNL     1      -5.398  14.131  20.601  0.00  0.00    +0.000 C 
BRANCH  16  17
ATOM     17  N   UNL     1      -5.233  12.670  20.566  0.00  0.00    +0.000 NA
ATOM     18  C   UNL     1      -6.467  11.906  20.810  0.00  0.00    +0.000 C 
ATOM     19  C   UNL     1      -7.509  12.106  19.713  0.00  0.00    +0.000 C 
ATOM     20  C   UNL     1      -6.935  11.724  18.358  0.00  0.00    +0.000 C 
ATOM     21  F   UNL     1      -6.818  10.365  18.315  0.00  0.00    +0.000 F 
ATOM     22  C   UNL     1      -5.561  12.328  18.091  0.00  0.00    +0.000 C 
ATOM     23  C   UNL     1      -4.631  12.211  19.302  0.00  0.00    +0.000 C 
ENDBRANCH  16  17
ENDBRANCH  15  16
ENDBRANCH  14  15
ENDBRANCH  11  14
ENDBRANCH   4   7
BRANCH   1  26
ATOM     24  O   UNL     1       2.974   7.745  18.066  0.00  0.00    +0.000 OA
ATOM     25  C   UNL     1       2.670   6.874  18.878  0.00  0.00    +0.000 C 
ATOM     26  N   UNL     1       1.949   7.067  20.046  0.00  0.00    +0.000 N 
ATOM     27  H   UNL     1       1.854   6.275  20.672  0.00  0.00    +0.000 HD
BRANCH  25  28
ATOM     28  C   UNL     1       3.122   5.494  18.574  0.00  0.00    +0.000 A 
ATOM     29  C   UNL     1       2.271   4.676  17.812  0.00  0.00    +0.000 A 
ATOM     30  C   UNL     1       2.663   3.388  17.450  0.00  0.00    +0.000 A 
ATOM     31  C   UNL     1       3.912   2.905  17.839  0.00  0.00    +0.000 A 
ATOM     32  C   UNL     1       4.760   3.709  18.604  0.00  0.00    +0.000 A 
ATOM     33  C   UNL     1       4.361   4.993  18.972  0.00  0.00    +0.000 A 
ATOM     34  F   UNL     1       5.200   5.735  19.710  0.00  0.00    +0.000 F 
ENDBRANCH  25  28
ENDBRANCH   1  26
TORSDOF 7
ENDMDL
MODEL 8
REMARK VINA RESULT:      -7.7      1.368      1.725
REMARK  Name = 
REMARK  7 active torsions:
REMARK  status: ('A' for Active; 'I' for Inactive)
REMARK    1  A    between atoms: C_2  and  C_26
REMARK    2  A    between atoms: N_3  and  C_4
REMARK    3  A    between atoms: C_7  and  C_8
REMARK    4  A    between atoms: N_12  and  C_13
REMARK    5  A    between atoms: C_13  and  C_14
REMARK    6  A    between atoms: C_14  and  C_15
REMARK    7  A    between atoms: C_15  and  N_16
REMARK                            x       y       z     vdW  Elec       q    Type
REMARK                         _______ _______ _______ _____ _____    ______ ____
ROOT
ATOM      1  C   UNL     1       9.259  12.075  18.990  0.00  0.00    +0.000 A 
ATOM      2  C   UNL     1       9.639  10.992  19.781  0.00  0.00    +0.000 A 
ATOM      3  C   UNL     1       9.273   9.689  19.436  0.00  0.00    +0.000 A 
ATOM      4  C   UNL     1       8.513   9.430  18.291  0.00  0.00    +0.000 A 
ATOM      5  C   UNL     1       8.134  10.515  17.489  0.00  0.00    +0.000 A 
ATOM      6  C   UNL     1       8.495  11.827  17.843  0.00  0.00    +0.000 A 
ENDROOT
BRANCH   4   7
ATOM      7  C   UNL     1       8.113   8.055  18.020  0.00  0.00    +0.000 A 
ATOM      8  N   UNL     1       8.165   7.006  18.817  0.00  0.00    +0.000 NA
ATOM      9  N   UNL     1       7.591   5.964  18.126  0.00  0.00    +0.000 NA
ATOM     10  C   UNL     1       7.252   6.439  16.948  0.00  0.00    +0.000 A 
ATOM     11  N   UNL     1       6.634   5.854  15.908  0.00  0.00    +0.000 N 
ATOM     12  O   UNL     1       7.555   7.765  16.802  0.00  0.00    +0.000 OA
ATOM     13  H   UNL     1       6.358   6.468  15.151  0.00  0.00    +0.000 HD
BRANCH  11  14
ATOM     14  C   UNL     1       5.724   4.748  16.181  0.00  0.00    +0.000 C 
BRANCH  14  15
ATOM     15  C   UNL     1       4.613   5.218  17.122  0.00  0.00    +0.000 C 
BRANCH  15  16
ATOM     16  C   UNL     1       3.612   4.113  17.488  0.00  0.00    +0.000 C 
BRANCH  16  17
ATOM     17  N   UNL     1       2.294   4.574  17.951  0.00  0.00    +0.000 NA
ATOM     18  C   UNL     1       1.259   3.530  17.997  0.00  0.00    +0.000 C 
ATOM     19  C   UNL     1       1.564   2.444  19.025  0.00  0.00    +0.000 C 
ATOM     20  C   UNL     1       1.732   3.052  20.408  0.00  0.00    +0.000 C 
ATOM     21  F   UNL     1       0.503   3.445  20.851  0.00  0.00    +0.000 F 
ATOM     22  C   UNL     1       2.655   4.266  20.427  0.00  0.00    +0.000 C 
ATOM     23  C   UNL     1       2.370   5.228  19.270  0.00  0.00    +0.000 C 
ENDBRANCH  16  17
ENDBRANCH  15  16
ENDBRANCH  14  15
ENDBRANCH  11  14
ENDBRANCH   4   7
BRANCH   1  26
ATOM     24  O   UNL     1       8.038  13.875  20.970  0.00  0.00    +0.000 OA
ATOM     25  C   UNL     1       8.959  14.217  20.232  0.00  0.00    +0.000 C 
ATOM     26  N   UNL     1       9.594  13.413  19.299  0.00  0.00    +0.000 N 
ATOM     27  H   UNL     1      10.405  13.797  18.825  0.00  0.00    +0.000 HD
BRANCH  25  28
ATOM     28  C   UNL     1       9.430  15.618  20.360  0.00  0.00    +0.000 A 
ATOM     29  C   UNL     1      10.660  15.843  21.000  0.00  0.00    +0.000 A 
ATOM     30  C   UNL     1      11.179  17.132  21.105  0.00  0.00    +0.000 A 
ATOM     31  C   UNL     1      10.481  18.210  20.565  0.00  0.00    +0.000 A 
ATOM     32  C   UNL     1       9.253  17.997  19.934  0.00  0.00    +0.000 A 
ATOM     33  C   UNL     1       8.731  16.707  19.840  0.00  0.00    +0.000 A 
ATOM     34  F   UNL     1       7.548  16.541  19.230  0.00  0.00    +0.000 F 
ENDBRANCH  25  28
ENDBRANCH   1  26
TORSDOF 7
ENDMDL
MODEL 9
REMARK VINA RESULT:      -7.7      7.470      8.792
REMARK  Name = 
REMARK  7 active torsions:
REMARK  status: ('A' for Active; 'I' for Inactive)
REMARK    1  A    between atoms: C_2  and  C_26
REMARK    2  A    between atoms: N_3  and  C_4
REMARK    3  A    between atoms: C_7  and  C_8
REMARK    4  A    between atoms: N_12  and  C_13
REMARK    5  A    between atoms: C_13  and  C_14
REMARK    6  A    between atoms: C_14  and  C_15
REMARK    7  A    between atoms: C_15  and  N_16
REMARK                            x       y       z     vdW  Elec       q    Type
REMARK                         _______ _______ _______ _____ _____    ______ ____
ROOT
ATOM      1  C   UNL     1      -0.639  12.312  21.171  0.00  0.00    +0.000 A 
ATOM      2  C   UNL     1      -0.085  11.159  21.726  0.00  0.00    +0.000 A 
ATOM      3  C   UNL     1       0.627  10.254  20.935  0.00  0.00    +0.000 A 
ATOM      4  C   UNL     1       0.805  10.473  19.566  0.00  0.00    +0.000 A 
ATOM      5  C   UNL     1       0.255  11.634  19.005  0.00  0.00    +0.000 A 
ATOM      6  C   UNL     1      -0.470  12.540  19.800  0.00  0.00    +0.000 A 
ENDROOT
BRANCH   4   7
ATOM      7  C   UNL     1       1.505   9.461  18.786  0.00  0.00    +0.000 A 
ATOM      8  N   UNL     1       1.905   9.515  17.530  0.00  0.00    +0.000 NA
ATOM      9  N   UNL     1       2.592   8.347  17.292  0.00  0.00    +0.000 NA
ATOM     10  C   UNL     1       2.544   7.650  18.405  0.00  0.00    +0.000 A 
ATOM     11  N   UNL     1       3.077   6.458  18.720  0.00  0.00    +0.000 N 
ATOM     12  O   UNL     1       1.865   8.292  19.405  0.00  0.00    +0.000 OA
ATOM     13  H   UNL     1       3.015   6.186  19.695  0.00  0.00    +0.000 HD
BRANCH  11  14
ATOM     14  C   UNL     1       4.291   6.041  18.030  0.00  0.00    +0.000 C 
BRANCH  14  15
ATOM     15  C   UNL     1       4.091   4.644  17.439  0.00  0.00    +0.000 C 
BRANCH  15  16
ATOM     16  C   UNL     1       2.750   4.003  17.819  0.00  0.00    +0.000 C 
BRANCH  16  17
ATOM     17  N   UNL     1       2.836   2.748  18.583  0.00  0.00    +0.000 NA
ATOM     18  C   UNL     1       3.570   2.852  19.854  0.00  0.00    +0.000 C 
ATOM     19  C   UNL     1       2.871   3.759  20.864  0.00  0.00    +0.000 C 
ATOM     20  C   UNL     1       1.458   3.267  21.132  0.00  0.00    +0.000 C 
ATOM     21  F   UNL     1       1.540   2.124  21.872  0.00  0.00    +0.000 F 
ATOM     22  C   UNL     1       0.674   2.956  19.862  0.00  0.00    +0.000 C 
ATOM     23  C   UNL     1       1.506   2.169  18.845  0.00  0.00    +0.000 C 
ENDBRANCH  16  17
ENDBRANCH  15  16
ENDBRANCH  14  15
ENDBRANCH  11  14
ENDBRANCH   4   7
BRANCH   1  26
ATOM     24  O   UNL     1       0.335  14.658  22.655  0.00  0.00    +0.000 OA
ATOM     25  C   UNL     1      -0.848  14.329  22.623  0.00  0.00    +0.000 C 
ATOM     26  N   UNL     1      -1.376  13.255  21.924  0.00  0.00    +0.000 N 
ATOM     27  H   UNL     1      -2.385  13.158  21.907  0.00  0.00    +0.000 HD
BRANCH  25  28
ATOM     28  C   UNL     1      -1.793  15.166  23.403  0.00  0.00    +0.000 A 
ATOM     29  C   UNL     1      -2.137  14.739  24.696  0.00  0.00    +0.000 A 
ATOM     30  C   UNL     1      -2.978  15.510  25.497  0.00  0.00    +0.000 A 
ATOM     31  C   UNL     1      -3.479  16.719  25.018  0.00  0.00    +0.000 A 
ATOM     32  C   UNL     1      -3.149  17.147  23.731  0.00  0.00    +0.000 A 
ATOM     33  C   UNL     1      -2.315  16.369  22.928  0.00  0.00    +0.000 A 
ATOM     34  F   UNL     1      -2.022  16.810  21.696  0.00  0.00    +0.000 F 
ENDBRANCH  25  28
ENDBRANCH   1  26
TORSDOF 7
ENDMDL
