MODEL 1
REMARK VINA RESULT:      -8.6      0.000      0.000
REMARK  Name = 
REMARK  6 active torsions:
REMARK  status: ('A' for Active; 'I' for Inactive)
REMARK    1  A    between atoms: C_1  and  C_2
REMARK    2  A    between atoms: C_5  and  C_6
REMARK    3  A    between atoms: C_6  and  N_7
REMARK    4  A    between atoms: C_8  and  C_10
REMARK    5  A    between atoms: C_13  and  S_14
REMARK    6  A    between atoms: S_14  and  N_17
REMARK                            x       y       z     vdW  Elec       q    Type
REMARK                         _______ _______ _______ _____ _____    ______ ____
ROOT
ATOM      1  C   UNL     1       1.195   9.005  19.114  0.00  0.00    +0.000 A 
ATOM      2  C   UNL     1       1.476   8.109  20.157  0.00  0.00    +0.000 A 
ATOM      3  C   UNL     1       2.376   7.057  19.964  0.00  0.00    +0.000 A 
ATOM      4  C   UNL     1       2.950   6.867  18.704  0.00  0.00    +0.000 A 
ATOM      5  C   UNL     1       2.748   7.805  17.687  0.00  0.00    +0.000 A 
ATOM      6  C   UNL     1       1.854   8.861  17.885  0.00  0.00    +0.000 A 
ENDROOT
BRANCH   1   8
ATOM      7  N   UNL     1      -0.104  10.897  18.293  0.00  0.00    +0.000 N 
ATOM      8  C   UNL     1       0.153  10.046  19.338  0.00  0.00    +0.000 C 
ATOM      9  O   UNL     1      -0.424  10.119  20.417  0.00  0.00    +0.000 OA
ATOM     10  H   UNL     1       0.435  10.875  17.438  0.00  0.00    +0.000 HD
BRANCH   7  11
ATOM     11  C   UNL     1      -1.124  11.913  18.385  0.00  0.00    +0.000 C 
BRANCH  11  16
ATOM     12  C   UNL     1      -3.340  10.137  14.453  0.00  0.00    +0.000 C 
ATOM     13  C   UNL     1      -3.327  10.694  15.822  0.00  0.00    +0.000 A 
ATOM     14  C   UNL     1      -4.315  10.974  16.736  0.00  0.00    +0.000 A 
ATOM     15  C   UNL     1      -3.665  11.492  17.882  0.00  0.00    +0.000 A 
ATOM     16  C   UNL     1      -2.315  11.497  17.598  0.00  0.00    +0.000 A 
ATOM     17  O   UNL     1      -2.104  11.009  16.337  0.00  0.00    +0.000 OA
ENDBRANCH  11  16
ENDBRANCH   7  11
ENDBRANCH   1   8
BRANCH   4  18
ATOM     18  S   UNL     1       3.958   5.435  18.385  0.00  0.00    +0.000 S 
ATOM     19  O   UNL     1       4.439   5.562  17.025  0.00  0.00    +0.000 OA
ATOM     20  O   UNL     1       4.877   5.291  19.495  0.00  0.00    +0.000 OA
BRANCH  18  21
ATOM     21  N   UNL     1       2.911   4.125  18.425  0.00  0.00    +0.000 NA
ATOM     22  C   UNL     1       1.514   4.233  17.930  0.00  0.00    +0.000 C 
ATOM     23  C   UNL     1       0.760   3.295  18.914  0.00  0.00    +0.000 C 
ATOM     24  C   UNL     1       1.778   2.170  19.052  0.00  0.00    +0.000 C 
ATOM     25  C   UNL     1       2.867   3.128  19.547  0.00  0.00    +0.000 C 
ATOM     26  C   UNL     1       2.132   3.691  20.770  0.00  0.00    +0.000 C 
ATOM     27  N   UNL     1       0.732   3.858  20.298  0.00  0.00    +0.000 NA
ATOM     28  H   UNL     1       0.507   4.852  20.263  0.00  0.00    +0.000 HD
ENDBRANCH  18  21
ENDBRANCH   4  18
TORSDOF 5
ENDMDL
MODEL 2
REMARK VINA RESULT:      -8.4      1.025      1.463
REMARK  Name = 
REMARK  6 active torsions:
REMARK  status: ('A' for Active; 'I' for Inactive)
REMARK    1  A    between atoms: C_1  and  C_2
REMARK    2  A    between atoms: C_5  and  C_6
REMARK    3  A    between atoms: C_6  and  N_7
REMARK    4  A    between atoms: C_8  and  C_10
REMARK    5  A    between atoms: C_13  and  S_14
REMARK    6  A    between atoms: S_14  and  N_17
REMARK                            x       y       z     vdW  Elec       q    Type
REMARK                         _______ _______ _______ _____ _____    ______ ____
ROOT
ATOM      1  C   UNL     1       1.274   9.478  18.912  0.00  0.00    +0.000 A 
ATOM      2  C   UNL     1       1.309   8.618  20.020  0.00  0.00    +0.000 A 
ATOM      3  C   UNL     1       2.062   7.441  19.979  0.00  0.00    +0.000 A 
ATOM      4  C   UNL     1       2.733   7.096  18.803  0.00  0.00    +0.000 A 
ATOM      5  C   UNL     1       2.779   7.988  17.728  0.00  0.00    +0.000 A 
ATOM      6  C   UNL     1       2.032   9.168  17.774  0.00  0.00    +0.000 A 
ENDROOT
BRANCH   1   8
ATOM      7  N   UNL     1      -0.962  10.421  19.146  0.00  0.00    +0.000 N 
ATOM      8  C   UNL     1       0.377  10.666  18.968  0.00  0.00    +0.000 C 
ATOM      9  O   UNL     1       0.838  11.795  18.850  0.00  0.00    +0.000 OA
ATOM     10  H   UNL     1      -1.337   9.482  19.162  0.00  0.00    +0.000 HD
BRANCH   7  11
ATOM     11  C   UNL     1      -1.915  11.498  19.259  0.00  0.00    +0.000 C 
BRANCH  11  16
ATOM     12  C   UNL     1      -3.335  10.410  14.750  0.00  0.00    +0.000 C 
ATOM     13  C   UNL     1      -3.565  10.907  16.123  0.00  0.00    +0.000 A 
ATOM     14  C   UNL     1      -4.675  11.385  16.779  0.00  0.00    +0.000 A 
ATOM     15  C   UNL     1      -4.258  11.701  18.094  0.00  0.00    +0.000 A 
ATOM     16  C   UNL     1      -2.914  11.397  18.162  0.00  0.00    +0.000 A 
ATOM     17  O   UNL     1      -2.486  10.911  16.956  0.00  0.00    +0.000 OA
ENDBRANCH  11  16
ENDBRANCH   7  11
ENDBRANCH   1   8
BRANCH   4  18
ATOM     18  S   UNL     1       3.550   5.520  18.667  0.00  0.00    +0.000 S 
ATOM     19  O   UNL     1       3.866   5.337  17.266  0.00  0.00    +0.000 OA
ATOM     20  O   UNL     1       4.583   5.474  19.681  0.00  0.00    +0.000 OA
BRANCH  18  21
ATOM     21  N   UNL     1       2.395   4.374  19.074  0.00  0.00    +0.000 NA
ATOM     22  C   UNL     1       2.550   3.507  20.270  0.00  0.00    +0.000 C 
ATOM     23  C   UNL     1       1.917   2.176  19.779  0.00  0.00    +0.000 C 
ATOM     24  C   UNL     1       0.740   2.716  18.975  0.00  0.00    +0.000 C 
ATOM     25  C   UNL     1       1.655   3.543  18.065  0.00  0.00    +0.000 C 
ATOM     26  C   UNL     1       2.529   2.402  17.529  0.00  0.00    +0.000 C 
ATOM     27  N   UNL     1       2.747   1.532  18.716  0.00  0.00    +0.000 NA
ATOM     28  H   UNL     1       3.731   1.565  18.978  0.00  0.00    +0.000 HD
ENDBRANCH  18  21
ENDBRANCH   4  18
TORSDOF 5
ENDMDL
MODEL 3
REMARK VINA RESULT:      -8.3      0.767      1.232
REMARK  Name = 
REMARK  6 active torsions:
REMARK  status: ('A' for Active; 'I' for Inactive)
REMARK    1  A    between atoms: C_1  and  C_2
REMARK    2  A    between atoms: C_5  and  C_6
REMARK    3  A    between atoms: C_6  and  N_7
REMARK    4  A    between atoms: C_8  and  C_10
REMARK    5  A    between atoms: C_13  and  S_14
REMARK    6  A    between atoms: S_14  and  N_17
REMARK                            x       y       z     vdW  Elec       q    Type
REMARK                         _______ _______ _______ _____ _____    ______ ____
ROOT
ATOM      1  C   UNL     1       1.078   9.144  19.192  0.00  0.00    +0.000 A 
ATOM      2  C   UNL     1       1.332   8.342  20.315  0.00  0.00    +0.000 A 
ATOM      3  C   UNL     1       2.193   7.244  20.220  0.00  0.00    +0.000 A 
ATOM      4  C   UNL     1       2.754   6.916  18.983  0.00  0.00    +0.000 A 
ATOM      5  C   UNL     1       2.580   7.760  17.882  0.00  0.00    +0.000 A 
ATOM      6  C   UNL     1       1.725   8.861  17.982  0.00  0.00    +0.000 A 
ENDROOT
BRANCH   1   8
ATOM      7  N   UNL     1      -0.155  10.999  18.200  0.00  0.00    +0.000 N 
ATOM      8  C   UNL     1       0.074  10.238  19.319  0.00  0.00    +0.000 C 
ATOM      9  O   UNL     1      -0.497  10.431  20.386  0.00  0.00    +0.000 OA
ATOM     10  H   UNL     1       0.382  10.878  17.351  0.00  0.00    +0.000 HD
BRANCH   7  11
ATOM     11  C   UNL     1      -1.137  12.055  18.197  0.00  0.00    +0.000 C 
BRANCH  11  16
ATOM     12  C   UNL     1      -3.513  10.126  14.434  0.00  0.00    +0.000 C 
ATOM     13  C   UNL     1      -3.442  10.726  15.783  0.00  0.00    +0.000 A 
ATOM     14  C   UNL     1      -4.389  11.023  16.735  0.00  0.00    +0.000 A 
ATOM     15  C   UNL     1      -3.693  11.585  17.831  0.00  0.00    +0.000 A 
ATOM     16  C   UNL     1      -2.358  11.599  17.482  0.00  0.00    +0.000 A 
ATOM     17  O   UNL     1      -2.201  11.074  16.228  0.00  0.00    +0.000 OA
ENDBRANCH  11  16
ENDBRANCH   7  11
ENDBRANCH   1   8
BRANCH   4  18
ATOM     18  S   UNL     1       3.708   5.425  18.799  0.00  0.00    +0.000 S 
ATOM     19  O   UNL     1       3.608   5.039  17.407  0.00  0.00    +0.000 OA
ATOM     20  O   UNL     1       4.995   5.650  19.425  0.00  0.00    +0.000 OA
BRANCH  18  21
ATOM     21  N   UNL     1       2.908   4.259  19.701  0.00  0.00    +0.000 NA
ATOM     22  C   UNL     1       3.500   2.917  19.934  0.00  0.00    +0.000 C 
ATOM     23  C   UNL     1       2.237   2.010  19.924  0.00  0.00    +0.000 C 
ATOM     24  C   UNL     1       1.253   2.906  20.667  0.00  0.00    +0.000 C 
ATOM     25  C   UNL     1       1.422   4.044  19.653  0.00  0.00    +0.000 C 
ATOM     26  C   UNL     1       1.007   3.281  18.389  0.00  0.00    +0.000 C 
ATOM     27  N   UNL     1       1.623   1.939  18.563  0.00  0.00    +0.000 NA
ATOM     28  H   UNL     1       2.351   1.812  17.861  0.00  0.00    +0.000 HD
ENDBRANCH  18  21
ENDBRANCH   4  18
TORSDOF 5
ENDMDL
MODEL 4
REMARK VINA RESULT:      -8.3      1.056      1.779
REMARK  Name = 
REMARK  6 active torsions:
REMARK  status: ('A' for Active; 'I' for Inactive)
REMARK    1  A    between atoms: C_1  and  C_2
REMARK    2  A    between atoms: C_5  and  C_6
REMARK    3  A    between atoms: C_6  and  N_7
REMARK    4  A    between atoms: C_8  and  C_10
REMARK    5  A    between atoms: C_13  and  S_14
REMARK    6  A    between atoms: S_14  and  N_17
REMARK                            x       y       z     vdW  Elec       q    Type
REMARK                         _______ _______ _______ _____ _____    ______ ____
ROOT
ATOM      1  C   UNL     1       1.148   9.335  19.134  0.00  0.00    +0.000 A 
ATOM      2  C   UNL     1       1.342   8.472  20.223  0.00  0.00    +0.000 A 
ATOM      3  C   UNL     1       2.143   7.333  20.091  0.00  0.00    +0.000 A 
ATOM      4  C   UNL     1       2.702   7.028  18.847  0.00  0.00    +0.000 A 
ATOM      5  C   UNL     1       2.591   7.927  17.782  0.00  0.00    +0.000 A 
ATOM      6  C   UNL     1       1.796   9.069  17.920  0.00  0.00    +0.000 A 
ENDROOT
BRANCH   1   8
ATOM      7  N   UNL     1      -0.342  10.994  18.149  0.00  0.00    +0.000 N 
ATOM      8  C   UNL     1       0.205  10.477  19.296  0.00  0.00    +0.000 C 
ATOM      9  O   UNL     1      -0.045  10.916  20.412  0.00  0.00    +0.000 OA
ATOM     10  H   UNL     1      -0.065  10.672  17.231  0.00  0.00    +0.000 HD
BRANCH   7  11
ATOM     11  C   UNL     1      -1.301  12.071  18.193  0.00  0.00    +0.000 C 
BRANCH  11  16
ATOM     12  C   UNL     1      -6.104  11.481  17.852  0.00  0.00    +0.000 C 
ATOM     13  C   UNL     1      -4.722  11.384  17.336  0.00  0.00    +0.000 A 
ATOM     14  C   UNL     1      -4.186  10.929  16.154  0.00  0.00    +0.000 A 
ATOM     15  C   UNL     1      -2.786  11.103  16.256  0.00  0.00    +0.000 A 
ATOM     16  C   UNL     1      -2.549  11.654  17.499  0.00  0.00    +0.000 A 
ATOM     17  O   UNL     1      -3.733  11.827  18.163  0.00  0.00    +0.000 OA
ENDBRANCH  11  16
ENDBRANCH   7  11
ENDBRANCH   1   8
BRANCH   4  18
ATOM     18  S   UNL     1       3.576   5.496  18.609  0.00  0.00    +0.000 S 
ATOM     19  O   UNL     1       3.834   5.383  17.189  0.00  0.00    +0.000 OA
ATOM     20  O   UNL     1       4.656   5.454  19.574  0.00  0.00    +0.000 OA
BRANCH  18  21
ATOM     21  N   UNL     1       2.489   4.285  19.019  0.00  0.00    +0.000 NA
ATOM     22  C   UNL     1       2.724   3.394  20.184  0.00  0.00    +0.000 C 
ATOM     23  C   UNL     1       2.136   2.049  19.673  0.00  0.00    +0.000 C 
ATOM     24  C   UNL     1       0.909   2.555  18.924  0.00  0.00    +0.000 C 
ATOM     25  C   UNL     1       1.755   3.449  18.010  0.00  0.00    +0.000 C 
ATOM     26  C   UNL     1       2.662   2.366  17.413  0.00  0.00    +0.000 C 
ATOM     27  N   UNL     1       2.959   1.475  18.566  0.00  0.00    +0.000 NA
ATOM     28  H   UNL     1       3.949   1.546  18.798  0.00  0.00    +0.000 HD
ENDBRANCH  18  21
ENDBRANCH   4  18
TORSDOF 5
ENDMDL
MODEL 5
REMARK VINA RESULT:      -8.2      0.685      1.103
REMARK  Name = 
REMARK  6 active torsions:
REMARK  status: ('A' for Active; 'I' for Inactive)
REMARK    1  A    between atoms: C_1  and  C_2
REMARK    2  A    between atoms: C_5  and  C_6
REMARK    3  A    between atoms: C_6  and  N_7
REMARK    4  A    between atoms: C_8  and  C_10
REMARK    5  A    between atoms: C_13  and  S_14
REMARK    6  A    between atoms: S_14  and  N_17
REMARK                            x       y       z     vdW  Elec       q    Type
REMARK                         _______ _______ _______ _____ _____    ______ ____
ROOT
ATOM      1  C   UNL     1       1.431   8.782  19.094  0.00  0.00    +0.000 A 
ATOM      2  C   UNL     1       1.676   7.877  20.138  0.00  0.00    +0.000 A 
ATOM      3  C   UNL     1       2.536   6.791  19.947  0.00  0.00    +0.000 A 
ATOM      4  C   UNL     1       3.104   6.579  18.688  0.00  0.00    +0.000 A 
ATOM      5  C   UNL     1       2.940   7.523  17.671  0.00  0.00    +0.000 A 
ATOM      6  C   UNL     1       2.086   8.612  17.867  0.00  0.00    +0.000 A 
ENDROOT
BRANCH   1   8
ATOM      7  N   UNL     1       0.151  10.676  18.247  0.00  0.00    +0.000 N 
ATOM      8  C   UNL     1       0.429   9.862  19.317  0.00  0.00    +0.000 C 
ATOM      9  O   UNL     1      -0.099   9.998  20.414  0.00  0.00    +0.000 OA
ATOM     10  H   UNL     1       0.653  10.601  17.372  0.00  0.00    +0.000 HD
BRANCH   7  11
ATOM     11  C   UNL     1      -0.835  11.725  18.337  0.00  0.00    +0.000 C 
BRANCH  11  16
ATOM     12  C   UNL     1      -5.561  11.990  17.277  0.00  0.00    +0.000 C 
ATOM     13  C   UNL     1      -4.202  11.431  17.119  0.00  0.00    +0.000 A 
ATOM     14  C   UNL     1      -3.674  10.450  16.313  0.00  0.00    +0.000 A 
ATOM     15  C   UNL     1      -2.295  10.376  16.624  0.00  0.00    +0.000 A 
ATOM     16  C   UNL     1      -2.064  11.318  17.605  0.00  0.00    +0.000 A 
ATOM     17  O   UNL     1      -3.230  11.965  17.911  0.00  0.00    +0.000 OA
ENDBRANCH  11  16
ENDBRANCH   7  11
ENDBRANCH   1   8
BRANCH   4  18
ATOM     18  S   UNL     1       4.057   5.110  18.372  0.00  0.00    +0.000 S 
ATOM     19  O   UNL     1       4.506   5.195  16.998  0.00  0.00    +0.000 OA
ATOM     20  O   UNL     1       5.000   4.957  19.461  0.00  0.00    +0.000 OA
BRANCH  18  21
ATOM     21  N   UNL     1       2.971   3.835  18.465  0.00  0.00    +0.000 NA
ATOM     22  C   UNL     1       1.564   3.979  18.008  0.00  0.00    +0.000 C 
ATOM     23  C   UNL     1       0.809   3.083  19.029  0.00  0.00    +0.000 C 
ATOM     24  C   UNL     1       1.795   1.928  19.159  0.00  0.00    +0.000 C 
ATOM     25  C   UNL     1       2.928   2.859  19.605  0.00  0.00    +0.000 C 
ATOM     26  C   UNL     1       2.246   3.466  20.838  0.00  0.00    +0.000 C 
ATOM     27  N   UNL     1       0.839   3.670  20.403  0.00  0.00    +0.000 NA
ATOM     28  H   UNL     1       0.645   4.670  20.356  0.00  0.00    +0.000 HD
ENDBRANCH  18  21
ENDBRANCH   4  18
TORSDOF 5
ENDMDL
MODEL 6
REMARK VINA RESULT:      -8.1      0.728      1.196
REMARK  Name = 
REMARK  6 active torsions:
REMARK  status: ('A' for Active; 'I' for Inactive)
REMARK    1  A    between atoms: C_1  and  C_2
REMARK    2  A    between atoms: C_5  and  C_6
REMARK    3  A    between atoms: C_6  and  N_7
REMARK    4  A    between atoms: C_8  and  C_10
REMARK    5  A    between atoms: C_13  and  S_14
REMARK    6  A    between atoms: S_14  and  N_17
REMARK                            x       y       z     vdW  Elec       q    Type
REMARK                         _______ _______ _______ _____ _____    ______ ____
ROOT
ATOM      1  C   UNL     1       1.515   8.969  18.912  0.00  0.00    +0.000 A 
ATOM      2  C   UNL     1       2.194   8.731  17.707  0.00  0.00    +0.000 A 
ATOM      3  C   UNL     1       2.999   7.597  17.559  0.00  0.00    +0.000 A 
ATOM      4  C   UNL     1       3.171   6.732  18.643  0.00  0.00    +0.000 A 
ATOM      5  C   UNL     1       2.429   6.910  19.814  0.00  0.00    +0.000 A 
ATOM      6  C   UNL     1       1.618   8.040  19.956  0.00  0.00    +0.000 A 
ENDROOT
BRANCH   1   8
ATOM      7  N   UNL     1      -0.614  10.152  18.995  0.00  0.00    +0.000 N 
ATOM      8  C   UNL     1       0.754  10.242  19.054  0.00  0.00    +0.000 C 
ATOM      9  O   UNL     1       1.347  11.302  19.206  0.00  0.00    +0.000 OA
ATOM     10  H   UNL     1      -1.087   9.282  18.790  0.00  0.00    +0.000 HD
BRANCH   7  11
ATOM     11  C   UNL     1      -1.452  11.315  19.165  0.00  0.00    +0.000 C 
BRANCH  11  16
ATOM     12  C   UNL     1      -3.301  10.325  14.791  0.00  0.00    +0.000 C 
ATOM     13  C   UNL     1      -3.378  10.859  16.167  0.00  0.00    +0.000 A 
ATOM     14  C   UNL     1      -4.383  11.456  16.892  0.00  0.00    +0.000 A 
ATOM     15  C   UNL     1      -3.841  11.743  18.168  0.00  0.00    +0.000 A 
ATOM     16  C   UNL     1      -2.533  11.304  18.145  0.00  0.00    +0.000 A 
ATOM     17  O   UNL     1      -2.247  10.763  16.921  0.00  0.00    +0.000 OA
ENDBRANCH  11  16
ENDBRANCH   7  11
ENDBRANCH   1   8
BRANCH   4  18
ATOM     18  S   UNL     1       4.327   5.383  18.538  0.00  0.00    +0.000 S 
ATOM     19  O   UNL     1       5.028   5.536  17.280  0.00  0.00    +0.000 OA
ATOM     20  O   UNL     1       5.044   5.323  19.794  0.00  0.00    +0.000 OA
BRANCH  18  21
ATOM     21  N   UNL     1       3.394   3.993  18.425  0.00  0.00    +0.000 NA
ATOM     22  C   UNL     1       2.095   3.987  17.705  0.00  0.00    +0.000 C 
ATOM     23  C   UNL     1       1.264   2.994  18.564  0.00  0.00    +0.000 C 
ATOM     24  C   UNL     1       2.331   1.955  18.886  0.00  0.00    +0.000 C 
ATOM     25  C   UNL     1       3.244   2.998  19.539  0.00  0.00    +0.000 C 
ATOM     26  C   UNL     1       2.274   3.503  20.615  0.00  0.00    +0.000 C 
ATOM     27  N   UNL     1       0.963   3.556  19.916  0.00  0.00    +0.000 NA
ATOM     28  H   UNL     1       0.670   4.529  19.829  0.00  0.00    +0.000 HD
ENDBRANCH  18  21
ENDBRANCH   4  18
TORSDOF 5
ENDMDL
MODEL 7
REMARK VINA RESULT:      -8.0      2.168      2.941
REMARK  Name = 
REMARK  6 active torsions:
REMARK  status: ('A' for Active; 'I' for Inactive)
REMARK    1  A    between atoms: C_1  and  C_2
REMARK    2  A    between atoms: C_5  and  C_6
REMARK    3  A    between atoms: C_6  and  N_7
REMARK    4  A    between atoms: C_8  and  C_10
REMARK    5  A    between atoms: C_13  and  S_14
REMARK    6  A    between atoms: S_14  and  N_17
REMARK                            x       y       z     vdW  Elec       q    Type
REMARK                         _______ _______ _______ _____ _____    ______ ____
ROOT
ATOM      1  C   UNL     1       1.378   9.298  18.853  0.00  0.00    +0.000 A 
ATOM      2  C   UNL     1       1.406   8.509  20.013  0.00  0.00    +0.000 A 
ATOM      3  C   UNL     1       2.144   7.322  20.045  0.00  0.00    +0.000 A 
ATOM      4  C   UNL     1       2.809   6.896  18.892  0.00  0.00    +0.000 A 
ATOM      5  C   UNL     1       2.863   7.718  17.763  0.00  0.00    +0.000 A 
ATOM      6  C   UNL     1       2.130   8.908  17.736  0.00  0.00    +0.000 A 
ENDROOT
BRANCH   1   8
ATOM      7  N   UNL     1      -0.848  10.279  19.020  0.00  0.00    +0.000 N 
ATOM      8  C   UNL     1       0.495  10.498  18.836  0.00  0.00    +0.000 C 
ATOM      9  O   UNL     1       0.971  11.612  18.657  0.00  0.00    +0.000 OA
ATOM     10  H   UNL     1      -1.235   9.347  19.088  0.00  0.00    +0.000 HD
BRANCH   7  11
ATOM     11  C   UNL     1      -1.788  11.372  19.066  0.00  0.00    +0.000 C 
BRANCH  11  16
ATOM     12  C   UNL     1      -3.060  10.173  14.541  0.00  0.00    +0.000 C 
ATOM     13  C   UNL     1      -3.333  10.711  15.891  0.00  0.00    +0.000 A 
ATOM     14  C   UNL     1      -4.460  11.219  16.494  0.00  0.00    +0.000 A 
ATOM     15  C   UNL     1      -4.086  11.567  17.813  0.00  0.00    +0.000 A 
ATOM     16  C   UNL     1      -2.749  11.251  17.937  0.00  0.00    +0.000 A 
ATOM     17  O   UNL     1      -2.284  10.727  16.762  0.00  0.00    +0.000 OA
ENDBRANCH  11  16
ENDBRANCH   7  11
ENDBRANCH   1   8
BRANCH   4  18
ATOM     18  S   UNL     1       3.606   5.305  18.854  0.00  0.00    +0.000 S 
ATOM     19  O   UNL     1       4.696   5.365  19.805  0.00  0.00    +0.000 OA
ATOM     20  O   UNL     1       2.573   4.296  18.959  0.00  0.00    +0.000 OA
BRANCH  18  21
ATOM     21  N   UNL     1       4.283   5.174  17.325  0.00  0.00    +0.000 NA
ATOM     22  C   UNL     1       4.459   3.855  16.665  0.00  0.00    +0.000 C 
ATOM     23  C   UNL     1       5.790   4.066  15.890  0.00  0.00    +0.000 C 
ATOM     24  C   UNL     1       5.602   5.501  15.413  0.00  0.00    +0.000 C 
ATOM     25  C   UNL     1       5.425   6.023  16.844  0.00  0.00    +0.000 C 
ATOM     26  C   UNL     1       6.762   5.545  17.424  0.00  0.00    +0.000 C 
ATOM     27  N   UNL     1       6.952   4.199  16.820  0.00  0.00    +0.000 NA
ATOM     28  H   UNL     1       6.892   3.493  17.552  0.00  0.00    +0.000 HD
ENDBRANCH  18  21
ENDBRANCH   4  18
TORSDOF 5
ENDMDL
MODEL 8
REMARK VINA RESULT:      -8.0      1.227      1.841
REMARK  Name = 
REMARK  6 active torsions:
REMARK  status: ('A' for Active; 'I' for Inactive)
REMARK    1  A    between atoms: C_1  and  C_2
REMARK    2  A    between atoms: C_5  and  C_6
REMARK    3  A    between atoms: C_6  and  N_7
REMARK    4  A    between atoms: C_8  and  C_10
REMARK    5  A    between atoms: C_13  and  S_14
REMARK    6  A    between atoms: S_14  and  N_17
REMARK                            x       y       z     vdW  Elec       q    Type
REMARK                         _______ _______ _______ _____ _____    ______ ____
ROOT
ATOM      1  C   UNL     1       1.744   8.388  19.072  0.00  0.00    +0.000 A 
ATOM      2  C   UNL     1       2.465   8.378  17.869  0.00  0.00    +0.000 A 
ATOM      3  C   UNL     1       3.409   7.377  17.618  0.00  0.00    +0.000 A 
ATOM      4  C   UNL     1       3.672   6.419  18.600  0.00  0.00    +0.000 A 
ATOM      5  C   UNL     1       2.895   6.367  19.762  0.00  0.00    +0.000 A 
ATOM      6  C   UNL     1       1.948   7.364  20.007  0.00  0.00    +0.000 A 
ENDROOT
BRANCH   1   8
ATOM      7  N   UNL     1       0.560  10.365  18.278  0.00  0.00    +0.000 N 
ATOM      8  C   UNL     1       0.827   9.533  19.336  0.00  0.00    +0.000 C 
ATOM      9  O   UNL     1       0.355   9.701  20.454  0.00  0.00    +0.000 OA
ATOM     10  H   UNL     1       1.018  10.259  17.383  0.00  0.00    +0.000 HD
BRANCH   7  11
ATOM     11  C   UNL     1      -0.350  11.478  18.409  0.00  0.00    +0.000 C 
BRANCH  11  16
ATOM     12  C   UNL     1      -5.161  11.948  18.003  0.00  0.00    +0.000 C 
ATOM     13  C   UNL     1      -3.869  11.294  17.708  0.00  0.00    +0.000 A 
ATOM     14  C   UNL     1      -3.513  10.217  16.931  0.00  0.00    +0.000 A 
ATOM     15  C   UNL     1      -2.109  10.082  17.051  0.00  0.00    +0.000 A 
ATOM     16  C   UNL     1      -1.691  11.088  17.898  0.00  0.00    +0.000 A 
ATOM     17  O   UNL     1      -2.766  11.831  18.303  0.00  0.00    +0.000 OA
ENDBRANCH  11  16
ENDBRANCH   7  11
ENDBRANCH   1   8
BRANCH   4  18
ATOM     18  S   UNL     1       4.990   5.244  18.377  0.00  0.00    +0.000 S 
ATOM     19  O   UNL     1       5.665   5.607  17.148  0.00  0.00    +0.000 OA
ATOM     20  O   UNL     1       5.710   5.151  19.630  0.00  0.00    +0.000 OA
BRANCH  18  21
ATOM     21  N   UNL     1       4.241   3.765  18.117  0.00  0.00    +0.000 NA
ATOM     22  C   UNL     1       2.957   3.665  17.377  0.00  0.00    +0.000 C 
ATOM     23  C   UNL     1       2.253   2.499  18.125  0.00  0.00    +0.000 C 
ATOM     24  C   UNL     1       3.441   1.575  18.367  0.00  0.00    +0.000 C 
ATOM     25  C   UNL     1       4.211   2.658  19.131  0.00  0.00    +0.000 C 
ATOM     26  C   UNL     1       3.179   2.932  20.232  0.00  0.00    +0.000 C 
ATOM     27  N   UNL     1       1.876   2.887  19.517  0.00  0.00    +0.000 NA
ATOM     28  H   UNL     1       1.462   3.819  19.517  0.00  0.00    +0.000 HD
ENDBRANCH  18  21
ENDBRANCH   4  18
TORSDOF 5
ENDMDL
MODEL 9
REMARK VINA RESULT:      -8.0      2.379      3.426
REMARK  Name = 
REMARK  6 active torsions:
REMARK  status: ('A' for Active; 'I' for Inactive)
REMARK    1  A    between atoms: C_1  and  C_2
REMARK    2  A    between atoms: C_5  and  C_6
REMARK    3  A    between atoms: C_6  and  N_7
REMARK    4  A    between atoms: C_8  and  C_10
REMARK    5  A    between atoms: C_13  and  S_14
REMARK    6  A    between atoms: S_14  and  N_17
REMARK                            x       y       z     vdW  Elec       q    Type
REMARK                         _______ _______ _______ _____ _____    ______ ____
ROOT
ATOM      1  C   UNL     1       1.322   8.879  19.122  0.00  0.00    +0.000 A 
ATOM      2  C   UNL     1       1.902   8.608  17.873  0.00  0.00    +0.000 A 
ATOM      3  C   UNL     1       2.715   7.484  17.699  0.00  0.00    +0.000 A 
ATOM      4  C   UNL     1       2.994   6.662  18.794  0.00  0.00    +0.000 A 
ATOM      5  C   UNL     1       2.349   6.870  20.016  0.00  0.00    +0.000 A 
ATOM      6  C   UNL     1       1.530   7.990  20.186  0.00  0.00    +0.000 A 
ENDROOT
BRANCH   1   8
ATOM      7  N   UNL     1      -0.252  10.514  18.232  0.00  0.00    +0.000 N 
ATOM      8  C   UNL     1       0.549  10.143  19.283  0.00  0.00    +0.000 C 
ATOM      9  O   UNL     1       0.651  10.802  20.310  0.00  0.00    +0.000 OA
ATOM     10  H   UNL     1      -0.265  10.002  17.360  0.00  0.00    +0.000 HD
BRANCH   7  11
ATOM     11  C   UNL     1      -1.078  11.696  18.298  0.00  0.00    +0.000 C 
BRANCH  11  16
ATOM     12  C   UNL     1      -3.646  10.170  14.476  0.00  0.00    +0.000 C 
ATOM     13  C   UNL     1      -3.508  10.778  15.816  0.00  0.00    +0.000 A 
ATOM     14  C   UNL     1      -4.413  11.275  16.724  0.00  0.00    +0.000 A 
ATOM     15  C   UNL     1      -3.661  11.719  17.838  0.00  0.00    +0.000 A 
ATOM     16  C   UNL     1      -2.338  11.466  17.542  0.00  0.00    +0.000 A 
ATOM     17  O   UNL     1      -2.240  10.890  16.305  0.00  0.00    +0.000 OA
ENDBRANCH  11  16
ENDBRANCH   7  11
ENDBRANCH   1   8
BRANCH   4  18
ATOM     18  S   UNL     1       4.164   5.330  18.639  0.00  0.00    +0.000 S 
ATOM     19  O   UNL     1       4.717   5.109  19.959  0.00  0.00    +0.000 OA
ATOM     20  O   UNL     1       3.515   4.260  17.909  0.00  0.00    +0.000 OA
BRANCH  18  21
ATOM     21  N   UNL     1       5.399   5.921  17.671  0.00  0.00    +0.000 NA
ATOM     22  C   UNL     1       5.502   5.556  16.234  0.00  0.00    +0.000 C 
ATOM     23  C   UNL     1       7.042   5.493  16.035  0.00  0.00    +0.000 C 
ATOM     24  C   UNL     1       7.475   6.681  16.886  0.00  0.00    +0.000 C 
ATOM     25  C   UNL     1       6.813   6.106  18.143  0.00  0.00    +0.000 C 
ATOM     26  C   UNL     1       7.564   4.769  18.201  0.00  0.00    +0.000 C 
ATOM     27  N   UNL     1       7.645   4.345  16.778  0.00  0.00    +0.000 NA
ATOM     28  H   UNL     1       7.077   3.510  16.645  0.00  0.00    +0.000 HD
ENDBRANCH  18  21
ENDBRANCH   4  18
TORSDOF 5
ENDMDL
