MODEL 1
REMARK VINA RESULT:      -9.2      0.000      0.000
REMARK  Name = 
REMARK  5 active torsions:
REMARK  status: ('A' for Active; 'I' for Inactive)
REMARK    1  A    between atoms: C_1  and  C_2
REMARK    2  A    between atoms: C_7  and  N_8
REMARK    3  A    between atoms: N_8  and  S_9
REMARK    4  A    between atoms: S_9  and  C_12
REMARK    5  A    between atoms: C_15  and  N_16
REMARK                            x       y       z     vdW  Elec       q    Type
REMARK                         _______ _______ _______ _____ _____    ______ ____
ROOT
ATOM      1  C   UNL     1       3.046   4.734  19.247  0.00  0.00    +0.000 A 
ATOM      2  C   UNL     1       3.145   5.832  18.388  0.00  0.00    +0.000 A 
ATOM      3  C   UNL     1       2.583   7.063  18.745  0.00  0.00    +0.000 A 
ATOM      4  C   UNL     1       1.927   7.235  19.969  0.00  0.00    +0.000 A 
ATOM      5  C   UNL     1       1.833   6.115  20.818  0.00  0.00    +0.000 A 
ATOM      6  C   UNL     1       2.357   4.864  20.453  0.00  0.00    +0.000 A 
ATOM      7 CL   UNL     1       2.138   3.571  21.579  0.00  0.00    +0.000 Cl
ENDROOT
BRANCH   4   8
ATOM      8  N   UNL     1       1.388   8.504  20.376  0.00  0.00    +0.000 N 
ATOM      9  N   UNL     1       1.265   8.643  21.752  0.00  0.00    +0.000 NA
ATOM     10  C   UNL     1       0.849   9.776  22.216  0.00  0.00    +0.000 A 
ATOM     11  C   UNL     1       0.473  10.928  21.345  0.00  0.00    +0.000 A 
ATOM     12  O   UNL     1       0.085  11.969  21.848  0.00  0.00    +0.000 OA
ATOM     13  N   UNL     1       0.601  10.694  20.015  0.00  0.00    +0.000 N 
ATOM     14  C   UNL     1       1.036   9.518  19.466  0.00  0.00    +0.000 A 
ATOM     15  O   UNL     1       1.054   9.439  18.239  0.00  0.00    +0.000 OA
ATOM     16  H   UNL     1       0.333  11.422  19.370  0.00  0.00    +0.000 HD
ENDBRANCH   4   8
BRANCH   1  17
ATOM     17  S   UNL     1       3.834   3.215  18.769  0.00  0.00    +0.000 S 
ATOM     18  O   UNL     1       3.545   2.990  17.366  0.00  0.00    +0.000 OA
ATOM     19  O   UNL     1       3.497   2.215  19.760  0.00  0.00    +0.000 OA
BRANCH  17  20
ATOM     20  N   UNL     1       5.492   3.527  18.909  0.00  0.00    +0.000 N 
ATOM     21  H   UNL     1       5.790   3.581  19.882  0.00  0.00    +0.000 HD
BRANCH  20  28
ATOM     22  C   UNL     1       7.852   7.765  17.946  0.00  0.00    +0.000 C 
ATOM     23  C   UNL     1       7.272   6.468  17.467  0.00  0.00    +0.000 A 
ATOM     24  C   UNL     1       7.250   6.137  16.109  0.00  0.00    +0.000 A 
ATOM     25  C   UNL     1       6.661   4.941  15.690  0.00  0.00    +0.000 A 
ATOM     26 CL   UNL     1       6.668   4.536  14.016  0.00  0.00    +0.000 Cl
ATOM     27  C   UNL     1       6.070   4.076  16.609  0.00  0.00    +0.000 A 
ATOM     28  C   UNL     1       6.113   4.391  17.964  0.00  0.00    +0.000 A 
ATOM     29  C   UNL     1       6.723   5.572  18.391  0.00  0.00    +0.000 A 
ENDBRANCH  20  28
ENDBRANCH  17  20
ENDBRANCH   1  17
TORSDOF 4
ENDMDL
MODEL 2
REMARK VINA RESULT:      -9.1      1.289      1.830
REMARK  Name = 
REMARK  5 active torsions:
REMARK  status: ('A' for Active; 'I' for Inactive)
REMARK    1  A    between atoms: C_1  and  C_2
REMARK    2  A    between atoms: C_7  and  N_8
REMARK    3  A    between atoms: N_8  and  S_9
REMARK    4  A    between atoms: S_9  and  C_12
REMARK    5  A    between atoms: C_15  and  N_16
REMARK                            x       y       z     vdW  Elec       q    Type
REMARK                         _______ _______ _______ _____ _____    ______ ____
ROOT
ATOM      1  C   UNL     1       2.935   4.746  19.064  0.00  0.00    +0.000 A 
ATOM      2  C   UNL     1       2.987   5.663  18.010  0.00  0.00    +0.000 A 
ATOM      3  C   UNL     1       2.528   6.973  18.188  0.00  0.00    +0.000 A 
ATOM      4  C   UNL     1       2.025   7.406  19.420  0.00  0.00    +0.000 A 
ATOM      5  C   UNL     1       1.975   6.466  20.467  0.00  0.00    +0.000 A 
ATOM      6  C   UNL     1       2.395   5.137  20.289  0.00  0.00    +0.000 A 
ATOM      7 CL   UNL     1       2.244   4.085  21.652  0.00  0.00    +0.000 Cl
ENDROOT
BRANCH   4   8
ATOM      8  N   UNL     1       1.595   8.760  19.637  0.00  0.00    +0.000 N 
ATOM      9  N   UNL     1       1.167   9.009  20.934  0.00  0.00    +0.000 NA
ATOM     10  C   UNL     1       0.822  10.217  21.242  0.00  0.00    +0.000 A 
ATOM     11  C   UNL     1       0.840  11.346  20.267  0.00  0.00    +0.000 A 
ATOM     12  O   UNL     1       0.499  12.462  20.622  0.00  0.00    +0.000 OA
ATOM     13  N   UNL     1       1.249  11.006  19.018  0.00  0.00    +0.000 N 
ATOM     14  C   UNL     1       1.626   9.748  18.635  0.00  0.00    +0.000 A 
ATOM     15  O   UNL     1       1.927   9.582  17.454  0.00  0.00    +0.000 OA
ATOM     16  H   UNL     1       1.254  11.717  18.303  0.00  0.00    +0.000 HD
ENDBRANCH   4   8
BRANCH   1  17
ATOM     17  S   UNL     1       3.591   3.116  18.798  0.00  0.00    +0.000 S 
ATOM     18  O   UNL     1       3.274   2.730  17.437  0.00  0.00    +0.000 OA
ATOM     19  O   UNL     1       3.180   2.291  19.913  0.00  0.00    +0.000 OA
BRANCH  17  20
ATOM     20  N   UNL     1       5.270   3.306  18.901  0.00  0.00    +0.000 N 
ATOM     21  H   UNL     1       5.607   3.218  19.859  0.00  0.00    +0.000 HD
BRANCH  20  28
ATOM     22  C   UNL     1       6.550   4.685  14.327  0.00  0.00    +0.000 C 
ATOM     23  C   UNL     1       6.553   4.940  15.805  0.00  0.00    +0.000 A 
ATOM     24  C   UNL     1       7.245   6.021  16.358  0.00  0.00    +0.000 A 
ATOM     25  C   UNL     1       7.267   6.204  17.743  0.00  0.00    +0.000 A 
ATOM     26 CL   UNL     1       8.101   7.559  18.403  0.00  0.00    +0.000 Cl
ATOM     27  C   UNL     1       6.622   5.306  18.591  0.00  0.00    +0.000 A 
ATOM     28  C   UNL     1       5.912   4.243  18.044  0.00  0.00    +0.000 A 
ATOM     29  C   UNL     1       5.865   4.069  16.658  0.00  0.00    +0.000 A 
ENDBRANCH  20  28
ENDBRANCH  17  20
ENDBRANCH   1  17
TORSDOF 4
ENDMDL
MODEL 3
REMARK VINA RESULT:      -9.0      4.212      8.174
REMARK  Name = 
REMARK  5 active torsions:
REMARK  status: ('A' for Active; 'I' for Inactive)
REMARK    1  A    between atoms: C_1  and  C_2
REMARK    2  A    between atoms: C_7  and  N_8
REMARK    3  A    between atoms: N_8  and  S_9
REMARK    4  A    between atoms: S_9  and  C_12
REMARK    5  A    between atoms: C_15  and  N_16
REMARK                            x       y       z     vdW  Elec       q    Type
REMARK                         _______ _______ _______ _____ _____    ______ ____
ROOT
ATOM      1  C   UNL     1       1.310   9.309  19.631  0.00  0.00    +0.000 A 
ATOM      2  C   UNL     1       1.806   8.970  18.369  0.00  0.00    +0.000 A 
ATOM      3  C   UNL     1       2.298   7.683  18.124  0.00  0.00    +0.000 A 
ATOM      4  C   UNL     1       2.293   6.701  19.121  0.00  0.00    +0.000 A 
ATOM      5  C   UNL     1       1.795   7.064  20.387  0.00  0.00    +0.000 A 
ATOM      6  C   UNL     1       1.336   8.364  20.656  0.00  0.00    +0.000 A 
ATOM      7 CL   UNL     1       0.785   8.676  22.265  0.00  0.00    +0.000 Cl
ENDROOT
BRANCH   4   8
ATOM      8  N   UNL     1       2.748   5.360  18.876  0.00  0.00    +0.000 N 
ATOM      9  N   UNL     1       1.778   4.533  18.324  0.00  0.00    +0.000 NA
ATOM     10  C   UNL     1       2.113   3.325  18.008  0.00  0.00    +0.000 A 
ATOM     11  C   UNL     1       3.482   2.771  18.230  0.00  0.00    +0.000 A 
ATOM     12  O   UNL     1       3.732   1.621  17.911  0.00  0.00    +0.000 OA
ATOM     13  N   UNL     1       4.357   3.641  18.794  0.00  0.00    +0.000 N 
ATOM     14  C   UNL     1       4.060   4.929  19.149  0.00  0.00    +0.000 A 
ATOM     15  O   UNL     1       4.945   5.584  19.697  0.00  0.00    +0.000 OA
ATOM     16  H   UNL     1       5.290   3.320  19.000  0.00  0.00    +0.000 HD
ENDBRANCH   4   8
BRANCH   1  17
ATOM     17  S   UNL     1       0.639  10.938  19.864  0.00  0.00    +0.000 S 
ATOM     18  O   UNL     1       1.409  11.586  20.907  0.00  0.00    +0.000 OA
ATOM     19  O   UNL     1      -0.798  10.808  19.982  0.00  0.00    +0.000 OA
BRANCH  17  20
ATOM     20  N   UNL     1       0.956  11.746  18.411  0.00  0.00    +0.000 N 
ATOM     21  H   UNL     1       1.327  11.120  17.698  0.00  0.00    +0.000 HD
BRANCH  20  28
ATOM     22  C   UNL     1       0.070  16.570  19.042  0.00  0.00    +0.000 C 
ATOM     23  C   UNL     1       1.035  15.456  18.763  0.00  0.00    +0.000 A 
ATOM     24  C   UNL     1       2.375  15.711  18.461  0.00  0.00    +0.000 A 
ATOM     25  C   UNL     1       3.239  14.654  18.160  0.00  0.00    +0.000 A 
ATOM     26 CL   UNL     1       4.894  14.985  17.818  0.00  0.00    +0.000 Cl
ATOM     27  C   UNL     1       2.775  13.340  18.134  0.00  0.00    +0.000 A 
ATOM     28  C   UNL     1       1.447  13.081  18.458  0.00  0.00    +0.000 A 
ATOM     29  C   UNL     1       0.586  14.131  18.785  0.00  0.00    +0.000 A 
ENDBRANCH  20  28
ENDBRANCH  17  20
ENDBRANCH   1  17
TORSDOF 4
ENDMDL
MODEL 4
REMARK VINA RESULT:      -9.0      4.200      8.746
REMARK  Name = 
REMARK  5 active torsions:
REMARK  status: ('A' for Active; 'I' for Inactive)
REMARK    1  A    between atoms: C_1  and  C_2
REMARK    2  A    between atoms: C_7  and  N_8
REMARK    3  A    between atoms: N_8  and  S_9
REMARK    4  A    between atoms: S_9  and  C_12
REMARK    5  A    between atoms: C_15  and  N_16
REMARK                            x       y       z     vdW  Elec       q    Type
REMARK                         _______ _______ _______ _____ _____    ______ ____
ROOT
ATOM      1  C   UNL     1       1.141   9.617  19.615  0.00  0.00    +0.000 A 
ATOM      2  C   UNL     1       1.496   9.692  18.265  0.00  0.00    +0.000 A 
ATOM      3  C   UNL     1       2.212   8.652  17.662  0.00  0.00    +0.000 A 
ATOM      4  C   UNL     1       2.577   7.508  18.380  0.00  0.00    +0.000 A 
ATOM      5  C   UNL     1       2.216   7.454  19.741  0.00  0.00    +0.000 A 
ATOM      6  C   UNL     1       1.533   8.509  20.367  0.00  0.00    +0.000 A 
ATOM      7 CL   UNL     1       1.186   8.320  22.050  0.00  0.00    +0.000 Cl
ENDROOT
BRANCH   4   8
ATOM      8  N   UNL     1       3.269   6.408  17.766  0.00  0.00    +0.000 N 
ATOM      9  N   UNL     1       4.458   6.771  17.148  0.00  0.00    +0.000 NA
ATOM     10  C   UNL     1       5.183   5.838  16.623  0.00  0.00    +0.000 A 
ATOM     11  C   UNL     1       4.793   4.397  16.631  0.00  0.00    +0.000 A 
ATOM     12  O   UNL     1       5.522   3.567  16.116  0.00  0.00    +0.000 OA
ATOM     13  N   UNL     1       3.606   4.138  17.235  0.00  0.00    +0.000 N 
ATOM     14  C   UNL     1       2.797   5.083  17.807  0.00  0.00    +0.000 A 
ATOM     15  O   UNL     1       1.725   4.702  18.275  0.00  0.00    +0.000 OA
ATOM     16  H   UNL     1       3.269   3.188  17.246  0.00  0.00    +0.000 HD
ENDBRANCH   4   8
BRANCH   1  17
ATOM     17  S   UNL     1       0.177  10.937  20.310  0.00  0.00    +0.000 S 
ATOM     18  O   UNL     1       1.077  11.795  21.054  0.00  0.00    +0.000 OA
ATOM     19  O   UNL     1      -0.978  10.345  20.952  0.00  0.00    +0.000 OA
BRANCH  17  20
ATOM     20  N   UNL     1      -0.381  11.812  18.972  0.00  0.00    +0.000 N 
ATOM     21  H   UNL     1      -0.095  12.789  19.009  0.00  0.00    +0.000 HD
BRANCH  20  28
ATOM     22  C   UNL     1      -3.078   9.751  15.376  0.00  0.00    +0.000 C 
ATOM     23  C   UNL     1      -3.006  10.498  16.674  0.00  0.00    +0.000 A 
ATOM     24  C   UNL     1      -4.158  10.970  17.309  0.00  0.00    +0.000 A 
ATOM     25  C   UNL     1      -4.054  11.703  18.495  0.00  0.00    +0.000 A 
ATOM     26 CL   UNL     1      -5.486  12.252  19.278  0.00  0.00    +0.000 Cl
ATOM     27  C   UNL     1      -2.807  11.992  19.047  0.00  0.00    +0.000 A 
ATOM     28  C   UNL     1      -1.660  11.502  18.431  0.00  0.00    +0.000 A 
ATOM     29  C   UNL     1      -1.759  10.748  17.260  0.00  0.00    +0.000 A 
ENDBRANCH  20  28
ENDBRANCH  17  20
ENDBRANCH   1  17
TORSDOF 4
ENDMDL
MODEL 5
REMARK VINA RESULT:      -9.0      4.459      8.286
REMARK  Name = 
REMARK  5 active torsions:
REMARK  status: ('A' for Active; 'I' for Inactive)
REMARK    1  A    between atoms: C_1  and  C_2
REMARK    2  A    between atoms: C_7  and  N_8
REMARK    3  A    between atoms: N_8  and  S_9
REMARK    4  A    between atoms: S_9  and  C_12
REMARK    5  A    between atoms: C_15  and  N_16
REMARK                            x       y       z     vdW  Elec       q    Type
REMARK                         _______ _______ _______ _____ _____    ______ ____
ROOT
ATOM      1  C   UNL     1       1.349   9.241  19.640  0.00  0.00    +0.000 A 
ATOM      2  C   UNL     1       1.847   8.864  18.389  0.00  0.00    +0.000 A 
ATOM      3  C   UNL     1       2.325   7.565  18.180  0.00  0.00    +0.000 A 
ATOM      4  C   UNL     1       2.302   6.609  19.201  0.00  0.00    +0.000 A 
ATOM      5  C   UNL     1       1.802   7.010  20.455  0.00  0.00    +0.000 A 
ATOM      6  C   UNL     1       1.358   8.322  20.689  0.00  0.00    +0.000 A 
ATOM      7 CL   UNL     1       0.803   8.681  22.286  0.00  0.00    +0.000 Cl
ENDROOT
BRANCH   4   8
ATOM      8  N   UNL     1       2.742   5.256  18.992  0.00  0.00    +0.000 N 
ATOM      9  N   UNL     1       1.723   4.389  18.623  0.00  0.00    +0.000 NA
ATOM     10  C   UNL     1       2.033   3.163  18.351  0.00  0.00    +0.000 A 
ATOM     11  C   UNL     1       3.426   2.634  18.436  0.00  0.00    +0.000 A 
ATOM     12  O   UNL     1       3.650   1.466  18.167  0.00  0.00    +0.000 OA
ATOM     13  N   UNL     1       4.352   3.546  18.826  0.00  0.00    +0.000 N 
ATOM     14  C   UNL     1       4.083   4.853  19.127  0.00  0.00    +0.000 A 
ATOM     15  O   UNL     1       5.021   5.549  19.514  0.00  0.00    +0.000 OA
ATOM     16  H   UNL     1       5.308   3.244  18.934  0.00  0.00    +0.000 HD
ENDBRANCH   4   8
BRANCH   1  17
ATOM     17  S   UNL     1       0.697  10.883  19.829  0.00  0.00    +0.000 S 
ATOM     18  O   UNL     1       1.430  11.528  20.900  0.00  0.00    +0.000 OA
ATOM     19  O   UNL     1      -0.746  10.779  19.882  0.00  0.00    +0.000 OA
BRANCH  17  20
ATOM     20  N   UNL     1       1.094  11.672  18.385  0.00  0.00    +0.000 N 
ATOM     21  H   UNL     1       1.674  11.093  17.779  0.00  0.00    +0.000 HD
BRANCH  20  28
ATOM     22  C   UNL     1       4.280  15.438  18.020  0.00  0.00    +0.000 C 
ATOM     23  C   UNL     1       2.881  14.940  18.235  0.00  0.00    +0.000 A 
ATOM     24  C   UNL     1       1.836  15.815  18.547  0.00  0.00    +0.000 A 
ATOM     25  C   UNL     1       0.553  15.315  18.787  0.00  0.00    +0.000 A 
ATOM     26 CL   UNL     1      -0.728  16.410  19.141  0.00  0.00    +0.000 Cl
ATOM     27  C   UNL     1       0.302  13.946  18.743  0.00  0.00    +0.000 A 
ATOM     28  C   UNL     1       1.334  13.074  18.409  0.00  0.00    +0.000 A 
ATOM     29  C   UNL     1       2.612  13.570  18.142  0.00  0.00    +0.000 A 
ENDBRANCH  20  28
ENDBRANCH  17  20
ENDBRANCH   1  17
TORSDOF 4
ENDMDL
MODEL 6
REMARK VINA RESULT:      -8.9      1.514      2.178
REMARK  Name = 
REMARK  5 active torsions:
REMARK  status: ('A' for Active; 'I' for Inactive)
REMARK    1  A    between atoms: C_1  and  C_2
REMARK    2  A    between atoms: C_7  and  N_8
REMARK    3  A    between atoms: N_8  and  S_9
REMARK    4  A    between atoms: S_9  and  C_12
REMARK    5  A    between atoms: C_15  and  N_16
REMARK                            x       y       z     vdW  Elec       q    Type
REMARK                         _______ _______ _______ _____ _____    ______ ____
ROOT
ATOM      1  C   UNL     1       3.011   4.787  19.136  0.00  0.00    +0.000 A 
ATOM      2  C   UNL     1       3.084   5.748  18.123  0.00  0.00    +0.000 A 
ATOM      3  C   UNL     1       2.554   7.028  18.321  0.00  0.00    +0.000 A 
ATOM      4  C   UNL     1       1.956   7.387  19.534  0.00  0.00    +0.000 A 
ATOM      5  C   UNL     1       1.886   6.404  20.540  0.00  0.00    +0.000 A 
ATOM      6  C   UNL     1       2.377   5.104  20.338  0.00  0.00    +0.000 A 
ATOM      7 CL   UNL     1       2.192   3.990  21.647  0.00  0.00    +0.000 Cl
ENDROOT
BRANCH   4   8
ATOM      8  N   UNL     1       1.451   8.711  19.775  0.00  0.00    +0.000 N 
ATOM      9  N   UNL     1       1.268   9.458  18.619  0.00  0.00    +0.000 NA
ATOM     10  C   UNL     1       0.756  10.641  18.731  0.00  0.00    +0.000 A 
ATOM     11  C   UNL     1       0.375  11.246  20.041  0.00  0.00    +0.000 A 
ATOM     12  O   UNL     1      -0.101  12.368  20.076  0.00  0.00    +0.000 OA
ATOM     13  N   UNL     1       0.610  10.455  21.118  0.00  0.00    +0.000 N 
ATOM     14  C   UNL     1       1.149   9.198  21.061  0.00  0.00    +0.000 A 
ATOM     15  O   UNL     1       1.349   8.619  22.128  0.00  0.00    +0.000 OA
ATOM     16  H   UNL     1       0.405  10.818  22.035  0.00  0.00    +0.000 HD
ENDBRANCH   4   8
BRANCH   1  17
ATOM     17  S   UNL     1       3.757   3.201  18.850  0.00  0.00    +0.000 S 
ATOM     18  O   UNL     1       3.472   2.819  17.481  0.00  0.00    +0.000 OA
ATOM     19  O   UNL     1       3.384   2.336  19.949  0.00  0.00    +0.000 OA
BRANCH  17  20
ATOM     20  N   UNL     1       5.423   3.481  18.971  0.00  0.00    +0.000 N 
ATOM     21  H   UNL     1       5.743   3.470  19.938  0.00  0.00    +0.000 HD
BRANCH  20  28
ATOM     22  C   UNL     1       6.667   4.668  14.334  0.00  0.00    +0.000 C 
ATOM     23  C   UNL     1       6.658   4.997  15.797  0.00  0.00    +0.000 A 
ATOM     24  C   UNL     1       7.313   6.127  16.294  0.00  0.00    +0.000 A 
ATOM     25  C   UNL     1       7.325   6.381  17.669  0.00  0.00    +0.000 A 
ATOM     26 CL   UNL     1       8.113   7.794  18.260  0.00  0.00    +0.000 Cl
ATOM     27  C   UNL     1       6.709   5.506  18.561  0.00  0.00    +0.000 A 
ATOM     28  C   UNL     1       6.035   4.394  18.067  0.00  0.00    +0.000 A 
ATOM     29  C   UNL     1       5.997   4.148  16.693  0.00  0.00    +0.000 A 
ENDBRANCH  20  28
ENDBRANCH  17  20
ENDBRANCH   1  17
TORSDOF 4
ENDMDL
MODEL 7
REMARK VINA RESULT:      -8.8      4.233      8.169
REMARK  Name = 
REMARK  5 active torsions:
REMARK  status: ('A' for Active; 'I' for Inactive)
REMARK    1  A    between atoms: C_1  and  C_2
REMARK    2  A    between atoms: C_7  and  N_8
REMARK    3  A    between atoms: N_8  and  S_9
REMARK    4  A    between atoms: S_9  and  C_12
REMARK    5  A    between atoms: C_15  and  N_16
REMARK                            x       y       z     vdW  Elec       q    Type
REMARK                         _______ _______ _______ _____ _____    ______ ____
ROOT
ATOM      1  C   UNL     1       1.051   9.548  19.977  0.00  0.00    +0.000 A 
ATOM      2  C   UNL     1       1.650   9.113  18.791  0.00  0.00    +0.000 A 
ATOM      3  C   UNL     1       2.247   7.849  18.721  0.00  0.00    +0.000 A 
ATOM      4  C   UNL     1       2.246   6.983  19.820  0.00  0.00    +0.000 A 
ATOM      5  C   UNL     1       1.643   7.442  21.008  0.00  0.00    +0.000 A 
ATOM      6  C   UNL     1       1.078   8.724  21.102  0.00  0.00    +0.000 A 
ATOM      7 CL   UNL     1       0.404   9.166  22.632  0.00  0.00    +0.000 Cl
ENDROOT
BRANCH   4   8
ATOM      8  N   UNL     1       2.809   5.662  19.754  0.00  0.00    +0.000 N 
ATOM      9  N   UNL     1       4.137   5.641  19.350  0.00  0.00    +0.000 NA
ATOM     10  C   UNL     1       4.749   4.502  19.322  0.00  0.00    +0.000 A 
ATOM     11  C   UNL     1       4.090   3.211  19.680  0.00  0.00    +0.000 A 
ATOM     12  O   UNL     1       4.724   2.171  19.630  0.00  0.00    +0.000 OA
ATOM     13  N   UNL     1       2.786   3.324  20.039  0.00  0.00    +0.000 N 
ATOM     14  C   UNL     1       2.088   4.500  20.087  0.00  0.00    +0.000 A 
ATOM     15  O   UNL     1       0.896   4.439  20.385  0.00  0.00    +0.000 OA
ATOM     16  H   UNL     1       2.274   2.485  20.262  0.00  0.00    +0.000 HD
ENDBRANCH   4   8
BRANCH   1  17
ATOM     17  S   UNL     1       0.253  11.135  19.987  0.00  0.00    +0.000 S 
ATOM     18  O   UNL     1       0.854  11.923  21.045  0.00  0.00    +0.000 OA
ATOM     19  O   UNL     1      -1.176  10.909  19.957  0.00  0.00    +0.000 OA
BRANCH  17  20
ATOM     20  N   UNL     1       0.684  11.843  18.510  0.00  0.00    +0.000 N 
ATOM     21  H   UNL     1       1.053  11.158  17.852  0.00  0.00    +0.000 HD
BRANCH  20  28
ATOM     22  C   UNL     1       0.049  16.732  18.893  0.00  0.00    +0.000 C 
ATOM     23  C   UNL     1       0.958  15.556  18.694  0.00  0.00    +0.000 A 
ATOM     24  C   UNL     1       2.318  15.724  18.420  0.00  0.00    +0.000 A 
ATOM     25  C   UNL     1       3.129  14.608  18.193  0.00  0.00    +0.000 A 
ATOM     26 CL   UNL     1       4.809  14.833  17.885  0.00  0.00    +0.000 Cl
ATOM     27  C   UNL     1       2.595  13.322  18.214  0.00  0.00    +0.000 A 
ATOM     28  C   UNL     1       1.246  13.150  18.510  0.00  0.00    +0.000 A 
ATOM     29  C   UNL     1       0.436  14.259  18.763  0.00  0.00    +0.000 A 
ENDBRANCH  20  28
ENDBRANCH  17  20
ENDBRANCH   1  17
TORSDOF 4
ENDMDL
MODEL 8
REMARK VINA RESULT:      -8.8      4.160      8.421
REMARK  Name = 
REMARK  5 active torsions:
REMARK  status: ('A' for Active; 'I' for Inactive)
REMARK    1  A    between atoms: C_1  and  C_2
REMARK    2  A    between atoms: C_7  and  N_8
REMARK    3  A    between atoms: N_8  and  S_9
REMARK    4  A    between atoms: S_9  and  C_12
REMARK    5  A    between atoms: C_15  and  N_16
REMARK                            x       y       z     vdW  Elec       q    Type
REMARK                         _______ _______ _______ _____ _____    ______ ____
ROOT
ATOM      1  C   UNL     1       1.391   8.896  19.270  0.00  0.00    +0.000 A 
ATOM      2  C   UNL     1       2.061   8.357  18.167  0.00  0.00    +0.000 A 
ATOM      3  C   UNL     1       2.750   7.145  18.280  0.00  0.00    +0.000 A 
ATOM      4  C   UNL     1       2.774   6.432  19.484  0.00  0.00    +0.000 A 
ATOM      5  C   UNL     1       2.097   6.993  20.585  0.00  0.00    +0.000 A 
ATOM      6  C   UNL     1       1.437   8.229  20.494  0.00  0.00    +0.000 A 
ATOM      7 CL   UNL     1       0.680   8.813  21.935  0.00  0.00    +0.000 Cl
ENDROOT
BRANCH   4   8
ATOM      8  N   UNL     1       3.433   5.160  19.607  0.00  0.00    +0.000 N 
ATOM      9  N   UNL     1       2.645   4.176  20.188  0.00  0.00    +0.000 NA
ATOM     10  C   UNL     1       3.131   2.981  20.281  0.00  0.00    +0.000 A 
ATOM     11  C   UNL     1       4.502   2.617  19.818  0.00  0.00    +0.000 A 
ATOM     12  O   UNL     1       4.900   1.471  19.938  0.00  0.00    +0.000 OA
ATOM     13  N   UNL     1       5.209   3.646  19.286  0.00  0.00    +0.000 N 
ATOM     14  C   UNL     1       4.748   4.929  19.161  0.00  0.00    +0.000 A 
ATOM     15  O   UNL     1       5.523   5.766  18.702  0.00  0.00    +0.000 OA
ATOM     16  H   UNL     1       6.155   3.474  18.983  0.00  0.00    +0.000 HD
ENDBRANCH   4   8
BRANCH   1  17
ATOM     17  S   UNL     1       0.480  10.405  19.050  0.00  0.00    +0.000 S 
ATOM     18  O   UNL     1       0.674  10.842  17.681  0.00  0.00    +0.000 OA
ATOM     19  O   UNL     1       0.806  11.280  20.156  0.00  0.00    +0.000 OA
BRANCH  17  20
ATOM     20  N   UNL     1      -1.144   9.956  19.222  0.00  0.00    +0.000 N 
ATOM     21  H   UNL     1      -1.242   9.015  19.600  0.00  0.00    +0.000 HD
BRANCH  20  28
ATOM     22  C   UNL     1      -5.291  12.429  18.154  0.00  0.00    +0.000 C 
ATOM     23  C   UNL     1      -4.123  11.604  17.703  0.00  0.00    +0.000 A 
ATOM     24  C   UNL     1      -3.993  11.187  16.375  0.00  0.00    +0.000 A 
ATOM     25  C   UNL     1      -2.917  10.380  15.996  0.00  0.00    +0.000 A 
ATOM     26 CL   UNL     1      -2.758   9.900  14.350  0.00  0.00    +0.000 Cl
ATOM     27  C   UNL     1      -1.974   9.963  16.934  0.00  0.00    +0.000 A 
ATOM     28  C   UNL     1      -2.087  10.396  18.251  0.00  0.00    +0.000 A 
ATOM     29  C   UNL     1      -3.146  11.224  18.630  0.00  0.00    +0.000 A 
ENDBRANCH  20  28
ENDBRANCH  17  20
ENDBRANCH   1  17
TORSDOF 4
ENDMDL
MODEL 9
REMARK VINA RESULT:      -8.8      4.526      8.235
REMARK  Name = 
REMARK  5 active torsions:
REMARK  status: ('A' for Active; 'I' for Inactive)
REMARK    1  A    between atoms: C_1  and  C_2
REMARK    2  A    between atoms: C_7  and  N_8
REMARK    3  A    between atoms: N_8  and  S_9
REMARK    4  A    between atoms: S_9  and  C_12
REMARK    5  A    between atoms: C_15  and  N_16
REMARK                            x       y       z     vdW  Elec       q    Type
REMARK                         _______ _______ _______ _____ _____    ______ ____
ROOT
ATOM      1  C   UNL     1       0.936   9.589  19.868  0.00  0.00    +0.000 A 
ATOM      2  C   UNL     1       1.571   9.158  18.700  0.00  0.00    +0.000 A 
ATOM      3  C   UNL     1       2.206   7.911  18.657  0.00  0.00    +0.000 A 
ATOM      4  C   UNL     1       2.208   7.058  19.766  0.00  0.00    +0.000 A 
ATOM      5  C   UNL     1       1.568   7.513  20.936  0.00  0.00    +0.000 A 
ATOM      6  C   UNL     1       0.964   8.779  21.003  0.00  0.00    +0.000 A 
ATOM      7 CL   UNL     1       0.247   9.218  22.514  0.00  0.00    +0.000 Cl
ENDROOT
BRANCH   4   8
ATOM      8  N   UNL     1       2.811   5.754  19.727  0.00  0.00    +0.000 N 
ATOM      9  N   UNL     1       4.132   5.762  19.302  0.00  0.00    +0.000 NA
ATOM     10  C   UNL     1       4.778   4.641  19.295  0.00  0.00    +0.000 A 
ATOM     11  C   UNL     1       4.165   3.342  19.699  0.00  0.00    +0.000 A 
ATOM     12  O   UNL     1       4.830   2.320  19.667  0.00  0.00    +0.000 OA
ATOM     13  N   UNL     1       2.864   3.425  20.076  0.00  0.00    +0.000 N 
ATOM     14  C   UNL     1       2.131   4.580  20.104  0.00  0.00    +0.000 A 
ATOM     15  O   UNL     1       0.946   4.491  20.423  0.00  0.00    +0.000 OA
ATOM     16  H   UNL     1       2.382   2.577  20.330  0.00  0.00    +0.000 HD
ENDBRANCH   4   8
BRANCH   1  17
ATOM     17  S   UNL     1       0.093  11.152  19.843  0.00  0.00    +0.000 S 
ATOM     18  O   UNL     1       0.630  11.960  20.921  0.00  0.00    +0.000 OA
ATOM     19  O   UNL     1      -1.327  10.884  19.761  0.00  0.00    +0.000 OA
BRANCH  17  20
ATOM     20  N   UNL     1       0.558  11.869  18.382  0.00  0.00    +0.000 N 
ATOM     21  H   UNL     1       0.940  11.189  17.727  0.00  0.00    +0.000 HD
BRANCH  20  28
ATOM     22  C   UNL     1       4.552  14.771  18.086  0.00  0.00    +0.000 C 
ATOM     23  C   UNL     1       3.070  14.621  18.263  0.00  0.00    +0.000 A 
ATOM     24  C   UNL     1       2.254  15.721  18.538  0.00  0.00    +0.000 A 
ATOM     25  C   UNL     1       0.883  15.542  18.743  0.00  0.00    +0.000 A 
ATOM     26 CL   UNL     1      -0.112  16.913  19.051  0.00  0.00    +0.000 Cl
ATOM     27  C   UNL     1       0.316  14.270  18.701  0.00  0.00    +0.000 A 
ATOM     28  C   UNL     1       1.122  13.175  18.404  0.00  0.00    +0.000 A 
ATOM     29  C   UNL     1       2.488  13.351  18.172  0.00  0.00    +0.000 A 
ENDBRANCH  20  28
ENDBRANCH  17  20
ENDBRANCH   1  17
TORSDOF 4
ENDMDL
