MODEL 1
REMARK VINA RESULT:      -7.6      0.000      0.000
REMARK  Name = 
REMARK  8 active torsions:
REMARK  status: ('A' for Active; 'I' for Inactive)
REMARK    1  A    between atoms: C_1  and  O_2
REMARK    2  A    between atoms: O_2  and  C_3
REMARK    3  A    between atoms: C_6  and  C_7
REMARK    4  A    between atoms: C_13  and  C_14
REMARK    5  A    between atoms: C_18  and  C_19
REMARK    6  A    between atoms: N_20  and  N_21
REMARK    7  A    between atoms: N_21  and  C_22
REMARK    8  A    between atoms: C_22  and  N_23
REMARK                            x       y       z     vdW  Elec       q    Type
REMARK                         _______ _______ _______ _____ _____    ______ ____
ROOT
ATOM      1  C   UNL     1       2.578   6.177  19.440  0.00  0.00    +0.000 A 
ATOM      2  C   UNL     1       1.921   7.232  20.098  0.00  0.00    +0.000 A 
ATOM      3  C   UNL     1       1.771   8.477  19.457  0.00  0.00    +0.000 A 
ATOM      4  C   UNL     1       1.098   9.712  19.751  0.00  0.00    +0.000 A 
ATOM      5  C   UNL     1       1.314  10.521  18.641  0.00  0.00    +0.000 A 
ATOM      6  C   UNL     1       0.914  11.880  18.217  0.00  0.00    +0.000 C 
ATOM      7  O   UNL     1       2.080   9.866  17.719  0.00  0.00    +0.000 OA
ATOM      8  C   UNL     1       2.340   8.628  18.205  0.00  0.00    +0.000 A 
ATOM      9  C   UNL     1       3.056   7.639  17.538  0.00  0.00    +0.000 A 
ATOM     10  C   UNL     1       3.162   6.394  18.181  0.00  0.00    +0.000 A 
ENDROOT
BRANCH   4  11
ATOM     11  C   UNL     1       0.283  10.046  20.920  0.00  0.00    +0.000 A 
ATOM     12  C   UNL     1      -0.567  11.165  20.900  0.00  0.00    +0.000 A 
ATOM     13  C   UNL     1      -1.279  11.553  22.039  0.00  0.00    +0.000 A 
ATOM     14  C   UNL     1      -1.190  10.798  23.203  0.00  0.00    +0.000 A 
ATOM     15  C   UNL     1      -0.377   9.670  23.235  0.00  0.00    +0.000 A 
ATOM     16  C   UNL     1       0.372   9.312  22.110  0.00  0.00    +0.000 A 
ENDBRANCH   4  11
BRANCH   1  18
ATOM     17  C   UNL     1       1.406   4.352  20.372  0.00  0.00    +0.000 C 
ATOM     18  O   UNL     1       2.663   4.923  19.997  0.00  0.00    +0.000 OA
ENDBRANCH   1  18
BRANCH  10  19
ATOM     19  C   UNL     1       3.871   5.301  17.481  0.00  0.00    +0.000 C 
ATOM     20  N   UNL     1       5.102   5.008  17.766  0.00  0.00    +0.000 NA
BRANCH  20  21
ATOM     21  N   UNL     1       5.649   3.977  17.048  0.00  0.00    +0.000 N 
ATOM     22  H   UNL     1       5.384   3.017  17.253  0.00  0.00    +0.000 HD
BRANCH  21  23
ATOM     23  C   UNL     1       6.570   4.205  16.071  0.00  0.00    +0.000 C 
ATOM     24  S   UNL     1       6.200   4.081  14.456  0.00  0.00    +0.000 S 
BRANCH  23  25
ATOM     25  N   UNL     1       7.808   4.554  16.496  0.00  0.00    +0.000 N 
ATOM     26  H   UNL     1       8.569   3.942  16.233  0.00  0.00    +0.000 HD
ATOM     27  H   UNL     1       7.974   5.399  17.020  0.00  0.00    +0.000 HD
ENDBRANCH  23  25
ENDBRANCH  21  23
ENDBRANCH  20  21
ENDBRANCH  10  19
TORSDOF 6
ENDMDL
MODEL 2
REMARK VINA RESULT:      -7.4      4.206      8.357
REMARK  Name = 
REMARK  8 active torsions:
REMARK  status: ('A' for Active; 'I' for Inactive)
REMARK    1  A    between atoms: C_1  and  O_2
REMARK    2  A    between atoms: O_2  and  C_3
REMARK    3  A    between atoms: C_6  and  C_7
REMARK    4  A    between atoms: C_13  and  C_14
REMARK    5  A    between atoms: C_18  and  C_19
REMARK    6  A    between atoms: N_20  and  N_21
REMARK    7  A    between atoms: N_21  and  C_22
REMARK    8  A    between atoms: C_22  and  N_23
REMARK                            x       y       z     vdW  Elec       q    Type
REMARK                         _______ _______ _______ _____ _____    ______ ____
ROOT
ATOM      1  C   UNL     1       2.205   7.689  19.415  0.00  0.00    +0.000 A 
ATOM      2  C   UNL     1       3.174   6.909  18.760  0.00  0.00    +0.000 A 
ATOM      3  C   UNL     1       3.380   5.571  19.147  0.00  0.00    +0.000 A 
ATOM      4  C   UNL     1       4.172   4.470  18.669  0.00  0.00    +0.000 A 
ATOM      5  C   UNL     1       3.849   3.401  19.495  0.00  0.00    +0.000 A 
ATOM      6  C   UNL     1       4.229   1.974  19.592  0.00  0.00    +0.000 C 
ATOM      7  O   UNL     1       2.941   3.787  20.439  0.00  0.00    +0.000 OA
ATOM      8  C   UNL     1       2.646   5.091  20.217  0.00  0.00    +0.000 A 
ATOM      9  C   UNL     1       1.723   5.839  20.941  0.00  0.00    +0.000 A 
ATOM     10  C   UNL     1       1.509   7.160  20.514  0.00  0.00    +0.000 A 
ENDROOT
BRANCH   4  11
ATOM     11  C   UNL     1       5.069   4.432  17.513  0.00  0.00    +0.000 A 
ATOM     12  C   UNL     1       6.452   4.612  17.680  0.00  0.00    +0.000 A 
ATOM     13  C   UNL     1       7.312   4.674  16.578  0.00  0.00    +0.000 A 
ATOM     14  C   UNL     1       6.807   4.506  15.294  0.00  0.00    +0.000 A 
ATOM     15  C   UNL     1       5.443   4.298  15.110  0.00  0.00    +0.000 A 
ATOM     16  C   UNL     1       4.580   4.286  16.209  0.00  0.00    +0.000 A 
ENDBRANCH   4  11
BRANCH   1  18
ATOM     17  C   UNL     1       1.486   9.074  17.643  0.00  0.00    +0.000 C 
ATOM     18  O   UNL     1       1.913   8.968  19.005  0.00  0.00    +0.000 OA
ENDBRANCH   1  18
BRANCH  10  19
ATOM     19  C   UNL     1       0.497   7.971  21.226  0.00  0.00    +0.000 C 
ATOM     20  N   UNL     1       0.845   8.843  22.123  0.00  0.00    +0.000 NA
BRANCH  20  21
ATOM     21  N   UNL     1      -0.183   9.530  22.713  0.00  0.00    +0.000 N 
ATOM     22  H   UNL     1      -0.755   9.079  23.423  0.00  0.00    +0.000 HD
BRANCH  21  23
ATOM     23  C   UNL     1      -0.480  10.810  22.352  0.00  0.00    +0.000 C 
ATOM     24  S   UNL     1       0.283  11.575  21.090  0.00  0.00    +0.000 S 
BRANCH  23  25
ATOM     25  N   UNL     1      -1.448  11.418  23.078  0.00  0.00    +0.000 N 
ATOM     26  H   UNL     1      -1.466  11.221  24.069  0.00  0.00    +0.000 HD
ATOM     27  H   UNL     1      -2.101  12.063  22.661  0.00  0.00    +0.000 HD
ENDBRANCH  23  25
ENDBRANCH  21  23
ENDBRANCH  20  21
ENDBRANCH  10  19
TORSDOF 6
ENDMDL
MODEL 3
REMARK VINA RESULT:      -7.3      0.653      1.175
REMARK  Name = 
REMARK  8 active torsions:
REMARK  status: ('A' for Active; 'I' for Inactive)
REMARK    1  A    between atoms: C_1  and  O_2
REMARK    2  A    between atoms: O_2  and  C_3
REMARK    3  A    between atoms: C_6  and  C_7
REMARK    4  A    between atoms: C_13  and  C_14
REMARK    5  A    between atoms: C_18  and  C_19
REMARK    6  A    between atoms: N_20  and  N_21
REMARK    7  A    between atoms: N_21  and  C_22
REMARK    8  A    between atoms: C_22  and  N_23
REMARK                            x       y       z     vdW  Elec       q    Type
REMARK                         _______ _______ _______ _____ _____    ______ ____
ROOT
ATOM      1  C   UNL     1       2.759   6.087  19.349  0.00  0.00    +0.000 A 
ATOM      2  C   UNL     1       2.127   7.141  20.032  0.00  0.00    +0.000 A 
ATOM      3  C   UNL     1       1.929   8.378  19.390  0.00  0.00    +0.000 A 
ATOM      4  C   UNL     1       1.259   9.609  19.709  0.00  0.00    +0.000 A 
ATOM      5  C   UNL     1       1.407  10.409  18.582  0.00  0.00    +0.000 A 
ATOM      6  C   UNL     1       0.969  11.760  18.168  0.00  0.00    +0.000 C 
ATOM      7  O   UNL     1       2.128   9.754  17.625  0.00  0.00    +0.000 OA
ATOM      8  C   UNL     1       2.428   8.523  18.107  0.00  0.00    +0.000 A 
ATOM      9  C   UNL     1       3.118   7.535  17.411  0.00  0.00    +0.000 A 
ATOM     10  C   UNL     1       3.271   6.298  18.059  0.00  0.00    +0.000 A 
ENDROOT
BRANCH   4  11
ATOM     11  C   UNL     1       0.506   9.945  20.917  0.00  0.00    +0.000 A 
ATOM     12  C   UNL     1       0.726   9.241  22.113  0.00  0.00    +0.000 A 
ATOM     13  C   UNL     1      -0.050   9.484  23.250  0.00  0.00    +0.000 A 
ATOM     14  C   UNL     1      -1.028  10.473  23.224  0.00  0.00    +0.000 A 
ATOM     15  C   UNL     1      -1.242  11.202  22.058  0.00  0.00    +0.000 A 
ATOM     16  C   UNL     1      -0.498  10.923  20.908  0.00  0.00    +0.000 A 
ENDBRANCH   4  11
BRANCH   1  18
ATOM     17  C   UNL     1       1.653   4.139  20.097  0.00  0.00    +0.000 C 
ATOM     18  O   UNL     1       2.887   4.839  19.911  0.00  0.00    +0.000 OA
ENDBRANCH   1  18
BRANCH  10  19
ATOM     19  C   UNL     1       3.953   5.206  17.330  0.00  0.00    +0.000 C 
ATOM     20  N   UNL     1       4.865   5.458  16.441  0.00  0.00    +0.000 NA
BRANCH  20  21
ATOM     21  N   UNL     1       5.421   4.363  15.834  0.00  0.00    +0.000 N 
ATOM     22  H   UNL     1       5.155   3.427  16.131  0.00  0.00    +0.000 HD
BRANCH  21  23
ATOM     23  C   UNL     1       6.352   4.495  14.849  0.00  0.00    +0.000 C 
ATOM     24  S   UNL     1       6.149   3.825  13.342  0.00  0.00    +0.000 S 
BRANCH  23  25
ATOM     25  N   UNL     1       7.450   5.220  15.167  0.00  0.00    +0.000 N 
ATOM     26  H   UNL     1       7.419   6.209  14.958  0.00  0.00    +0.000 HD
ATOM     27  H   UNL     1       8.250   4.806  15.620  0.00  0.00    +0.000 HD
ENDBRANCH  23  25
ENDBRANCH  21  23
ENDBRANCH  20  21
ENDBRANCH  10  19
TORSDOF 6
ENDMDL
MODEL 4
REMARK VINA RESULT:      -7.3      2.427      4.554
REMARK  Name = 
REMARK  8 active torsions:
REMARK  status: ('A' for Active; 'I' for Inactive)
REMARK    1  A    between atoms: C_1  and  O_2
REMARK    2  A    between atoms: O_2  and  C_3
REMARK    3  A    between atoms: C_6  and  C_7
REMARK    4  A    between atoms: C_13  and  C_14
REMARK    5  A    between atoms: C_18  and  C_19
REMARK    6  A    between atoms: N_20  and  N_21
REMARK    7  A    between atoms: N_21  and  C_22
REMARK    8  A    between atoms: C_22  and  N_23
REMARK                            x       y       z     vdW  Elec       q    Type
REMARK                         _______ _______ _______ _____ _____    ______ ____
ROOT
ATOM      1  C   UNL     1       5.019   6.090  16.513  0.00  0.00    +0.000 A 
ATOM      2  C   UNL     1       4.103   6.684  17.399  0.00  0.00    +0.000 A 
ATOM      3  C   UNL     1       3.201   5.880  18.123  0.00  0.00    +0.000 A 
ATOM      4  C   UNL     1       2.226   6.100  19.157  0.00  0.00    +0.000 A 
ATOM      5  C   UNL     1       1.726   4.840  19.463  0.00  0.00    +0.000 A 
ATOM      6  C   UNL     1       0.744   4.285  20.420  0.00  0.00    +0.000 C 
ATOM      7  O   UNL     1       2.316   3.892  18.677  0.00  0.00    +0.000 OA
ATOM      8  C   UNL     1       3.218   4.518  17.882  0.00  0.00    +0.000 A 
ATOM      9  C   UNL     1       4.057   3.887  16.969  0.00  0.00    +0.000 A 
ATOM     10  C   UNL     1       4.972   4.705  16.285  0.00  0.00    +0.000 A 
ENDROOT
BRANCH   4  11
ATOM     11  C   UNL     1       1.875   7.356  19.821  0.00  0.00    +0.000 A 
ATOM     12  C   UNL     1       1.717   7.404  21.216  0.00  0.00    +0.000 A 
ATOM     13  C   UNL     1       1.289   8.571  21.856  0.00  0.00    +0.000 A 
ATOM     14  C   UNL     1       1.060   9.725  21.115  0.00  0.00    +0.000 A 
ATOM     15  C   UNL     1       1.239   9.706  19.735  0.00  0.00    +0.000 A 
ATOM     16  C   UNL     1       1.619   8.525  19.092  0.00  0.00    +0.000 A 
ENDBRANCH   4  11
BRANCH   1  18
ATOM     17  C   UNL     1       7.069   7.249  16.680  0.00  0.00    +0.000 C 
ATOM     18  O   UNL     1       5.973   6.833  15.860  0.00  0.00    +0.000 OA
ENDBRANCH   1  18
BRANCH  10  19
ATOM     19  C   UNL     1       5.918   4.064  15.345  0.00  0.00    +0.000 C 
ATOM     20  N   UNL     1       5.660   3.998  14.074  0.00  0.00    +0.000 NA
BRANCH  20  21
ATOM     21  N   UNL     1       6.611   3.379  13.307  0.00  0.00    +0.000 N 
ATOM     22  H   UNL     1       7.576   3.340  13.627  0.00  0.00    +0.000 HD
BRANCH  21  23
ATOM     23  C   UNL     1       6.301   2.830  12.100  0.00  0.00    +0.000 C 
ATOM     24  S   UNL     1       4.790   2.969  11.424  0.00  0.00    +0.000 S 
BRANCH  23  25
ATOM     25  N   UNL     1       7.306   2.172  11.474  0.00  0.00    +0.000 N 
ATOM     26  H   UNL     1       7.719   2.630  10.672  0.00  0.00    +0.000 HD
ATOM     27  H   UNL     1       7.652   1.286  11.807  0.00  0.00    +0.000 HD
ENDBRANCH  23  25
ENDBRANCH  21  23
ENDBRANCH  20  21
ENDBRANCH  10  19
TORSDOF 6
ENDMDL
MODEL 5
REMARK VINA RESULT:      -7.3      4.373      8.316
REMARK  Name = 
REMARK  8 active torsions:
REMARK  status: ('A' for Active; 'I' for Inactive)
REMARK    1  A    between atoms: C_1  and  O_2
REMARK    2  A    between atoms: O_2  and  C_3
REMARK    3  A    between atoms: C_6  and  C_7
REMARK    4  A    between atoms: C_13  and  C_14
REMARK    5  A    between atoms: C_18  and  C_19
REMARK    6  A    between atoms: N_20  and  N_21
REMARK    7  A    between atoms: N_21  and  C_22
REMARK    8  A    between atoms: C_22  and  N_23
REMARK                            x       y       z     vdW  Elec       q    Type
REMARK                         _______ _______ _______ _____ _____    ______ ____
ROOT
ATOM      1  C   UNL     1       1.845   8.037  19.566  0.00  0.00    +0.000 A 
ATOM      2  C   UNL     1       2.837   7.328  18.867  0.00  0.00    +0.000 A 
ATOM      3  C   UNL     1       3.130   5.996  19.216  0.00  0.00    +0.000 A 
ATOM      4  C   UNL     1       3.969   4.953  18.691  0.00  0.00    +0.000 A 
ATOM      5  C   UNL     1       3.731   3.849  19.499  0.00  0.00    +0.000 A 
ATOM      6  C   UNL     1       4.193   2.444  19.551  0.00  0.00    +0.000 C 
ATOM      7  O   UNL     1       2.829   4.161  20.476  0.00  0.00    +0.000 OA
ATOM      8  C   UNL     1       2.454   5.451  20.294  0.00  0.00    +0.000 A 
ATOM      9  C   UNL     1       1.512   6.129  21.061  0.00  0.00    +0.000 A 
ATOM     10  C   UNL     1       1.210   7.444  20.671  0.00  0.00    +0.000 A 
ENDROOT
BRANCH   4  11
ATOM     11  C   UNL     1       4.834   4.993  17.511  0.00  0.00    +0.000 A 
ATOM     12  C   UNL     1       4.528   4.220  16.378  0.00  0.00    +0.000 A 
ATOM     13  C   UNL     1       5.393   4.172  15.280  0.00  0.00    +0.000 A 
ATOM     14  C   UNL     1       6.554   4.937  15.277  0.00  0.00    +0.000 A 
ATOM     15  C   UNL     1       6.859   5.732  16.378  0.00  0.00    +0.000 A 
ATOM     16  C   UNL     1       6.018   5.740  17.494  0.00  0.00    +0.000 A 
ENDBRANCH   4  11
BRANCH   1  18
ATOM     17  C   UNL     1       1.877   9.687  17.878  0.00  0.00    +0.000 C 
ATOM     18  O   UNL     1       1.469   9.306  19.195  0.00  0.00    +0.000 OA
ENDBRANCH   1  18
BRANCH  10  19
ATOM     19  C   UNL     1       0.175   8.180  21.429  0.00  0.00    +0.000 C 
ATOM     20  N   UNL     1       0.497   9.014  22.370  0.00  0.00    +0.000 NA
BRANCH  20  21
ATOM     21  N   UNL     1      -0.550   9.632  23.000  0.00  0.00    +0.000 N 
ATOM     22  H   UNL     1      -1.078   9.136  23.715  0.00  0.00    +0.000 HD
BRANCH  21  23
ATOM     23  C   UNL     1      -0.926  10.900  22.674  0.00  0.00    +0.000 C 
ATOM     24  S   UNL     1      -0.107  11.806  21.547  0.00  0.00    +0.000 S 
BRANCH  23  25
ATOM     25  N   UNL     1      -2.021  11.375  23.314  0.00  0.00    +0.000 N 
ATOM     26  H   UNL     1      -2.874  11.436  22.774  0.00  0.00    +0.000 HD
ATOM     27  H   UNL     1      -2.000  11.627  24.290  0.00  0.00    +0.000 HD
ENDBRANCH  23  25
ENDBRANCH  21  23
ENDBRANCH  20  21
ENDBRANCH  10  19
TORSDOF 6
ENDMDL
MODEL 6
REMARK VINA RESULT:      -7.3      4.426      8.374
REMARK  Name = 
REMARK  8 active torsions:
REMARK  status: ('A' for Active; 'I' for Inactive)
REMARK    1  A    between atoms: C_1  and  O_2
REMARK    2  A    between atoms: O_2  and  C_3
REMARK    3  A    between atoms: C_6  and  C_7
REMARK    4  A    between atoms: C_13  and  C_14
REMARK    5  A    between atoms: C_18  and  C_19
REMARK    6  A    between atoms: N_20  and  N_21
REMARK    7  A    between atoms: N_21  and  C_22
REMARK    8  A    between atoms: C_22  and  N_23
REMARK                            x       y       z     vdW  Elec       q    Type
REMARK                         _______ _______ _______ _____ _____    ______ ____
ROOT
ATOM      1  C   UNL     1       2.113   8.698  18.258  0.00  0.00    +0.000 A 
ATOM      2  C   UNL     1       3.082   7.801  17.775  0.00  0.00    +0.000 A 
ATOM      3  C   UNL     1       3.358   6.615  18.481  0.00  0.00    +0.000 A 
ATOM      4  C   UNL     1       4.171   5.450  18.260  0.00  0.00    +0.000 A 
ATOM      5  C   UNL     1       3.928   4.621  19.349  0.00  0.00    +0.000 A 
ATOM      6  C   UNL     1       4.368   3.278  19.788  0.00  0.00    +0.000 C 
ATOM      7  O   UNL     1       3.047   5.213  20.208  0.00  0.00    +0.000 OA
ATOM      8  C   UNL     1       2.691   6.407  19.675  0.00  0.00    +0.000 A 
ATOM      9  C   UNL     1       1.772   7.292  20.231  0.00  0.00    +0.000 A 
ATOM     10  C   UNL     1       1.486   8.451  19.491  0.00  0.00    +0.000 A 
ENDROOT
BRANCH   4  11
ATOM     11  C   UNL     1       5.018   5.140  17.107  0.00  0.00    +0.000 A 
ATOM     12  C   UNL     1       6.251   5.791  16.934  0.00  0.00    +0.000 A 
ATOM     13  C   UNL     1       7.028   5.577  15.791  0.00  0.00    +0.000 A 
ATOM     14  C   UNL     1       6.606   4.669  14.826  0.00  0.00    +0.000 A 
ATOM     15  C   UNL     1       5.402   3.992  14.993  0.00  0.00    +0.000 A 
ATOM     16  C   UNL     1       4.604   4.245  16.113  0.00  0.00    +0.000 A 
ENDBRANCH   4  11
BRANCH   1  18
ATOM     17  C   UNL     1       2.412  11.020  17.960  0.00  0.00    +0.000 C 
ATOM     18  O   UNL     1       1.752   9.819  17.550  0.00  0.00    +0.000 OA
ENDBRANCH   1  18
BRANCH  10  19
ATOM     19  C   UNL     1       0.475   9.391  20.024  0.00  0.00    +0.000 C 
ATOM     20  N   UNL     1       0.703  10.087  21.095  0.00  0.00    +0.000 NA
BRANCH  20  21
ATOM     21  N   UNL     1      -0.310  10.920  21.489  0.00  0.00    +0.000 N 
ATOM     22  H   UNL     1      -0.593  11.694  20.894  0.00  0.00    +0.000 HD
BRANCH  21  23
ATOM     23  C   UNL     1      -0.940  10.752  22.685  0.00  0.00    +0.000 C 
ATOM     24  S   UNL     1      -2.063  11.837  23.256  0.00  0.00    +0.000 S 
BRANCH  23  25
ATOM     25  N   UNL     1      -0.607   9.637  23.378  0.00  0.00    +0.000 N 
ATOM     26  H   UNL     1      -1.208   9.385  24.152  0.00  0.00    +0.000 HD
ATOM     27  H   UNL     1       0.182   9.065  23.120  0.00  0.00    +0.000 HD
ENDBRANCH  23  25
ENDBRANCH  21  23
ENDBRANCH  20  21
ENDBRANCH  10  19
TORSDOF 6
ENDMDL
MODEL 7
REMARK VINA RESULT:      -7.1      4.339      6.942
REMARK  Name = 
REMARK  8 active torsions:
REMARK  status: ('A' for Active; 'I' for Inactive)
REMARK    1  A    between atoms: C_1  and  O_2
REMARK    2  A    between atoms: O_2  and  C_3
REMARK    3  A    between atoms: C_6  and  C_7
REMARK    4  A    between atoms: C_13  and  C_14
REMARK    5  A    between atoms: C_18  and  C_19
REMARK    6  A    between atoms: N_20  and  N_21
REMARK    7  A    between atoms: N_21  and  C_22
REMARK    8  A    between atoms: C_22  and  N_23
REMARK                            x       y       z     vdW  Elec       q    Type
REMARK                         _______ _______ _______ _____ _____    ______ ____
ROOT
ATOM      1  C   UNL     1       1.124   9.416  19.657  0.00  0.00    +0.000 A 
ATOM      2  C   UNL     1       1.228   8.017  19.746  0.00  0.00    +0.000 A 
ATOM      3  C   UNL     1       2.105   7.320  18.893  0.00  0.00    +0.000 A 
ATOM      4  C   UNL     1       2.547   5.959  18.758  0.00  0.00    +0.000 A 
ATOM      5  C   UNL     1       3.481   5.977  17.730  0.00  0.00    +0.000 A 
ATOM      6  C   UNL     1       4.359   4.987  17.067  0.00  0.00    +0.000 C 
ATOM      7  O   UNL     1       3.615   7.241  17.231  0.00  0.00    +0.000 OA
ATOM      8  C   UNL     1       2.797   8.054  17.945  0.00  0.00    +0.000 A 
ATOM      9  C   UNL     1       2.682   9.429  17.771  0.00  0.00    +0.000 A 
ATOM     10  C   UNL     1       1.828  10.107  18.657  0.00  0.00    +0.000 A 
ENDROOT
BRANCH   4  11
ATOM     11  C   UNL     1       2.173   4.799  19.568  0.00  0.00    +0.000 A 
ATOM     12  C   UNL     1       1.379   3.776  19.024  0.00  0.00    +0.000 A 
ATOM     13  C   UNL     1       0.933   2.709  19.810  0.00  0.00    +0.000 A 
ATOM     14  C   UNL     1       1.317   2.623  21.144  0.00  0.00    +0.000 A 
ATOM     15  C   UNL     1       2.128   3.610  21.694  0.00  0.00    +0.000 A 
ATOM     16  C   UNL     1       2.531   4.701  20.919  0.00  0.00    +0.000 A 
ENDBRANCH   4  11
BRANCH   1  18
ATOM     17  C   UNL     1       0.587   9.853  21.914  0.00  0.00    +0.000 C 
ATOM     18  O   UNL     1       0.348  10.137  20.533  0.00  0.00    +0.000 OA
ENDBRANCH   1  18
BRANCH  10  19
ATOM     19  C   UNL     1       1.718  11.577  18.538  0.00  0.00    +0.000 C 
ATOM     20  N   UNL     1       2.625  12.270  17.919  0.00  0.00    +0.000 NA
BRANCH  20  21
ATOM     21  N   UNL     1       2.412  13.623  17.877  0.00  0.00    +0.000 N 
ATOM     22  H   UNL     1       1.558  13.992  17.466  0.00  0.00    +0.000 HD
BRANCH  21  23
ATOM     23  C   UNL     1       3.338  14.501  18.354  0.00  0.00    +0.000 C 
ATOM     24  S   UNL     1       3.373  14.977  19.945  0.00  0.00    +0.000 S 
BRANCH  23  25
ATOM     25  N   UNL     1       4.242  14.954  17.452  0.00  0.00    +0.000 N 
ATOM     26  H   UNL     1       3.923  15.662  16.804  0.00  0.00    +0.000 HD
ATOM     27  H   UNL     1       5.196  14.629  17.444  0.00  0.00    +0.000 HD
ENDBRANCH  23  25
ENDBRANCH  21  23
ENDBRANCH  20  21
ENDBRANCH  10  19
TORSDOF 6
ENDMDL
MODEL 8
REMARK VINA RESULT:      -7.0      4.995      8.370
REMARK  Name = 
REMARK  8 active torsions:
REMARK  status: ('A' for Active; 'I' for Inactive)
REMARK    1  A    between atoms: C_1  and  O_2
REMARK    2  A    between atoms: O_2  and  C_3
REMARK    3  A    between atoms: C_6  and  C_7
REMARK    4  A    between atoms: C_13  and  C_14
REMARK    5  A    between atoms: C_18  and  C_19
REMARK    6  A    between atoms: N_20  and  N_21
REMARK    7  A    between atoms: N_21  and  C_22
REMARK    8  A    between atoms: C_22  and  N_23
REMARK                            x       y       z     vdW  Elec       q    Type
REMARK                         _______ _______ _______ _____ _____    ______ ____
ROOT
ATOM      1  C   UNL     1       1.202   9.541  19.191  0.00  0.00    +0.000 A 
ATOM      2  C   UNL     1       2.072   8.595  18.622  0.00  0.00    +0.000 A 
ATOM      3  C   UNL     1       2.278   7.355  19.257  0.00  0.00    +0.000 A 
ATOM      4  C   UNL     1       2.981   6.141  18.944  0.00  0.00    +0.000 A 
ATOM      5  C   UNL     1       2.715   5.280  20.002  0.00  0.00    +0.000 A 
ATOM      6  C   UNL     1       3.060   3.886  20.356  0.00  0.00    +0.000 C 
ATOM      7  O   UNL     1       1.924   5.897  20.928  0.00  0.00    +0.000 OA
ATOM      8  C   UNL     1       1.646   7.142  20.470  0.00  0.00    +0.000 A 
ATOM      9  C   UNL     1       0.828   8.068  21.108  0.00  0.00    +0.000 A 
ATOM     10  C   UNL     1       0.609   9.283  20.438  0.00  0.00    +0.000 A 
ENDROOT
BRANCH   4  11
ATOM     11  C   UNL     1       3.750   5.823  17.740  0.00  0.00    +0.000 A 
ATOM     12  C   UNL     1       3.829   4.499  17.275  0.00  0.00    +0.000 A 
ATOM     13  C   UNL     1       4.635   4.163  16.184  0.00  0.00    +0.000 A 
ATOM     14  C   UNL     1       5.338   5.154  15.508  0.00  0.00    +0.000 A 
ATOM     15  C   UNL     1       5.250   6.476  15.935  0.00  0.00    +0.000 A 
ATOM     16  C   UNL     1       4.482   6.802  17.057  0.00  0.00    +0.000 A 
ENDBRANCH   4  11
BRANCH   1  18
ATOM     17  C   UNL     1       2.029  11.585  18.349  0.00  0.00    +0.000 C 
ATOM     18  O   UNL     1       0.907  10.723  18.554  0.00  0.00    +0.000 OA
ENDBRANCH   1  18
BRANCH  10  19
ATOM     19  C   UNL     1      -0.297  10.274  21.061  0.00  0.00    +0.000 C 
ATOM     20  N   UNL     1       0.123  11.077  21.990  0.00  0.00    +0.000 NA
BRANCH  20  21
ATOM     21  N   UNL     1      -0.811  11.947  22.489  0.00  0.00    +0.000 N 
ATOM     22  H   UNL     1      -1.690  11.593  22.857  0.00  0.00    +0.000 HD
BRANCH  21  23
ATOM     23  C   UNL     1      -0.601  13.293  22.482  0.00  0.00    +0.000 C 
ATOM     24  S   UNL     1      -1.440  14.326  23.477  0.00  0.00    +0.000 S 
BRANCH  23  25
ATOM     25  N   UNL     1       0.345  13.739  21.622  0.00  0.00    +0.000 N 
ATOM     26  H   UNL     1       0.090  14.517  21.028  0.00  0.00    +0.000 HD
ATOM     27  H   UNL     1       1.271  13.340  21.593  0.00  0.00    +0.000 HD
ENDBRANCH  23  25
ENDBRANCH  21  23
ENDBRANCH  20  21
ENDBRANCH  10  19
TORSDOF 6
ENDMDL
MODEL 9
REMARK VINA RESULT:      -7.0      4.318      6.939
REMARK  Name = 
REMARK  8 active torsions:
REMARK  status: ('A' for Active; 'I' for Inactive)
REMARK    1  A    between atoms: C_1  and  O_2
REMARK    2  A    between atoms: O_2  and  C_3
REMARK    3  A    between atoms: C_6  and  C_7
REMARK    4  A    between atoms: C_13  and  C_14
REMARK    5  A    between atoms: C_18  and  C_19
REMARK    6  A    between atoms: N_20  and  N_21
REMARK    7  A    between atoms: N_21  and  C_22
REMARK    8  A    between atoms: C_22  and  N_23
REMARK                            x       y       z     vdW  Elec       q    Type
REMARK                         _______ _______ _______ _____ _____    ______ ____
ROOT
ATOM      1  C   UNL     1       1.160   9.427  19.770  0.00  0.00    +0.000 A 
ATOM      2  C   UNL     1       1.224   8.026  19.866  0.00  0.00    +0.000 A 
ATOM      3  C   UNL     1       2.046   7.297  18.986  0.00  0.00    +0.000 A 
ATOM      4  C   UNL     1       2.439   5.921  18.845  0.00  0.00    +0.000 A 
ATOM      5  C   UNL     1       3.334   5.903  17.782  0.00  0.00    +0.000 A 
ATOM      6  C   UNL     1       4.154   4.882  17.095  0.00  0.00    +0.000 C 
ATOM      7  O   UNL     1       3.487   7.159  17.269  0.00  0.00    +0.000 OA
ATOM      8  C   UNL     1       2.724   8.001  18.007  0.00  0.00    +0.000 A 
ATOM      9  C   UNL     1       2.644   9.379  17.827  0.00  0.00    +0.000 A 
ATOM     10  C   UNL     1       1.846  10.089  18.739  0.00  0.00    +0.000 A 
ENDROOT
BRANCH   4  11
ATOM     11  C   UNL     1       2.061   4.779  19.679  0.00  0.00    +0.000 A 
ATOM     12  C   UNL     1       2.495   4.696  21.012  0.00  0.00    +0.000 A 
ATOM     13  C   UNL     1       2.223   3.568  21.793  0.00  0.00    +0.000 A 
ATOM     14  C   UNL     1       1.468   2.525  21.266  0.00  0.00    +0.000 A 
ATOM     15  C   UNL     1       1.004   2.602  19.957  0.00  0.00    +0.000 A 
ATOM     16  C   UNL     1       1.319   3.708  19.163  0.00  0.00    +0.000 A 
ENDBRANCH   4  11
BRANCH   1  18
ATOM     17  C   UNL     1      -0.030   9.454  21.809  0.00  0.00    +0.000 C 
ATOM     18  O   UNL     1       0.440  10.178  20.669  0.00  0.00    +0.000 OA
ENDBRANCH   1  18
BRANCH  10  19
ATOM     19  C   UNL     1       1.778  11.561  18.612  0.00  0.00    +0.000 C 
ATOM     20  N   UNL     1       2.572  12.204  17.811  0.00  0.00    +0.000 NA
BRANCH  20  21
ATOM     21  N   UNL     1       2.413  13.564  17.783  0.00  0.00    +0.000 N 
ATOM     22  H   UNL     1       1.646  13.977  17.258  0.00  0.00    +0.000 HD
BRANCH  21  23
ATOM     23  C   UNL     1       3.282  14.393  18.427  0.00  0.00    +0.000 C 
ATOM     24  S   UNL     1       2.912  15.112  19.878  0.00  0.00    +0.000 S 
BRANCH  23  25
ATOM     25  N   UNL     1       4.476  14.585  17.818  0.00  0.00    +0.000 N 
ATOM     26  H   UNL     1       4.829  15.532  17.796  0.00  0.00    +0.000 HD
ATOM     27  H   UNL     1       5.008  13.820  17.432  0.00  0.00    +0.000 HD
ENDBRANCH  23  25
ENDBRANCH  21  23
ENDBRANCH  20  21
ENDBRANCH  10  19
TORSDOF 6
ENDMDL
