MODEL 1
REMARK VINA RESULT:      -8.0      0.000      0.000
REMARK  Name = 
REMARK  8 active torsions:
REMARK  status: ('A' for Active; 'I' for Inactive)
REMARK    1  A    between atoms: C_1  and  O_2
REMARK    2  A    between atoms: O_2  and  C_3
REMARK    3  A    between atoms: N_9  and  C_10
REMARK    4  A    between atoms: C_10  and  C_11
REMARK    5  A    between atoms: C_17  and  C_19
REMARK    6  A    between atoms: C_19  and  C_20
REMARK    7  A    between atoms: C_20  and  N_21
REMARK    8  A    between atoms: C_22  and  C_23
REMARK                            x       y       z     vdW  Elec       q    Type
REMARK                         _______ _______ _______ _____ _____    ______ ____
ROOT
ATOM      1  C   UNL     1       0.022  10.442  20.333  0.00  0.00    +0.000 A 
ATOM      2  C   UNL     1      -0.053   9.558  21.406  0.00  0.00    +0.000 A 
ATOM      3  C   UNL     1       0.669   8.356  21.394  0.00  0.00    +0.000 A 
ATOM      4  C   UNL     1       1.456   8.013  20.276  0.00  0.00    +0.000 A 
ATOM      5  N   UNL     1       2.208   6.853  20.126  0.00  0.00    +0.000 NA
ATOM      6  C   UNL     1       2.705   6.824  18.912  0.00  0.00    +0.000 A 
ATOM      7  N   UNL     1       3.326   5.737  18.304  0.00  0.00    +0.000 N 
ATOM      8  C   UNL     1       2.424   4.764  17.865  0.00  0.00    +0.000 C 
ATOM      9  O   UNL     1       1.206   4.945  17.809  0.00  0.00    +0.000 OA
ATOM     10  S   UNL     1       2.440   8.207  17.944  0.00  0.00    +0.000 S 
ATOM     11  C   UNL     1       1.479   8.895  19.192  0.00  0.00    +0.000 A 
ATOM     12  C   UNL     1       0.780  10.114  19.204  0.00  0.00    +0.000 A 
ENDROOT
BRANCH   1  14
ATOM     13  C   UNL     1      -1.515  11.798  19.152  0.00  0.00    +0.000 C 
ATOM     14  O   UNL     1      -0.633  11.643  20.260  0.00  0.00    +0.000 OA
ENDBRANCH   1  14
BRANCH   7  15
ATOM     15  C   UNL     1       4.767   5.503  18.488  0.00  0.00    +0.000 C 
BRANCH  15  16
ATOM     16  C   UNL     1       5.543   5.318  17.198  0.00  0.00    +0.000 A 
ATOM     17  C   UNL     1       5.114   5.976  16.035  0.00  0.00    +0.000 A 
ATOM     18  C   UNL     1       5.748   5.745  14.812  0.00  0.00    +0.000 A 
ATOM     19  C   UNL     1       6.822   4.861  14.738  0.00  0.00    +0.000 A 
ATOM     20  C   UNL     1       7.308   4.265  15.897  0.00  0.00    +0.000 A 
ATOM     21  C   UNL     1       6.697   4.523  17.124  0.00  0.00    +0.000 A 
ENDBRANCH  15  16
ENDBRANCH   7  15
BRANCH   8  22
ATOM     22  C   UNL     1       3.011   3.449  17.380  0.00  0.00    +0.000 C 
BRANCH  22  23
ATOM     23  C   UNL     1       2.369   2.265  18.103  0.00  0.00    +0.000 C 
BRANCH  23  24
ATOM     24  N   UNL     1       1.894   2.595  19.433  0.00  0.00    +0.000 N 
ATOM     25  C   UNL     1       2.747   2.672  20.517  0.00  0.00    +0.000 C 
ATOM     26  C   UNL     1       2.105   3.195  21.772  0.00  0.00    +0.000 C 
ATOM     27  O   UNL     1       3.924   2.333  20.482  0.00  0.00    +0.000 OA
ATOM     28  H   UNL     1       0.990   3.048  19.504  0.00  0.00    +0.000 HD
ENDBRANCH  23  24
ENDBRANCH  22  23
ENDBRANCH   8  22
TORSDOF 6
ENDMDL
MODEL 2
REMARK VINA RESULT:      -8.0      1.364      1.804
REMARK  Name = 
REMARK  8 active torsions:
REMARK  status: ('A' for Active; 'I' for Inactive)
REMARK    1  A    between atoms: C_1  and  O_2
REMARK    2  A    between atoms: O_2  and  C_3
REMARK    3  A    between atoms: N_9  and  C_10
REMARK    4  A    between atoms: C_10  and  C_11
REMARK    5  A    between atoms: C_17  and  C_19
REMARK    6  A    between atoms: C_19  and  C_20
REMARK    7  A    between atoms: C_20  and  N_21
REMARK    8  A    between atoms: C_22  and  C_23
REMARK                            x       y       z     vdW  Elec       q    Type
REMARK                         _______ _______ _______ _____ _____    ______ ____
ROOT
ATOM      1  C   UNL     1       0.902  10.062  19.831  0.00  0.00    +0.000 A 
ATOM      2  C   UNL     1       0.609   9.239  20.915  0.00  0.00    +0.000 A 
ATOM      3  C   UNL     1       1.118   7.934  20.981  0.00  0.00    +0.000 A 
ATOM      4  C   UNL     1       1.908   7.428  19.928  0.00  0.00    +0.000 A 
ATOM      5  N   UNL     1       2.462   6.155  19.857  0.00  0.00    +0.000 NA
ATOM      6  C   UNL     1       3.025   6.003  18.683  0.00  0.00    +0.000 A 
ATOM      7  N   UNL     1       3.493   4.807  18.144  0.00  0.00    +0.000 N 
ATOM      8  C   UNL     1       2.470   3.984  17.664  0.00  0.00    +0.000 C 
ATOM      9  O   UNL     1       1.306   4.362  17.520  0.00  0.00    +0.000 OA
ATOM     10  S   UNL     1       3.060   7.376  17.667  0.00  0.00    +0.000 S 
ATOM     11  C   UNL     1       2.149   8.256  18.829  0.00  0.00    +0.000 A 
ATOM     12  C   UNL     1       1.666   9.574  18.765  0.00  0.00    +0.000 A 
ENDROOT
BRANCH   1  14
ATOM     13  C   UNL     1       1.407  12.264  19.129  0.00  0.00    +0.000 C 
ATOM     14  O   UNL     1       0.464  11.352  19.685  0.00  0.00    +0.000 OA
ENDBRANCH   1  14
BRANCH   7  15
ATOM     15  C   UNL     1       4.859   4.343  18.434  0.00  0.00    +0.000 C 
BRANCH  15  16
ATOM     16  C   UNL     1       5.944   5.358  18.128  0.00  0.00    +0.000 A 
ATOM     17  C   UNL     1       6.933   5.621  19.088  0.00  0.00    +0.000 A 
ATOM     18  C   UNL     1       7.884   6.621  18.874  0.00  0.00    +0.000 A 
ATOM     19  C   UNL     1       7.864   7.365  17.697  0.00  0.00    +0.000 A 
ATOM     20  C   UNL     1       6.939   7.060  16.703  0.00  0.00    +0.000 A 
ATOM     21  C   UNL     1       6.012   6.037  16.902  0.00  0.00    +0.000 A 
ENDBRANCH  15  16
ENDBRANCH   7  15
BRANCH   8  22
ATOM     22  C   UNL     1       2.858   2.574  17.251  0.00  0.00    +0.000 C 
BRANCH  22  23
ATOM     23  C   UNL     1       2.788   1.617  18.441  0.00  0.00    +0.000 C 
BRANCH  23  24
ATOM     24  N   UNL     1       1.914   2.083  19.501  0.00  0.00    +0.000 N 
ATOM     25  C   UNL     1       2.403   2.494  20.725  0.00  0.00    +0.000 C 
ATOM     26  C   UNL     1       1.368   3.106  21.630  0.00  0.00    +0.000 C 
ATOM     27  O   UNL     1       3.572   2.366  21.069  0.00  0.00    +0.000 OA
ATOM     28  H   UNL     1       0.980   2.377  19.236  0.00  0.00    +0.000 HD
ENDBRANCH  23  24
ENDBRANCH  22  23
ENDBRANCH   8  22
TORSDOF 6
ENDMDL
MODEL 3
REMARK VINA RESULT:      -7.9      1.010      1.082
REMARK  Name = 
REMARK  8 active torsions:
REMARK  status: ('A' for Active; 'I' for Inactive)
REMARK    1  A    between atoms: C_1  and  O_2
REMARK    2  A    between atoms: O_2  and  C_3
REMARK    3  A    between atoms: N_9  and  C_10
REMARK    4  A    between atoms: C_10  and  C_11
REMARK    5  A    between atoms: C_17  and  C_19
REMARK    6  A    between atoms: C_19  and  C_20
REMARK    7  A    between atoms: C_20  and  N_21
REMARK    8  A    between atoms: C_22  and  C_23
REMARK                            x       y       z     vdW  Elec       q    Type
REMARK                         _______ _______ _______ _____ _____    ______ ____
ROOT
ATOM      1  C   UNL     1       0.784  10.069  19.996  0.00  0.00    +0.000 A 
ATOM      2  C   UNL     1       0.624   9.249  21.110  0.00  0.00    +0.000 A 
ATOM      3  C   UNL     1       1.179   7.961  21.136  0.00  0.00    +0.000 A 
ATOM      4  C   UNL     1       1.880   7.469  20.016  0.00  0.00    +0.000 A 
ATOM      5  N   UNL     1       2.467   6.214  19.902  0.00  0.00    +0.000 NA
ATOM      6  C   UNL     1       2.918   6.067  18.680  0.00  0.00    +0.000 A 
ATOM      7  N   UNL     1       3.371   4.881  18.108  0.00  0.00    +0.000 N 
ATOM      8  C   UNL     1       2.334   4.020  17.735  0.00  0.00    +0.000 C 
ATOM      9  O   UNL     1       1.150   4.360  17.701  0.00  0.00    +0.000 OA
ATOM     10  S   UNL     1       2.810   7.430  17.655  0.00  0.00    +0.000 S 
ATOM     11  C   UNL     1       1.988   8.293  18.893  0.00  0.00    +0.000 A 
ATOM     12  C   UNL     1       1.457   9.594  18.865  0.00  0.00    +0.000 A 
ENDROOT
BRANCH   1  14
ATOM     13  C   UNL     1       0.935  12.168  18.916  0.00  0.00    +0.000 C 
ATOM     14  O   UNL     1       0.292  11.343  19.883  0.00  0.00    +0.000 OA
ENDBRANCH   1  14
BRANCH   7  15
ATOM     15  C   UNL     1       4.773   4.464  18.268  0.00  0.00    +0.000 C 
BRANCH  15  16
ATOM     16  C   UNL     1       5.613   4.592  17.012  0.00  0.00    +0.000 A 
ATOM     17  C   UNL     1       6.559   5.624  16.917  0.00  0.00    +0.000 A 
ATOM     18  C   UNL     1       7.274   5.827  15.734  0.00  0.00    +0.000 A 
ATOM     19  C   UNL     1       7.060   4.997  14.636  0.00  0.00    +0.000 A 
ATOM     20  C   UNL     1       6.184   3.921  14.745  0.00  0.00    +0.000 A 
ATOM     21  C   UNL     1       5.497   3.697  15.937  0.00  0.00    +0.000 A 
ENDBRANCH  15  16
ENDBRANCH   7  15
BRANCH   8  22
ATOM     22  C   UNL     1       2.727   2.619  17.298  0.00  0.00    +0.000 C 
BRANCH  22  23
ATOM     23  C   UNL     1       2.824   1.678  18.500  0.00  0.00    +0.000 C 
BRANCH  23  24
ATOM     24  N   UNL     1       2.071   2.139  19.650  0.00  0.00    +0.000 N 
ATOM     25  C   UNL     1       2.690   2.531  20.821  0.00  0.00    +0.000 C 
ATOM     26  C   UNL     1       1.762   3.140  21.836  0.00  0.00    +0.000 C 
ATOM     27  O   UNL     1       3.888   2.388  21.039  0.00  0.00    +0.000 OA
ATOM     28  H   UNL     1       1.118   2.444  19.489  0.00  0.00    +0.000 HD
ENDBRANCH  23  24
ENDBRANCH  22  23
ENDBRANCH   8  22
TORSDOF 6
ENDMDL
MODEL 4
REMARK VINA RESULT:      -7.6      1.332      1.528
REMARK  Name = 
REMARK  8 active torsions:
REMARK  status: ('A' for Active; 'I' for Inactive)
REMARK    1  A    between atoms: C_1  and  O_2
REMARK    2  A    between atoms: O_2  and  C_3
REMARK    3  A    between atoms: N_9  and  C_10
REMARK    4  A    between atoms: C_10  and  C_11
REMARK    5  A    between atoms: C_17  and  C_19
REMARK    6  A    between atoms: C_19  and  C_20
REMARK    7  A    between atoms: C_20  and  N_21
REMARK    8  A    between atoms: C_22  and  C_23
REMARK                            x       y       z     vdW  Elec       q    Type
REMARK                         _______ _______ _______ _____ _____    ______ ____
ROOT
ATOM      1  C   UNL     1       0.445   9.968  20.361  0.00  0.00    +0.000 A 
ATOM      2  C   UNL     1       0.123   9.058  21.364  0.00  0.00    +0.000 A 
ATOM      3  C   UNL     1       0.686   7.774  21.372  0.00  0.00    +0.000 A 
ATOM      4  C   UNL     1       1.561   7.377  20.341  0.00  0.00    +0.000 A 
ATOM      5  N   UNL     1       2.176   6.137  20.218  0.00  0.00    +0.000 NA
ATOM      6  C   UNL     1       2.817   6.093  19.075  0.00  0.00    +0.000 A 
ATOM      7  N   UNL     1       3.371   4.959  18.487  0.00  0.00    +0.000 N 
ATOM      8  C   UNL     1       2.419   4.131  17.885  0.00  0.00    +0.000 C 
ATOM      9  O   UNL     1       1.251   4.471  17.691  0.00  0.00    +0.000 OA
ATOM     10  S   UNL     1       2.853   7.536  18.162  0.00  0.00    +0.000 S 
ATOM     11  C   UNL     1       1.833   8.292  19.320  0.00  0.00    +0.000 A 
ATOM     12  C   UNL     1       1.295   9.590  19.316  0.00  0.00    +0.000 A 
ENDROOT
BRANCH   1  14
ATOM     13  C   UNL     1       0.913  12.248  19.934  0.00  0.00    +0.000 C 
ATOM     14  O   UNL     1      -0.041  11.247  20.276  0.00  0.00    +0.000 OA
ENDBRANCH   1  14
BRANCH   7  15
ATOM     15  C   UNL     1       4.737   4.532  18.832  0.00  0.00    +0.000 C 
BRANCH  15  16
ATOM     16  C   UNL     1       5.819   5.524  18.453  0.00  0.00    +0.000 A 
ATOM     17  C   UNL     1       5.690   6.267  17.270  0.00  0.00    +0.000 A 
ATOM     18  C   UNL     1       6.718   7.113  16.845  0.00  0.00    +0.000 A 
ATOM     19  C   UNL     1       7.882   7.233  17.601  0.00  0.00    +0.000 A 
ATOM     20  C   UNL     1       7.988   6.564  18.816  0.00  0.00    +0.000 A 
ATOM     21  C   UNL     1       6.947   5.748  19.257  0.00  0.00    +0.000 A 
ENDBRANCH  15  16
ENDBRANCH   7  15
BRANCH   8  22
ATOM     22  C   UNL     1       2.896   2.772  17.401  0.00  0.00    +0.000 C 
BRANCH  22  23
ATOM     23  C   UNL     1       2.885   1.752  18.541  0.00  0.00    +0.000 C 
BRANCH  23  24
ATOM     24  N   UNL     1       1.951   2.086  19.599  0.00  0.00    +0.000 N 
ATOM     25  C   UNL     1       2.376   2.419  20.871  0.00  0.00    +0.000 C 
ATOM     26  C   UNL     1       1.279   2.902  21.781  0.00  0.00    +0.000 C 
ATOM     27  O   UNL     1       3.537   2.322  21.248  0.00  0.00    +0.000 OA
ATOM     28  H   UNL     1       1.013   2.353  19.323  0.00  0.00    +0.000 HD
ENDBRANCH  23  24
ENDBRANCH  22  23
ENDBRANCH   8  22
TORSDOF 6
ENDMDL
MODEL 5
REMARK VINA RESULT:      -7.5      0.553      1.078
REMARK  Name = 
REMARK  8 active torsions:
REMARK  status: ('A' for Active; 'I' for Inactive)
REMARK    1  A    between atoms: C_1  and  O_2
REMARK    2  A    between atoms: O_2  and  C_3
REMARK    3  A    between atoms: N_9  and  C_10
REMARK    4  A    between atoms: C_10  and  C_11
REMARK    5  A    between atoms: C_17  and  C_19
REMARK    6  A    between atoms: C_19  and  C_20
REMARK    7  A    between atoms: C_20  and  N_21
REMARK    8  A    between atoms: C_22  and  C_23
REMARK                            x       y       z     vdW  Elec       q    Type
REMARK                         _______ _______ _______ _____ _____    ______ ____
ROOT
ATOM      1  C   UNL     1      -0.004  10.248  20.545  0.00  0.00    +0.000 A 
ATOM      2  C   UNL     1       0.011   9.355  21.613  0.00  0.00    +0.000 A 
ATOM      3  C   UNL     1       0.774   8.179  21.551  0.00  0.00    +0.000 A 
ATOM      4  C   UNL     1       1.509   7.872  20.388  0.00  0.00    +0.000 A 
ATOM      5  N   UNL     1       2.292   6.741  20.187  0.00  0.00    +0.000 NA
ATOM      6  C   UNL     1       2.720   6.737  18.949  0.00  0.00    +0.000 A 
ATOM      7  N   UNL     1       3.345   5.676  18.298  0.00  0.00    +0.000 N 
ATOM      8  C   UNL     1       2.454   4.675  17.901  0.00  0.00    +0.000 C 
ATOM      9  O   UNL     1       1.229   4.812  17.915  0.00  0.00    +0.000 OA
ATOM     10  S   UNL     1       2.353   8.115  18.007  0.00  0.00    +0.000 S 
ATOM     11  C   UNL     1       1.440   8.761  19.312  0.00  0.00    +0.000 A 
ATOM     12  C   UNL     1       0.700   9.954  19.373  0.00  0.00    +0.000 A 
ENDROOT
BRANCH   1  14
ATOM     13  C   UNL     1       0.083  12.611  20.467  0.00  0.00    +0.000 C 
ATOM     14  O   UNL     1      -0.705  11.425  20.518  0.00  0.00    +0.000 OA
ENDBRANCH   1  14
BRANCH   7  15
ATOM     15  C   UNL     1       4.801   5.493  18.400  0.00  0.00    +0.000 C 
BRANCH  15  16
ATOM     16  C   UNL     1       5.497   5.246  17.075  0.00  0.00    +0.000 A 
ATOM     17  C   UNL     1       6.555   4.327  17.013  0.00  0.00    +0.000 A 
ATOM     18  C   UNL     1       7.279   4.155  15.830  0.00  0.00    +0.000 A 
ATOM     19  C   UNL     1       6.949   4.891  14.695  0.00  0.00    +0.000 A 
ATOM     20  C   UNL     1       5.852   5.746  14.721  0.00  0.00    +0.000 A 
ATOM     21  C   UNL     1       5.108   5.891  15.892  0.00  0.00    +0.000 A 
ENDBRANCH  15  16
ENDBRANCH   7  15
BRANCH   8  22
ATOM     22  C   UNL     1       3.059   3.384  17.374  0.00  0.00    +0.000 C 
BRANCH  22  23
ATOM     23  C   UNL     1       3.202   2.351  18.492  0.00  0.00    +0.000 C 
BRANCH  23  24
ATOM     24  N   UNL     1       2.192   2.481  19.525  0.00  0.00    +0.000 N 
ATOM     25  C   UNL     1       2.521   2.567  20.863  0.00  0.00    +0.000 C 
ATOM     26  C   UNL     1       1.358   2.873  21.767  0.00  0.00    +0.000 C 
ATOM     27  O   UNL     1       3.654   2.397  21.298  0.00  0.00    +0.000 OA
ATOM     28  H   UNL     1       1.273   2.798  19.237  0.00  0.00    +0.000 HD
ENDBRANCH  23  24
ENDBRANCH  22  23
ENDBRANCH   8  22
TORSDOF 6
ENDMDL
MODEL 6
REMARK VINA RESULT:      -7.0      2.450      7.527
REMARK  Name = 
REMARK  8 active torsions:
REMARK  status: ('A' for Active; 'I' for Inactive)
REMARK    1  A    between atoms: C_1  and  O_2
REMARK    2  A    between atoms: O_2  and  C_3
REMARK    3  A    between atoms: N_9  and  C_10
REMARK    4  A    between atoms: C_10  and  C_11
REMARK    5  A    between atoms: C_17  and  C_19
REMARK    6  A    between atoms: C_19  and  C_20
REMARK    7  A    between atoms: C_20  and  N_21
REMARK    8  A    between atoms: C_22  and  C_23
REMARK                            x       y       z     vdW  Elec       q    Type
REMARK                         _______ _______ _______ _____ _____    ______ ____
ROOT
ATOM      1  C   UNL     1       6.456   4.369  14.817  0.00  0.00    +0.000 A 
ATOM      2  C   UNL     1       7.285   5.311  15.420  0.00  0.00    +0.000 A 
ATOM      3  C   UNL     1       6.837   6.056  16.521  0.00  0.00    +0.000 A 
ATOM      4  C   UNL     1       5.526   5.881  17.009  0.00  0.00    +0.000 A 
ATOM      5  N   UNL     1       4.952   6.560  18.078  0.00  0.00    +0.000 NA
ATOM      6  C   UNL     1       3.687   6.225  18.161  0.00  0.00    +0.000 A 
ATOM      7  N   UNL     1       2.723   6.845  18.952  0.00  0.00    +0.000 N 
ATOM      8  C   UNL     1       2.277   8.059  18.424  0.00  0.00    +0.000 C 
ATOM      9  O   UNL     1       2.532   8.435  17.278  0.00  0.00    +0.000 OA
ATOM     10  S   UNL     1       3.146   5.004  17.095  0.00  0.00    +0.000 S 
ATOM     11  C   UNL     1       4.698   4.964  16.358  0.00  0.00    +0.000 A 
ATOM     12  C   UNL     1       5.144   4.193  15.270  0.00  0.00    +0.000 A 
ENDROOT
BRANCH   1  14
ATOM     13  C   UNL     1       5.830   3.472  12.719  0.00  0.00    +0.000 C 
ATOM     14  O   UNL     1       6.807   3.585  13.749  0.00  0.00    +0.000 OA
ENDBRANCH   1  14
BRANCH   7  15
ATOM     15  C   UNL     1       2.530   6.432  20.351  0.00  0.00    +0.000 C 
BRANCH  15  16
ATOM     16  C   UNL     1       2.221   4.958  20.534  0.00  0.00    +0.000 A 
ATOM     17  C   UNL     1       0.953   4.470  20.181  0.00  0.00    +0.000 A 
ATOM     18  C   UNL     1       0.608   3.140  20.432  0.00  0.00    +0.000 A 
ATOM     19  C   UNL     1       1.526   2.281  21.030  0.00  0.00    +0.000 A 
ATOM     20  C   UNL     1       2.812   2.731  21.311  0.00  0.00    +0.000 A 
ATOM     21  C   UNL     1       3.168   4.049  21.028  0.00  0.00    +0.000 A 
ENDBRANCH  15  16
ENDBRANCH   7  15
BRANCH   8  22
ATOM     22  C   UNL     1       1.385   8.911  19.312  0.00  0.00    +0.000 C 
BRANCH  22  23
ATOM     23  C   UNL     1       0.906  10.159  18.570  0.00  0.00    +0.000 C 
BRANCH  23  24
ATOM     24  N   UNL     1      -0.102   9.878  17.566  0.00  0.00    +0.000 N 
ATOM     25  C   UNL     1      -1.424  10.244  17.735  0.00  0.00    +0.000 C 
ATOM     26  C   UNL     1      -2.283  10.028  16.520  0.00  0.00    +0.000 C 
ATOM     27  O   UNL     1      -1.878  10.694  18.780  0.00  0.00    +0.000 OA
ATOM     28  H   UNL     1       0.221   9.675  16.627  0.00  0.00    +0.000 HD
ENDBRANCH  23  24
ENDBRANCH  22  23
ENDBRANCH   8  22
TORSDOF 6
ENDMDL
MODEL 7
REMARK VINA RESULT:      -7.0      2.204      4.352
REMARK  Name = 
REMARK  8 active torsions:
REMARK  status: ('A' for Active; 'I' for Inactive)
REMARK    1  A    between atoms: C_1  and  O_2
REMARK    2  A    between atoms: O_2  and  C_3
REMARK    3  A    between atoms: N_9  and  C_10
REMARK    4  A    between atoms: C_10  and  C_11
REMARK    5  A    between atoms: C_17  and  C_19
REMARK    6  A    between atoms: C_19  and  C_20
REMARK    7  A    between atoms: C_20  and  N_21
REMARK    8  A    between atoms: C_22  and  C_23
REMARK                            x       y       z     vdW  Elec       q    Type
REMARK                         _______ _______ _______ _____ _____    ______ ____
ROOT
ATOM      1  C   UNL     1       0.776  11.417  20.705  0.00  0.00    +0.000 A 
ATOM      2  C   UNL     1       0.632  11.733  19.357  0.00  0.00    +0.000 A 
ATOM      3  C   UNL     1       0.826  10.757  18.369  0.00  0.00    +0.000 A 
ATOM      4  C   UNL     1       1.206   9.448  18.731  0.00  0.00    +0.000 A 
ATOM      5  N   UNL     1       1.444   8.392  17.859  0.00  0.00    +0.000 NA
ATOM      6  C   UNL     1       1.894   7.369  18.545  0.00  0.00    +0.000 A 
ATOM      7  N   UNL     1       2.451   6.207  18.018  0.00  0.00    +0.000 N 
ATOM      8  C   UNL     1       3.767   6.379  17.579  0.00  0.00    +0.000 C 
ATOM      9  O   UNL     1       4.442   7.378  17.834  0.00  0.00    +0.000 OA
ATOM     10  S   UNL     1       1.923   7.541  20.245  0.00  0.00    +0.000 S 
ATOM     11  C   UNL     1       1.391   9.168  20.087  0.00  0.00    +0.000 A 
ATOM     12  C   UNL     1       1.173  10.131  21.087  0.00  0.00    +0.000 A 
ENDROOT
BRANCH   1  14
ATOM     13  C   UNL     1      -0.747  12.728  21.954  0.00  0.00    +0.000 C 
ATOM     14  O   UNL     1       0.594  12.296  21.741  0.00  0.00    +0.000 OA
ENDBRANCH   1  14
BRANCH   7  15
ATOM     15  C   UNL     1       1.591   5.079  17.628  0.00  0.00    +0.000 C 
BRANCH  15  16
ATOM     16  C   UNL     1       1.576   3.929  18.617  0.00  0.00    +0.000 A 
ATOM     17  C   UNL     1       1.129   4.153  19.928  0.00  0.00    +0.000 A 
ATOM     18  C   UNL     1       1.199   3.140  20.886  0.00  0.00    +0.000 A 
ATOM     19  C   UNL     1       1.707   1.889  20.545  0.00  0.00    +0.000 A 
ATOM     20  C   UNL     1       2.079   1.630  19.229  0.00  0.00    +0.000 A 
ATOM     21  C   UNL     1       1.975   2.631  18.265  0.00  0.00    +0.000 A 
ENDBRANCH  15  16
ENDBRANCH   7  15
BRANCH   8  22
ATOM     22  C   UNL     1       4.388   5.232  16.799  0.00  0.00    +0.000 C 
BRANCH  22  23
ATOM     23  C   UNL     1       5.168   4.301  17.727  0.00  0.00    +0.000 C 
BRANCH  23  24
ATOM     24  N   UNL     1       6.068   5.004  18.621  0.00  0.00    +0.000 N 
ATOM     25  C   UNL     1       7.422   5.105  18.365  0.00  0.00    +0.000 C 
ATOM     26  C   UNL     1       8.161   6.016  19.307  0.00  0.00    +0.000 C 
ATOM     27  O   UNL     1       7.991   4.503  17.463  0.00  0.00    +0.000 OA
ATOM     28  H   UNL     1       5.655   5.660  19.274  0.00  0.00    +0.000 HD
ENDBRANCH  23  24
ENDBRANCH  22  23
ENDBRANCH   8  22
TORSDOF 6
ENDMDL
MODEL 8
REMARK VINA RESULT:      -6.8      2.094      4.243
REMARK  Name = 
REMARK  8 active torsions:
REMARK  status: ('A' for Active; 'I' for Inactive)
REMARK    1  A    between atoms: C_1  and  O_2
REMARK    2  A    between atoms: O_2  and  C_3
REMARK    3  A    between atoms: N_9  and  C_10
REMARK    4  A    between atoms: C_10  and  C_11
REMARK    5  A    between atoms: C_17  and  C_19
REMARK    6  A    between atoms: C_19  and  C_20
REMARK    7  A    between atoms: C_20  and  N_21
REMARK    8  A    between atoms: C_22  and  C_23
REMARK                            x       y       z     vdW  Elec       q    Type
REMARK                         _______ _______ _______ _____ _____    ______ ____
ROOT
ATOM      1  C   UNL     1       0.791   9.552  20.569  0.00  0.00    +0.000 A 
ATOM      2  C   UNL     1       0.568  10.051  19.288  0.00  0.00    +0.000 A 
ATOM      3  C   UNL     1       1.066   9.379  18.163  0.00  0.00    +0.000 A 
ATOM      4  C   UNL     1       1.831   8.205  18.319  0.00  0.00    +0.000 A 
ATOM      5  N   UNL     1       2.395   7.451  17.296  0.00  0.00    +0.000 NA
ATOM      6  C   UNL     1       3.135   6.507  17.825  0.00  0.00    +0.000 A 
ATOM      7  N   UNL     1       4.032   5.687  17.144  0.00  0.00    +0.000 N 
ATOM      8  C   UNL     1       5.232   6.330  16.828  0.00  0.00    +0.000 C 
ATOM      9  O   UNL     1       5.559   7.423  17.295  0.00  0.00    +0.000 OA
ATOM     10  S   UNL     1       3.094   6.365  19.527  0.00  0.00    +0.000 S 
ATOM     11  C   UNL     1       2.082   7.751  19.616  0.00  0.00    +0.000 A 
ATOM     12  C   UNL     1       1.566   8.402  20.750  0.00  0.00    +0.000 A 
ENDROOT
BRANCH   1  14
ATOM     13  C   UNL     1       0.671   9.446  22.930  0.00  0.00    +0.000 C 
ATOM     14  O   UNL     1       0.334  10.128  21.726  0.00  0.00    +0.000 OA
ENDBRANCH   1  14
BRANCH   7  15
ATOM     15  C   UNL     1       3.570   4.442  16.511  0.00  0.00    +0.000 C 
BRANCH  15  16
ATOM     16  C   UNL     1       2.898   3.467  17.459  0.00  0.00    +0.000 A 
ATOM     17  C   UNL     1       1.524   3.590  17.716  0.00  0.00    +0.000 A 
ATOM     18  C   UNL     1       0.901   2.771  18.660  0.00  0.00    +0.000 A 
ATOM     19  C   UNL     1       1.640   1.814  19.352  0.00  0.00    +0.000 A 
ATOM     20  C   UNL     1       2.985   1.628  19.048  0.00  0.00    +0.000 A 
ATOM     21  C   UNL     1       3.599   2.422  18.080  0.00  0.00    +0.000 A 
ENDBRANCH  15  16
ENDBRANCH   7  15
BRANCH   8  22
ATOM     22  C   UNL     1       6.187   5.590  15.906  0.00  0.00    +0.000 C 
BRANCH  22  23
ATOM     23  C   UNL     1       7.093   4.649  16.700  0.00  0.00    +0.000 C 
BRANCH  23  24
ATOM     24  N   UNL     1       7.748   5.294  17.822  0.00  0.00    +0.000 N 
ATOM     25  C   UNL     1       7.344   5.080  19.126  0.00  0.00    +0.000 C 
ATOM     26  C   UNL     1       8.248   5.693  20.160  0.00  0.00    +0.000 C 
ATOM     27  O   UNL     1       6.334   4.459  19.432  0.00  0.00    +0.000 OA
ATOM     28  H   UNL     1       8.676   5.670  17.665  0.00  0.00    +0.000 HD
ENDBRANCH  23  24
ENDBRANCH  22  23
ENDBRANCH   8  22
TORSDOF 6
ENDMDL
MODEL 9
REMARK VINA RESULT:      -6.7      2.322      7.409
REMARK  Name = 
REMARK  8 active torsions:
REMARK  status: ('A' for Active; 'I' for Inactive)
REMARK    1  A    between atoms: C_1  and  O_2
REMARK    2  A    between atoms: O_2  and  C_3
REMARK    3  A    between atoms: N_9  and  C_10
REMARK    4  A    between atoms: C_10  and  C_11
REMARK    5  A    between atoms: C_17  and  C_19
REMARK    6  A    between atoms: C_19  and  C_20
REMARK    7  A    between atoms: C_20  and  N_21
REMARK    8  A    between atoms: C_22  and  C_23
REMARK                            x       y       z     vdW  Elec       q    Type
REMARK                         _______ _______ _______ _____ _____    ______ ____
ROOT
ATOM      1  C   UNL     1       6.501   4.939  15.892  0.00  0.00    +0.000 A 
ATOM      2  C   UNL     1       7.240   5.573  16.887  0.00  0.00    +0.000 A 
ATOM      3  C   UNL     1       6.609   6.077  18.034  0.00  0.00    +0.000 A 
ATOM      4  C   UNL     1       5.210   5.977  18.176  0.00  0.00    +0.000 A 
ATOM      5  N   UNL     1       4.459   6.444  19.248  0.00  0.00    +0.000 NA
ATOM      6  C   UNL     1       3.186   6.284  18.975  0.00  0.00    +0.000 A 
ATOM      7  N   UNL     1       2.118   6.819  19.691  0.00  0.00    +0.000 N 
ATOM      8  C   UNL     1       1.913   8.178  19.436  0.00  0.00    +0.000 C 
ATOM      9  O   UNL     1       2.461   8.785  18.514  0.00  0.00    +0.000 OA
ATOM     10  S   UNL     1       2.812   5.456  17.528  0.00  0.00    +0.000 S 
ATOM     11  C   UNL     1       4.485   5.378  17.143  0.00  0.00    +0.000 A 
ATOM     12  C   UNL     1       5.109   4.846  16.001  0.00  0.00    +0.000 A 
ENDROOT
BRANCH   1  14
ATOM     13  C   UNL     1       6.102   3.728  13.899  0.00  0.00    +0.000 C 
ATOM     14  O   UNL     1       7.027   4.403  14.746  0.00  0.00    +0.000 OA
ENDBRANCH   1  14
BRANCH   7  15
ATOM     15  C   UNL     1       1.567   6.104  20.852  0.00  0.00    +0.000 C 
BRANCH  15  16
ATOM     16  C   UNL     1       1.607   4.592  20.736  0.00  0.00    +0.000 A 
ATOM     17  C   UNL     1       2.489   3.861  21.546  0.00  0.00    +0.000 A 
ATOM     18  C   UNL     1       2.619   2.479  21.389  0.00  0.00    +0.000 A 
ATOM     19  C   UNL     1       1.865   1.811  20.428  0.00  0.00    +0.000 A 
ATOM     20  C   UNL     1       0.929   2.511  19.674  0.00  0.00    +0.000 A 
ATOM     21  C   UNL     1       0.774   3.885  19.856  0.00  0.00    +0.000 A 
ENDBRANCH  15  16
ENDBRANCH   7  15
BRANCH   8  22
ATOM     22  C   UNL     1       0.911   8.900  20.320  0.00  0.00    +0.000 C 
BRANCH  22  23
ATOM     23  C   UNL     1       0.257  10.061  19.570  0.00  0.00    +0.000 C 
BRANCH  23  24
ATOM     24  N   UNL     1       1.089  11.249  19.516  0.00  0.00    +0.000 N 
ATOM     25  C   UNL     1       1.229  12.094  20.600  0.00  0.00    +0.000 C 
ATOM     26  C   UNL     1       2.263  13.170  20.413  0.00  0.00    +0.000 C 
ATOM     27  O   UNL     1       0.568  11.999  21.627  0.00  0.00    +0.000 OA
ATOM     28  H   UNL     1       1.785  11.294  18.781  0.00  0.00    +0.000 HD
ENDBRANCH  23  24
ENDBRANCH  22  23
ENDBRANCH   8  22
TORSDOF 6
ENDMDL
