MODEL 1
REMARK VINA RESULT:      -6.9      0.000      0.000
REMARK  Name = 
REMARK  10 active torsions:
REMARK  status: ('A' for Active; 'I' for Inactive)
REMARK    1  A    between atoms: C_1  and  C_2
REMARK    2  A    between atoms: C_2  and  C_3
REMARK    3  A    between atoms: C_3  and  C_4
REMARK    4  A    between atoms: C_3  and  N_7
REMARK    5  A    between atoms: C_9  and  C_10
REMARK    6  A    between atoms: N_13  and  C_14
REMARK    7  A    between atoms: C_16  and  O_17
REMARK    8  A    between atoms: O_17  and  C_18
REMARK    9  A    between atoms: C_19  and  C_20
REMARK   10  A    between atoms: C_23  and  C_24
REMARK                            x       y       z     vdW  Elec       q    Type
REMARK                         _______ _______ _______ _____ _____    ______ ____
ROOT
ATOM      1  N   UNL     1       2.267   7.272  18.955  0.00  0.00    +0.000 N 
ATOM      2  N   UNL     1       1.967   7.295  20.305  0.00  0.00    +0.000 NA
ATOM      3  C   UNL     1       1.377   8.337  20.796  0.00  0.00    +0.000 A 
ATOM      4  C   UNL     1       1.194   8.470  22.282  0.00  0.00    +0.000 C 
ATOM      5  N   UNL     1       0.858   9.361  20.068  0.00  0.00    +0.000 NA
ATOM      6  C   UNL     1       1.130   9.422  18.797  0.00  0.00    +0.000 A 
ATOM      7  N   UNL     1       0.561  10.375  17.963  0.00  0.00    +0.000 N 
ATOM      8  C   UNL     1       2.106   8.412  18.190  0.00  0.00    +0.000 A 
ATOM      9  O   UNL     1       2.616   8.663  17.104  0.00  0.00    +0.000 OA
ATOM     10  H   UNL     1       1.028  10.570  17.083  0.00  0.00    +0.000 HD
ENDROOT
BRANCH   7  11
ATOM     11  C   UNL     1      -0.717  10.943  18.156  0.00  0.00    +0.000 A 
ATOM     12  C   UNL     1      -1.823  10.495  17.400  0.00  0.00    +0.000 A 
ATOM     13  C   UNL     1      -3.144  10.916  17.637  0.00  0.00    +0.000 A 
ATOM     14  C   UNL     1      -3.371  11.820  18.688  0.00  0.00    +0.000 A 
ATOM     15  C   UNL     1      -2.278  12.288  19.429  0.00  0.00    +0.000 A 
ATOM     16  C   UNL     1      -0.956  11.883  19.171  0.00  0.00    +0.000 A 
ATOM     17  C   UNL     1       0.140  12.465  20.018  0.00  0.00    +0.000 C 
BRANCH  13  18
ATOM     18  O   UNL     1      -4.033  10.338  16.772  0.00  0.00    +0.000 OA
ATOM     19  C   UNL     1      -3.817  10.408  15.371  0.00  0.00    +0.000 C 
ENDBRANCH  13  18
BRANCH  14  20
ATOM     20  C   UNL     1      -4.650  12.310  19.074  0.00  0.00    +0.000 C 
ATOM     21  N   UNL     1      -5.697  12.690  19.413  0.00  0.00    +0.000 NA
ENDBRANCH  14  20
ENDBRANCH   7  11
BRANCH   1  22
ATOM     22  C   UNL     1       3.025   6.106  18.433  0.00  0.00    +0.000 C 
BRANCH  22  23
ATOM     23  C   UNL     1       2.040   5.116  17.819  0.00  0.00    +0.000 C 
ATOM     24  C   UNL     1       2.512   3.705  17.519  0.00  0.00    +0.000 C 
ATOM     25  C   UNL     1       1.451   3.921  18.555  0.00  0.00    +0.000 C 
ENDBRANCH  22  23
BRANCH  22  27
ATOM     26  C   UNL     1       5.348   5.190  19.206  0.00  0.00    +0.000 C 
ATOM     27  C   UNL     1       3.909   5.520  19.558  0.00  0.00    +0.000 C 
ENDBRANCH  22  27
ENDBRANCH   1  22
TORSDOF 6
ENDMDL
MODEL 2
REMARK VINA RESULT:      -6.9      5.486      8.192
REMARK  Name = 
REMARK  10 active torsions:
REMARK  status: ('A' for Active; 'I' for Inactive)
REMARK    1  A    between atoms: C_1  and  C_2
REMARK    2  A    between atoms: C_2  and  C_3
REMARK    3  A    between atoms: C_3  and  C_4
REMARK    4  A    between atoms: C_3  and  N_7
REMARK    5  A    between atoms: C_9  and  C_10
REMARK    6  A    between atoms: N_13  and  C_14
REMARK    7  A    between atoms: C_16  and  O_17
REMARK    8  A    between atoms: O_17  and  C_18
REMARK    9  A    between atoms: C_19  and  C_20
REMARK   10  A    between atoms: C_23  and  C_24
REMARK                            x       y       z     vdW  Elec       q    Type
REMARK                         _______ _______ _______ _____ _____    ______ ____
ROOT
ATOM      1  N   UNL     1       6.572   5.150  14.990  0.00  0.00    +0.000 N 
ATOM      2  N   UNL     1       7.479   4.685  15.923  0.00  0.00    +0.000 NA
ATOM      3  C   UNL     1       7.176   4.757  17.180  0.00  0.00    +0.000 A 
ATOM      4  C   UNL     1       8.205   4.424  18.225  0.00  0.00    +0.000 C 
ATOM      5  N   UNL     1       5.956   5.094  17.674  0.00  0.00    +0.000 NA
ATOM      6  C   UNL     1       5.063   5.573  16.857  0.00  0.00    +0.000 A 
ATOM      7  N   UNL     1       3.763   5.847  17.258  0.00  0.00    +0.000 N 
ATOM      8  C   UNL     1       5.448   5.842  15.401  0.00  0.00    +0.000 A 
ATOM      9  O   UNL     1       4.741   6.587  14.731  0.00  0.00    +0.000 OA
ATOM     10  H   UNL     1       3.219   6.487  16.689  0.00  0.00    +0.000 HD
ENDROOT
BRANCH   7  11
ATOM     11  C   UNL     1       3.080   5.152  18.280  0.00  0.00    +0.000 A 
ATOM     12  C   UNL     1       3.046   3.740  18.288  0.00  0.00    +0.000 A 
ATOM     13  C   UNL     1       2.506   2.985  19.345  0.00  0.00    +0.000 A 
ATOM     14  C   UNL     1       1.986   3.674  20.452  0.00  0.00    +0.000 A 
ATOM     15  C   UNL     1       1.995   5.075  20.444  0.00  0.00    +0.000 A 
ATOM     16  C   UNL     1       2.513   5.825  19.373  0.00  0.00    +0.000 A 
ATOM     17  C   UNL     1       2.452   7.324  19.465  0.00  0.00    +0.000 C 
BRANCH  13  18
ATOM     18  O   UNL     1       2.593   1.637  19.114  0.00  0.00    +0.000 OA
ATOM     19  C   UNL     1       3.748   1.092  18.495  0.00  0.00    +0.000 C 
ENDBRANCH  13  18
BRANCH  14  20
ATOM     20  C   UNL     1       1.441   3.054  21.611  0.00  0.00    +0.000 C 
ATOM     21  N   UNL     1       1.007   2.519  22.549  0.00  0.00    +0.000 NA
ENDBRANCH  14  20
ENDBRANCH   7  11
BRANCH   1  22
ATOM     22  C   UNL     1       6.980   5.142  13.561  0.00  0.00    +0.000 C 
BRANCH  22  23
ATOM     23  C   UNL     1       6.754   3.742  12.996  0.00  0.00    +0.000 C 
ATOM     24  C   UNL     1       5.416   3.420  12.355  0.00  0.00    +0.000 C 
ATOM     25  C   UNL     1       6.654   3.421  11.511  0.00  0.00    +0.000 C 
ENDBRANCH  22  23
BRANCH  22  27
ATOM     26  C   UNL     1       8.793   6.402  12.164  0.00  0.00    +0.000 C 
ATOM     27  C   UNL     1       8.431   5.659  13.437  0.00  0.00    +0.000 C 
ENDBRANCH  22  27
ENDBRANCH   1  22
TORSDOF 6
ENDMDL
MODEL 3
REMARK VINA RESULT:      -6.9      1.523      2.494
REMARK  Name = 
REMARK  10 active torsions:
REMARK  status: ('A' for Active; 'I' for Inactive)
REMARK    1  A    between atoms: C_1  and  C_2
REMARK    2  A    between atoms: C_2  and  C_3
REMARK    3  A    between atoms: C_3  and  C_4
REMARK    4  A    between atoms: C_3  and  N_7
REMARK    5  A    between atoms: C_9  and  C_10
REMARK    6  A    between atoms: N_13  and  C_14
REMARK    7  A    between atoms: C_16  and  O_17
REMARK    8  A    between atoms: O_17  and  C_18
REMARK    9  A    between atoms: C_19  and  C_20
REMARK   10  A    between atoms: C_23  and  C_24
REMARK                            x       y       z     vdW  Elec       q    Type
REMARK                         _______ _______ _______ _____ _____    ______ ____
ROOT
ATOM      1  N   UNL     1       2.074   7.718  18.783  0.00  0.00    +0.000 N 
ATOM      2  N   UNL     1       1.939   7.636  20.156  0.00  0.00    +0.000 NA
ATOM      3  C   UNL     1       1.312   8.582  20.779  0.00  0.00    +0.000 A 
ATOM      4  C   UNL     1       1.297   8.615  22.282  0.00  0.00    +0.000 C 
ATOM      5  N   UNL     1       0.608   9.581  20.185  0.00  0.00    +0.000 NA
ATOM      6  C   UNL     1       0.717   9.739  18.897  0.00  0.00    +0.000 A 
ATOM      7  N   UNL     1      -0.041  10.667  18.198  0.00  0.00    +0.000 N 
ATOM      8  C   UNL     1       1.708   8.873  18.118  0.00  0.00    +0.000 A 
ATOM      9  O   UNL     1       2.056   9.234  16.998  0.00  0.00    +0.000 OA
ATOM     10  H   UNL     1       0.293  10.958  17.285  0.00  0.00    +0.000 HD
ENDROOT
BRANCH   7  11
ATOM     11  C   UNL     1      -1.337  11.084  18.573  0.00  0.00    +0.000 A 
ATOM     12  C   UNL     1      -1.524  11.928  19.690  0.00  0.00    +0.000 A 
ATOM     13  C   UNL     1      -2.766  12.491  20.036  0.00  0.00    +0.000 A 
ATOM     14  C   UNL     1      -3.872  12.206  19.219  0.00  0.00    +0.000 A 
ATOM     15  C   UNL     1      -3.702  11.352  18.121  0.00  0.00    +0.000 A 
ATOM     16  C   UNL     1      -2.463  10.771  17.795  0.00  0.00    +0.000 A 
ATOM     17  C   UNL     1      -2.402   9.855  16.606  0.00  0.00    +0.000 C 
BRANCH  13  18
ATOM     18  O   UNL     1      -2.684  13.272  21.158  0.00  0.00    +0.000 OA
ATOM     19  C   UNL     1      -2.394  12.685  22.417  0.00  0.00    +0.000 C 
ENDBRANCH  13  18
BRANCH  14  20
ATOM     20  C   UNL     1      -5.182  12.727  19.415  0.00  0.00    +0.000 C 
ATOM     21  N   UNL     1      -6.253  13.140  19.604  0.00  0.00    +0.000 NA
ENDBRANCH  14  20
ENDBRANCH   7  11
BRANCH   1  22
ATOM     22  C   UNL     1       2.877   6.669  18.102  0.00  0.00    +0.000 C 
BRANCH  22  23
ATOM     23  C   UNL     1       2.655   5.340  18.817  0.00  0.00    +0.000 C 
ATOM     24  C   UNL     1       1.586   4.397  18.294  0.00  0.00    +0.000 C 
ATOM     25  C   UNL     1       3.025   3.981  18.240  0.00  0.00    +0.000 C 
ENDBRANCH  22  23
BRANCH  22  27
ATOM     26  C   UNL     1       5.136   6.717  16.788  0.00  0.00    +0.000 C 
ATOM     27  C   UNL     1       4.354   7.119  18.024  0.00  0.00    +0.000 C 
ENDBRANCH  22  27
ENDBRANCH   1  22
TORSDOF 6
ENDMDL
MODEL 4
REMARK VINA RESULT:      -6.8      0.982      1.096
REMARK  Name = 
REMARK  10 active torsions:
REMARK  status: ('A' for Active; 'I' for Inactive)
REMARK    1  A    between atoms: C_1  and  C_2
REMARK    2  A    between atoms: C_2  and  C_3
REMARK    3  A    between atoms: C_3  and  C_4
REMARK    4  A    between atoms: C_3  and  N_7
REMARK    5  A    between atoms: C_9  and  C_10
REMARK    6  A    between atoms: N_13  and  C_14
REMARK    7  A    between atoms: C_16  and  O_17
REMARK    8  A    between atoms: O_17  and  C_18
REMARK    9  A    between atoms: C_19  and  C_20
REMARK   10  A    between atoms: C_23  and  C_24
REMARK                            x       y       z     vdW  Elec       q    Type
REMARK                         _______ _______ _______ _____ _____    ______ ____
ROOT
ATOM      1  N   UNL     1       2.078   7.653  18.768  0.00  0.00    +0.000 N 
ATOM      2  N   UNL     1       1.904   7.540  20.135  0.00  0.00    +0.000 NA
ATOM      3  C   UNL     1       1.418   8.546  20.788  0.00  0.00    +0.000 A 
ATOM      4  C   UNL     1       1.379   8.524  22.290  0.00  0.00    +0.000 C 
ATOM      5  N   UNL     1       0.888   9.664  20.225  0.00  0.00    +0.000 NA
ATOM      6  C   UNL     1       1.045   9.853  18.947  0.00  0.00    +0.000 A 
ATOM      7  N   UNL     1       0.453  10.914  18.276  0.00  0.00    +0.000 N 
ATOM      8  C   UNL     1       1.907   8.875  18.146  0.00  0.00    +0.000 A 
ATOM      9  O   UNL     1       2.328   9.221  17.047  0.00  0.00    +0.000 OA
ATOM     10  H   UNL     1       0.846  11.184  17.380  0.00  0.00    +0.000 HD
ENDROOT
BRANCH   7  11
ATOM     11  C   UNL     1      -0.771  11.511  18.651  0.00  0.00    +0.000 A 
ATOM     12  C   UNL     1      -1.990  11.052  18.105  0.00  0.00    +0.000 A 
ATOM     13  C   UNL     1      -3.250  11.504  18.536  0.00  0.00    +0.000 A 
ATOM     14  C   UNL     1      -3.294  12.453  19.570  0.00  0.00    +0.000 A 
ATOM     15  C   UNL     1      -2.089  12.932  20.103  0.00  0.00    +0.000 A 
ATOM     16  C   UNL     1      -0.832  12.494  19.650  0.00  0.00    +0.000 A 
ATOM     17  C   UNL     1       0.394  13.092  20.282  0.00  0.00    +0.000 C 
BRANCH  13  18
ATOM     18  O   UNL     1      -4.275  10.907  17.852  0.00  0.00    +0.000 OA
ATOM     19  C   UNL     1      -4.393  11.078  16.448  0.00  0.00    +0.000 C 
ENDBRANCH  13  18
BRANCH  14  20
ATOM     20  C   UNL     1      -4.487  12.980  20.139  0.00  0.00    +0.000 C 
ATOM     21  N   UNL     1      -5.467  13.384  20.619  0.00  0.00    +0.000 NA
ENDBRANCH  14  20
ENDBRANCH   7  11
BRANCH   1  22
ATOM     22  C   UNL     1       2.723   6.519  18.055  0.00  0.00    +0.000 C 
BRANCH  22  23
ATOM     23  C   UNL     1       2.226   5.211  18.663  0.00  0.00    +0.000 C 
ATOM     24  C   UNL     1       1.483   4.228  17.776  0.00  0.00    +0.000 C 
ATOM     25  C   UNL     1       2.812   3.841  18.352  0.00  0.00    +0.000 C 
ENDBRANCH  22  23
BRANCH  22  27
ATOM     26  C   UNL     1       4.980   6.687  16.749  0.00  0.00    +0.000 C 
ATOM     27  C   UNL     1       4.258   6.700  18.083  0.00  0.00    +0.000 C 
ENDBRANCH  22  27
ENDBRANCH   1  22
TORSDOF 6
ENDMDL
MODEL 5
REMARK VINA RESULT:      -6.7      2.399      7.828
REMARK  Name = 
REMARK  10 active torsions:
REMARK  status: ('A' for Active; 'I' for Inactive)
REMARK    1  A    between atoms: C_1  and  C_2
REMARK    2  A    between atoms: C_2  and  C_3
REMARK    3  A    between atoms: C_3  and  C_4
REMARK    4  A    between atoms: C_3  and  N_7
REMARK    5  A    between atoms: C_9  and  C_10
REMARK    6  A    between atoms: N_13  and  C_14
REMARK    7  A    between atoms: C_16  and  O_17
REMARK    8  A    between atoms: O_17  and  C_18
REMARK    9  A    between atoms: C_19  and  C_20
REMARK   10  A    between atoms: C_23  and  C_24
REMARK                            x       y       z     vdW  Elec       q    Type
REMARK                         _______ _______ _______ _____ _____    ______ ____
ROOT
ATOM      1  N   UNL     1      -0.355  12.174  19.136  0.00  0.00    +0.000 N 
ATOM      2  N   UNL     1      -1.413  11.582  18.472  0.00  0.00    +0.000 NA
ATOM      3  C   UNL     1      -1.229  10.438  17.896  0.00  0.00    +0.000 A 
ATOM      4  C   UNL     1      -2.302   9.851  17.022  0.00  0.00    +0.000 C 
ATOM      5  N   UNL     1      -0.120   9.663  18.029  0.00  0.00    +0.000 NA
ATOM      6  C   UNL     1       0.927  10.168  18.612  0.00  0.00    +0.000 A 
ATOM      7  N   UNL     1       2.063   9.415  18.878  0.00  0.00    +0.000 N 
ATOM      8  C   UNL     1       0.916  11.640  19.028  0.00  0.00    +0.000 A 
ATOM      9  O   UNL     1       1.984  12.197  19.259  0.00  0.00    +0.000 OA
ATOM     10  H   UNL     1       2.932   9.914  19.041  0.00  0.00    +0.000 HD
ENDROOT
BRANCH   7  11
ATOM     11  C   UNL     1       2.057   8.027  19.134  0.00  0.00    +0.000 A 
ATOM     12  C   UNL     1       2.561   7.119  18.177  0.00  0.00    +0.000 A 
ATOM     13  C   UNL     1       2.713   5.742  18.422  0.00  0.00    +0.000 A 
ATOM     14  C   UNL     1       2.356   5.251  19.688  0.00  0.00    +0.000 A 
ATOM     15  C   UNL     1       1.833   6.140  20.637  0.00  0.00    +0.000 A 
ATOM     16  C   UNL     1       1.659   7.511  20.378  0.00  0.00    +0.000 A 
ATOM     17  C   UNL     1       1.072   8.367  21.465  0.00  0.00    +0.000 C 
BRANCH  13  18
ATOM     18  O   UNL     1       3.222   5.078  17.337  0.00  0.00    +0.000 OA
ATOM     19  C   UNL     1       4.598   5.197  17.007  0.00  0.00    +0.000 C 
ENDBRANCH  13  18
BRANCH  14  20
ATOM     20  C   UNL     1       2.485   3.895  20.099  0.00  0.00    +0.000 C 
ATOM     21  N   UNL     1       2.613   2.795  20.456  0.00  0.00    +0.000 NA
ENDBRANCH  14  20
ENDBRANCH   7  11
BRANCH   1  22
ATOM     22  C   UNL     1      -0.565  13.528  19.710  0.00  0.00    +0.000 C 
BRANCH  22  23
ATOM     23  C   UNL     1      -1.913  13.554  20.423  0.00  0.00    +0.000 C 
ATOM     24  C   UNL     1      -2.057  12.814  21.741  0.00  0.00    +0.000 C 
ATOM     25  C   UNL     1      -2.186  14.307  21.718  0.00  0.00    +0.000 C 
ENDBRANCH  22  23
BRANCH  22  27
ATOM     26  C   UNL     1      -0.153  16.020  19.037  0.00  0.00    +0.000 C 
ATOM     27  C   UNL     1      -0.406  14.590  18.597  0.00  0.00    +0.000 C 
ENDBRANCH  22  27
ENDBRANCH   1  22
TORSDOF 6
ENDMDL
MODEL 6
REMARK VINA RESULT:      -6.7      3.180      7.977
REMARK  Name = 
REMARK  10 active torsions:
REMARK  status: ('A' for Active; 'I' for Inactive)
REMARK    1  A    between atoms: C_1  and  C_2
REMARK    2  A    between atoms: C_2  and  C_3
REMARK    3  A    between atoms: C_3  and  C_4
REMARK    4  A    between atoms: C_3  and  N_7
REMARK    5  A    between atoms: C_9  and  C_10
REMARK    6  A    between atoms: N_13  and  C_14
REMARK    7  A    between atoms: C_16  and  O_17
REMARK    8  A    between atoms: O_17  and  C_18
REMARK    9  A    between atoms: C_19  and  C_20
REMARK   10  A    between atoms: C_23  and  C_24
REMARK                            x       y       z     vdW  Elec       q    Type
REMARK                         _______ _______ _______ _____ _____    ______ ____
ROOT
ATOM      1  N   UNL     1       1.034  11.352  20.395  0.00  0.00    +0.000 N 
ATOM      2  N   UNL     1       0.798  10.964  21.701  0.00  0.00    +0.000 NA
ATOM      3  C   UNL     1       0.692   9.702  21.968  0.00  0.00    +0.000 A 
ATOM      4  C   UNL     1       0.262   9.253  23.337  0.00  0.00    +0.000 C 
ATOM      5  N   UNL     1       0.968   8.691  21.102  0.00  0.00    +0.000 NA
ATOM      6  C   UNL     1       1.166   8.980  19.849  0.00  0.00    +0.000 A 
ATOM      7  N   UNL     1       1.552   8.024  18.920  0.00  0.00    +0.000 N 
ATOM      8  C   UNL     1       0.976  10.422  19.374  0.00  0.00    +0.000 A 
ATOM      9  O   UNL     1       0.831  10.635  18.175  0.00  0.00    +0.000 OA
ATOM     10  H   UNL     1       1.393   8.229  17.939  0.00  0.00    +0.000 HD
ENDROOT
BRANCH   7  11
ATOM     11  C   UNL     1       2.325   6.882  19.224  0.00  0.00    +0.000 A 
ATOM     12  C   UNL     1       1.929   6.003  20.256  0.00  0.00    +0.000 A 
ATOM     13  C   UNL     1       2.572   4.779  20.519  0.00  0.00    +0.000 A 
ATOM     14  C   UNL     1       3.655   4.412  19.703  0.00  0.00    +0.000 A 
ATOM     15  C   UNL     1       4.069   5.288  18.691  0.00  0.00    +0.000 A 
ATOM     16  C   UNL     1       3.438   6.522  18.450  0.00  0.00    +0.000 A 
ATOM     17  C   UNL     1       3.981   7.390  17.349  0.00  0.00    +0.000 C 
BRANCH  13  18
ATOM     18  O   UNL     1       2.000   4.110  21.568  0.00  0.00    +0.000 OA
ATOM     19  C   UNL     1       1.242   2.933  21.337  0.00  0.00    +0.000 C 
ENDBRANCH  13  18
BRANCH  14  20
ATOM     20  C   UNL     1       4.382   3.195  19.819  0.00  0.00    +0.000 C 
ATOM     21  N   UNL     1       4.996   2.209  19.891  0.00  0.00    +0.000 NA
ENDBRANCH  14  20
ENDBRANCH   7  11
BRANCH   1  22
ATOM     22  C   UNL     1       1.060  12.808  20.098  0.00  0.00    +0.000 C 
BRANCH  22  23
ATOM     23  C   UNL     1       2.494  13.215  19.768  0.00  0.00    +0.000 C 
ATOM     24  C   UNL     1       2.872  13.446  18.316  0.00  0.00    +0.000 C 
ATOM     25  C   UNL     1       2.903  14.596  19.276  0.00  0.00    +0.000 C 
ENDBRANCH  22  23
BRANCH  22  27
ATOM     26  C   UNL     1      -0.526  14.713  20.923  0.00  0.00    +0.000 C 
ATOM     27  C   UNL     1       0.426  13.585  21.274  0.00  0.00    +0.000 C 
ENDBRANCH  22  27
ENDBRANCH   1  22
TORSDOF 6
ENDMDL
MODEL 7
REMARK VINA RESULT:      -6.6      2.737      4.630
REMARK  Name = 
REMARK  10 active torsions:
REMARK  status: ('A' for Active; 'I' for Inactive)
REMARK    1  A    between atoms: C_1  and  C_2
REMARK    2  A    between atoms: C_2  and  C_3
REMARK    3  A    between atoms: C_3  and  C_4
REMARK    4  A    between atoms: C_3  and  N_7
REMARK    5  A    between atoms: C_9  and  C_10
REMARK    6  A    between atoms: N_13  and  C_14
REMARK    7  A    between atoms: C_16  and  O_17
REMARK    8  A    between atoms: O_17  and  C_18
REMARK    9  A    between atoms: C_19  and  C_20
REMARK   10  A    between atoms: C_23  and  C_24
REMARK                            x       y       z     vdW  Elec       q    Type
REMARK                         _______ _______ _______ _____ _____    ______ ____
ROOT
ATOM      1  N   UNL     1       3.495   4.047  18.480  0.00  0.00    +0.000 N 
ATOM      2  N   UNL     1       2.281   3.409  18.655  0.00  0.00    +0.000 NA
ATOM      3  C   UNL     1       1.376   3.979  19.384  0.00  0.00    +0.000 A 
ATOM      4  C   UNL     1       0.116   3.238  19.739  0.00  0.00    +0.000 C 
ATOM      5  N   UNL     1       1.439   5.250  19.862  0.00  0.00    +0.000 NA
ATOM      6  C   UNL     1       2.563   5.898  19.762  0.00  0.00    +0.000 A 
ATOM      7  N   UNL     1       2.685   7.230  20.131  0.00  0.00    +0.000 N 
ATOM      8  C   UNL     1       3.797   5.178  19.215  0.00  0.00    +0.000 A 
ATOM      9  O   UNL     1       4.905   5.658  19.428  0.00  0.00    +0.000 OA
ATOM     10  H   UNL     1       3.617   7.583  20.322  0.00  0.00    +0.000 HD
ENDROOT
BRANCH   7  11
ATOM     11  C   UNL     1       1.638   8.175  20.068  0.00  0.00    +0.000 A 
ATOM     12  C   UNL     1       0.837   8.437  21.202  0.00  0.00    +0.000 A 
ATOM     13  C   UNL     1      -0.127   9.460  21.249  0.00  0.00    +0.000 A 
ATOM     14  C   UNL     1      -0.291  10.267  20.111  0.00  0.00    +0.000 A 
ATOM     15  C   UNL     1       0.481  10.001  18.973  0.00  0.00    +0.000 A 
ATOM     16  C   UNL     1       1.426   8.960  18.923  0.00  0.00    +0.000 A 
ATOM     17  C   UNL     1       2.185   8.755  17.642  0.00  0.00    +0.000 C 
BRANCH  13  18
ATOM     18  O   UNL     1      -0.767   9.510  22.458  0.00  0.00    +0.000 OA
ATOM     19  C   UNL     1      -0.019   9.502  23.664  0.00  0.00    +0.000 C 
ENDBRANCH  13  18
BRANCH  14  20
ATOM     20  C   UNL     1      -1.197  11.361  20.016  0.00  0.00    +0.000 C 
ATOM     21  N   UNL     1      -1.960  12.237  19.953  0.00  0.00    +0.000 NA
ENDBRANCH  14  20
ENDBRANCH   7  11
BRANCH   1  22
ATOM     22  C   UNL     1       4.551   3.331  17.717  0.00  0.00    +0.000 C 
BRANCH  22  23
ATOM     23  C   UNL     1       4.634   3.931  16.316  0.00  0.00    +0.000 C 
ATOM     24  C   UNL     1       5.452   5.192  16.108  0.00  0.00    +0.000 C 
ATOM     25  C   UNL     1       5.884   3.918  15.448  0.00  0.00    +0.000 C 
ENDBRANCH  22  23
BRANCH  22  27
ATOM     26  C   UNL     1       4.202   1.151  19.115  0.00  0.00    +0.000 C 
ATOM     27  C   UNL     1       4.270   1.811  17.750  0.00  0.00    +0.000 C 
ENDBRANCH  22  27
ENDBRANCH   1  22
TORSDOF 6
ENDMDL
MODEL 8
REMARK VINA RESULT:      -6.6      2.860      7.888
REMARK  Name = 
REMARK  10 active torsions:
REMARK  status: ('A' for Active; 'I' for Inactive)
REMARK    1  A    between atoms: C_1  and  C_2
REMARK    2  A    between atoms: C_2  and  C_3
REMARK    3  A    between atoms: C_3  and  C_4
REMARK    4  A    between atoms: C_3  and  N_7
REMARK    5  A    between atoms: C_9  and  C_10
REMARK    6  A    between atoms: N_13  and  C_14
REMARK    7  A    between atoms: C_16  and  O_17
REMARK    8  A    between atoms: O_17  and  C_18
REMARK    9  A    between atoms: C_19  and  C_20
REMARK   10  A    between atoms: C_23  and  C_24
REMARK                            x       y       z     vdW  Elec       q    Type
REMARK                         _______ _______ _______ _____ _____    ______ ____
ROOT
ATOM      1  N   UNL     1       1.253  11.333  20.188  0.00  0.00    +0.000 N 
ATOM      2  N   UNL     1       0.952  10.974  21.488  0.00  0.00    +0.000 NA
ATOM      3  C   UNL     1       0.797   9.720  21.771  0.00  0.00    +0.000 A 
ATOM      4  C   UNL     1       0.299   9.308  23.128  0.00  0.00    +0.000 C 
ATOM      5  N   UNL     1       1.078   8.687  20.933  0.00  0.00    +0.000 NA
ATOM      6  C   UNL     1       1.336   8.949  19.685  0.00  0.00    +0.000 A 
ATOM      7  N   UNL     1       1.730   7.967  18.787  0.00  0.00    +0.000 N 
ATOM      8  C   UNL     1       1.208  10.388  19.180  0.00  0.00    +0.000 A 
ATOM      9  O   UNL     1       1.119  10.585  17.973  0.00  0.00    +0.000 OA
ATOM     10  H   UNL     1       1.617   8.160  17.797  0.00  0.00    +0.000 HD
ENDROOT
BRANCH   7  11
ATOM     11  C   UNL     1       2.455   6.808  19.141  0.00  0.00    +0.000 A 
ATOM     12  C   UNL     1       1.999   5.966  20.179  0.00  0.00    +0.000 A 
ATOM     13  C   UNL     1       2.593   4.729  20.489  0.00  0.00    +0.000 A 
ATOM     14  C   UNL     1       3.688   4.308  19.716  0.00  0.00    +0.000 A 
ATOM     15  C   UNL     1       4.162   5.146  18.699  0.00  0.00    +0.000 A 
ATOM     16  C   UNL     1       3.579   6.394  18.410  0.00  0.00    +0.000 A 
ATOM     17  C   UNL     1       4.184   7.218  17.308  0.00  0.00    +0.000 C 
BRANCH  13  18
ATOM     18  O   UNL     1       1.967   4.103  21.535  0.00  0.00    +0.000 OA
ATOM     19  C   UNL     1       1.264   2.889  21.323  0.00  0.00    +0.000 C 
ENDBRANCH  13  18
BRANCH  14  20
ATOM     20  C   UNL     1       4.370   3.070  19.882  0.00  0.00    +0.000 C 
ATOM     21  N   UNL     1       4.954   2.074  20.028  0.00  0.00    +0.000 NA
ENDBRANCH  14  20
ENDBRANCH   7  11
BRANCH   1  22
ATOM     22  C   UNL     1       1.335  12.782  19.869  0.00  0.00    +0.000 C 
BRANCH  22  23
ATOM     23  C   UNL     1       0.041  13.206  19.182  0.00  0.00    +0.000 C 
ATOM     24  C   UNL     1      -1.275  12.998  19.909  0.00  0.00    +0.000 C 
ATOM     25  C   UNL     1      -0.812  14.392  19.613  0.00  0.00    +0.000 C 
ENDBRANCH  22  23
BRANCH  22  27
ATOM     26  C   UNL     1       2.589  14.237  18.097  0.00  0.00    +0.000 C 
ATOM     27  C   UNL     1       2.618  13.058  19.051  0.00  0.00    +0.000 C 
ENDBRANCH  22  27
ENDBRANCH   1  22
TORSDOF 6
ENDMDL
MODEL 9
REMARK VINA RESULT:      -6.6      1.233      1.594
REMARK  Name = 
REMARK  10 active torsions:
REMARK  status: ('A' for Active; 'I' for Inactive)
REMARK    1  A    between atoms: C_1  and  C_2
REMARK    2  A    between atoms: C_2  and  C_3
REMARK    3  A    between atoms: C_3  and  C_4
REMARK    4  A    between atoms: C_3  and  N_7
REMARK    5  A    between atoms: C_9  and  C_10
REMARK    6  A    between atoms: N_13  and  C_14
REMARK    7  A    between atoms: C_16  and  O_17
REMARK    8  A    between atoms: O_17  and  C_18
REMARK    9  A    between atoms: C_19  and  C_20
REMARK   10  A    between atoms: C_23  and  C_24
REMARK                            x       y       z     vdW  Elec       q    Type
REMARK                         _______ _______ _______ _____ _____    ______ ____
ROOT
ATOM      1  N   UNL     1       1.759   7.659  19.824  0.00  0.00    +0.000 N 
ATOM      2  N   UNL     1       1.088   7.716  21.031  0.00  0.00    +0.000 NA
ATOM      3  C   UNL     1       0.288   8.708  21.255  0.00  0.00    +0.000 A 
ATOM      4  C   UNL     1      -0.320   8.896  22.617  0.00  0.00    +0.000 C 
ATOM      5  N   UNL     1      -0.098   9.629  20.332  0.00  0.00    +0.000 NA
ATOM      6  C   UNL     1       0.516   9.655  19.185  0.00  0.00    +0.000 A 
ATOM      7  N   UNL     1       0.120  10.494  18.152  0.00  0.00    +0.000 N 
ATOM      8  C   UNL     1       1.714   8.733  18.954  0.00  0.00    +0.000 A 
ATOM      9  O   UNL     1       2.485   8.983  18.034  0.00  0.00    +0.000 OA
ATOM     10  H   UNL     1       0.796  10.695  17.422  0.00  0.00    +0.000 HD
ENDROOT
BRANCH   7  11
ATOM     11  C   UNL     1      -1.209  10.923  17.938  0.00  0.00    +0.000 A 
ATOM     12  C   UNL     1      -1.977  10.380  16.885  0.00  0.00    +0.000 A 
ATOM     13  C   UNL     1      -3.344  10.658  16.701  0.00  0.00    +0.000 A 
ATOM     14  C   UNL     1      -3.975  11.510  17.622  0.00  0.00    +0.000 A 
ATOM     15  C   UNL     1      -3.216  12.072  18.657  0.00  0.00    +0.000 A 
ATOM     16  C   UNL     1      -1.844  11.810  18.820  0.00  0.00    +0.000 A 
ATOM     17  C   UNL     1      -1.126  12.484  19.956  0.00  0.00    +0.000 C 
BRANCH  13  18
ATOM     18  O   UNL     1      -3.861  10.010  15.611  0.00  0.00    +0.000 OA
ATOM     19  C   UNL     1      -3.174  10.041  14.369  0.00  0.00    +0.000 C 
ENDBRANCH  13  18
BRANCH  14  20
ATOM     20  C   UNL     1      -5.355  11.857  17.593  0.00  0.00    +0.000 C 
ATOM     21  N   UNL     1      -6.476  12.168  17.554  0.00  0.00    +0.000 NA
ENDBRANCH  14  20
ENDBRANCH   7  11
BRANCH   1  22
ATOM     22  C   UNL     1       2.740   6.560  19.626  0.00  0.00    +0.000 C 
BRANCH  22  23
ATOM     23  C   UNL     1       2.688   6.112  18.169  0.00  0.00    +0.000 C 
ATOM     24  C   UNL     1       3.960   6.161  17.342  0.00  0.00    +0.000 C 
ATOM     25  C   UNL     1       3.326   4.836  17.638  0.00  0.00    +0.000 C 
ENDBRANCH  22  23
BRANCH  22  27
ATOM     26  C   UNL     1       1.299   4.514  20.379  0.00  0.00    +0.000 C 
ATOM     27  C   UNL     1       2.471   5.438  20.655  0.00  0.00    +0.000 C 
ENDBRANCH  22  27
ENDBRANCH   1  22
TORSDOF 6
ENDMDL
