MODEL 1
REMARK VINA RESULT:      -7.2      0.000      0.000
REMARK  Name = 
REMARK  4 active torsions:
REMARK  status: ('A' for Active; 'I' for Inactive)
REMARK    1  A    between atoms: N_3  and  C_4
REMARK    2  A    between atoms: C_7  and  O_8
REMARK    3  A    between atoms: O_8  and  C_9
REMARK    4  A    between atoms: N_15  and  C_16
REMARK                            x       y       z     vdW  Elec       q    Type
REMARK                         _______ _______ _______ _____ _____    ______ ____
ROOT
ATOM      1  O   UNL     1       7.507   9.577  17.432  0.00  0.00    +0.000 OA
ATOM      2  C   UNL     1       8.324   9.094  18.206  0.00  0.00    +0.000 C 
ATOM      3  N   UNL     1       8.403   7.779  18.612  0.00  0.00    +0.000 N 
ATOM      4  N   UNL     1       9.312   9.854  18.795  0.00  0.00    +0.000 N 
ATOM      5  H   UNL     1       9.151   7.550  19.248  0.00  0.00    +0.000 HD
ATOM      6  H   UNL     1       9.722   9.474  19.633  0.00  0.00    +0.000 HD
ENDROOT
BRANCH   3   7
ATOM      7  C   UNL     1       7.549   6.716  18.246  0.00  0.00    +0.000 A 
ATOM      8  C   UNL     1       7.144   6.468  16.937  0.00  0.00    +0.000 A 
ATOM      9  C   UNL     1       6.289   5.400  16.649  0.00  0.00    +0.000 A 
ATOM     10  C   UNL     1       5.827   4.559  17.662  0.00  0.00    +0.000 A 
ATOM     11  C   UNL     1       6.198   4.821  18.978  0.00  0.00    +0.000 A 
ATOM     12  C   UNL     1       7.074   5.880  19.264  0.00  0.00    +0.000 A 
BRANCH  10  13
ATOM     13  O   UNL     1       4.966   3.590  17.251  0.00  0.00    +0.000 OA
BRANCH  13  14
ATOM     14  C   UNL     1       3.586   3.693  17.569  0.00  0.00    +0.000 C 
ATOM     15  F   UNL     1       2.767   3.012  16.742  0.00  0.00    +0.000 F 
ATOM     16  F   UNL     1       3.393   3.244  18.828  0.00  0.00    +0.000 F 
ATOM     17  F   UNL     1       3.229   4.996  17.528  0.00  0.00    +0.000 F 
ENDBRANCH  13  14
ENDBRANCH  10  13
ENDBRANCH   3   7
BRANCH   4  18
ATOM     18  C   UNL     1       9.345  11.309  18.653  0.00  0.00    +0.000 C 
ATOM     19  C   UNL     1       9.359  12.003  20.024  0.00  0.00    +0.000 C 
ATOM     20  C   UNL     1      10.669  11.770  20.780  0.00  0.00    +0.000 C 
ATOM     21  C   UNL     1      11.901  12.102  19.940  0.00  0.00    +0.000 C 
ATOM     22  C   UNL     1      11.872  11.447  18.561  0.00  0.00    +0.000 C 
ATOM     23  C   UNL     1      10.563  11.742  17.832  0.00  0.00    +0.000 C 
ENDBRANCH   4  18
TORSDOF 4
ENDMDL
MODEL 2
REMARK VINA RESULT:      -7.1      0.138      1.051
REMARK  Name = 
REMARK  4 active torsions:
REMARK  status: ('A' for Active; 'I' for Inactive)
REMARK    1  A    between atoms: N_3  and  C_4
REMARK    2  A    between atoms: C_7  and  O_8
REMARK    3  A    between atoms: O_8  and  C_9
REMARK    4  A    between atoms: N_15  and  C_16
REMARK                            x       y       z     vdW  Elec       q    Type
REMARK                         _______ _______ _______ _____ _____    ______ ____
ROOT
ATOM      1  O   UNL     1       7.505   9.606  17.476  0.00  0.00    +0.000 OA
ATOM      2  C   UNL     1       8.349   9.121  18.220  0.00  0.00    +0.000 C 
ATOM      3  N   UNL     1       8.433   7.809  18.633  0.00  0.00    +0.000 N 
ATOM      4  N   UNL     1       9.366   9.877  18.763  0.00  0.00    +0.000 N 
ATOM      5  H   UNL     1       9.204   7.578  19.240  0.00  0.00    +0.000 HD
ATOM      6  H   UNL     1       9.806   9.500  19.587  0.00  0.00    +0.000 HD
ENDROOT
BRANCH   3   7
ATOM      7  C   UNL     1       7.556   6.751  18.310  0.00  0.00    +0.000 A 
ATOM      8  C   UNL     1       7.162   5.772  19.219  0.00  0.00    +0.000 A 
ATOM      9  C   UNL     1       6.295   4.747  18.826  0.00  0.00    +0.000 A 
ATOM     10  C   UNL     1       5.804   4.684  17.522  0.00  0.00    +0.000 A 
ATOM     11  C   UNL     1       6.222   5.638  16.598  0.00  0.00    +0.000 A 
ATOM     12  C   UNL     1       7.074   6.679  16.997  0.00  0.00    +0.000 A 
BRANCH  10  13
ATOM     13  O   UNL     1       5.009   3.612  17.262  0.00  0.00    +0.000 OA
BRANCH  13  14
ATOM     14  C   UNL     1       3.627   3.664  17.583  0.00  0.00    +0.000 C 
ATOM     15  F   UNL     1       2.815   3.116  16.656  0.00  0.00    +0.000 F 
ATOM     16  F   UNL     1       3.426   3.030  18.758  0.00  0.00    +0.000 F 
ATOM     17  F   UNL     1       3.268   4.958  17.738  0.00  0.00    +0.000 F 
ENDBRANCH  13  14
ENDBRANCH  10  13
ENDBRANCH   3   7
BRANCH   4  18
ATOM     18  C   UNL     1       9.405  11.330  18.609  0.00  0.00    +0.000 C 
ATOM     19  C   UNL     1       9.349  12.038  19.972  0.00  0.00    +0.000 C 
ATOM     20  C   UNL     1      10.619  11.813  20.796  0.00  0.00    +0.000 C 
ATOM     21  C   UNL     1      11.892  12.139  20.017  0.00  0.00    +0.000 C 
ATOM     22  C   UNL     1      11.934  11.471  18.645  0.00  0.00    +0.000 C 
ATOM     23  C   UNL     1      10.663  11.757  17.847  0.00  0.00    +0.000 C 
ENDBRANCH   4  18
TORSDOF 4
ENDMDL
MODEL 3
REMARK VINA RESULT:      -7.1      0.740      1.150
REMARK  Name = 
REMARK  4 active torsions:
REMARK  status: ('A' for Active; 'I' for Inactive)
REMARK    1  A    between atoms: N_3  and  C_4
REMARK    2  A    between atoms: C_7  and  O_8
REMARK    3  A    between atoms: O_8  and  C_9
REMARK    4  A    between atoms: N_15  and  C_16
REMARK                            x       y       z     vdW  Elec       q    Type
REMARK                         _______ _______ _______ _____ _____    ______ ____
ROOT
ATOM      1  O   UNL     1       7.687   9.931  17.669  0.00  0.00    +0.000 OA
ATOM      2  C   UNL     1       8.506   9.422  18.424  0.00  0.00    +0.000 C 
ATOM      3  N   UNL     1       8.628   8.084  18.733  0.00  0.00    +0.000 N 
ATOM      4  N   UNL     1       9.451  10.172  19.092  0.00  0.00    +0.000 N 
ATOM      5  H   UNL     1       9.371   7.836  19.368  0.00  0.00    +0.000 HD
ATOM      6  H   UNL     1       9.857   9.745  19.909  0.00  0.00    +0.000 HD
ENDROOT
BRANCH   3   7
ATOM      7  C   UNL     1       7.824   7.020  18.268  0.00  0.00    +0.000 A 
ATOM      8  C   UNL     1       6.982   7.116  17.164  0.00  0.00    +0.000 A 
ATOM      9  C   UNL     1       6.208   6.022  16.765  0.00  0.00    +0.000 A 
ATOM     10  C   UNL     1       6.264   4.814  17.458  0.00  0.00    +0.000 A 
ATOM     11  C   UNL     1       7.076   4.720  18.586  0.00  0.00    +0.000 A 
ATOM     12  C   UNL     1       7.870   5.811  18.973  0.00  0.00    +0.000 A 
BRANCH  10  13
ATOM     13  O   UNL     1       5.426   3.849  16.994  0.00  0.00    +0.000 OA
BRANCH  13  14
ATOM     14  C   UNL     1       4.165   3.651  17.616  0.00  0.00    +0.000 C 
ATOM     15  F   UNL     1       4.125   3.985  18.923  0.00  0.00    +0.000 F 
ATOM     16  F   UNL     1       3.234   4.376  16.959  0.00  0.00    +0.000 F 
ATOM     17  F   UNL     1       3.831   2.345  17.511  0.00  0.00    +0.000 F 
ENDBRANCH  13  14
ENDBRANCH  10  13
ENDBRANCH   3   7
BRANCH   4  18
ATOM     18  C   UNL     1       9.429  11.633  19.060  0.00  0.00    +0.000 C 
ATOM     19  C   UNL     1      10.033  12.229  20.341  0.00  0.00    +0.000 C 
ATOM     20  C   UNL     1      11.538  11.977  20.446  0.00  0.00    +0.000 C 
ATOM     21  C   UNL     1      12.295  12.401  19.188  0.00  0.00    +0.000 C 
ATOM     22  C   UNL     1      11.675  11.844  17.909  0.00  0.00    +0.000 C 
ATOM     23  C   UNL     1      10.181  12.155  17.832  0.00  0.00    +0.000 C 
ENDBRANCH   4  18
TORSDOF 4
ENDMDL
MODEL 4
REMARK VINA RESULT:      -6.7      1.314      2.099
REMARK  Name = 
REMARK  4 active torsions:
REMARK  status: ('A' for Active; 'I' for Inactive)
REMARK    1  A    between atoms: N_3  and  C_4
REMARK    2  A    between atoms: C_7  and  O_8
REMARK    3  A    between atoms: O_8  and  C_9
REMARK    4  A    between atoms: N_15  and  C_16
REMARK                            x       y       z     vdW  Elec       q    Type
REMARK                         _______ _______ _______ _____ _____    ______ ____
ROOT
ATOM      1  O   UNL     1       8.860   8.105  19.136  0.00  0.00    +0.000 OA
ATOM      2  C   UNL     1       8.355   8.820  18.278  0.00  0.00    +0.000 C 
ATOM      3  N   UNL     1       7.368   8.466  17.383  0.00  0.00    +0.000 N 
ATOM      4  N   UNL     1       8.741  10.131  18.098  0.00  0.00    +0.000 N 
ATOM      5  H   UNL     1       7.058   9.188  16.750  0.00  0.00    +0.000 HD
ATOM      6  H   UNL     1       8.525  10.536  17.201  0.00  0.00    +0.000 HD
ENDROOT
BRANCH   3   7
ATOM      7  C   UNL     1       6.747   7.207  17.245  0.00  0.00    +0.000 A 
ATOM      8  C   UNL     1       7.408   5.996  17.437  0.00  0.00    +0.000 A 
ATOM      9  C   UNL     1       6.730   4.784  17.275  0.00  0.00    +0.000 A 
ATOM     10  C   UNL     1       5.381   4.759  16.923  0.00  0.00    +0.000 A 
ATOM     11  C   UNL     1       4.722   5.964  16.693  0.00  0.00    +0.000 A 
ATOM     12  C   UNL     1       5.396   7.181  16.877  0.00  0.00    +0.000 A 
BRANCH  10  13
ATOM     13  O   UNL     1       4.858   3.515  16.752  0.00  0.00    +0.000 OA
BRANCH  13  14
ATOM     14  C   UNL     1       3.768   3.092  17.556  0.00  0.00    +0.000 C 
ATOM     15  F   UNL     1       2.557   3.498  17.120  0.00  0.00    +0.000 F 
ATOM     16  F   UNL     1       3.770   1.743  17.622  0.00  0.00    +0.000 F 
ATOM     17  F   UNL     1       3.941   3.574  18.807  0.00  0.00    +0.000 F 
ENDBRANCH  13  14
ENDBRANCH  10  13
ENDBRANCH   3   7
BRANCH   4  18
ATOM     18  C   UNL     1       9.883  10.697  18.813  0.00  0.00    +0.000 C 
ATOM     19  C   UNL     1      10.822  11.451  17.859  0.00  0.00    +0.000 C 
ATOM     20  C   UNL     1      10.184  12.726  17.303  0.00  0.00    +0.000 C 
ATOM     21  C   UNL     1       9.615  13.626  18.398  0.00  0.00    +0.000 C 
ATOM     22  C   UNL     1       8.713  12.873  19.373  0.00  0.00    +0.000 C 
ATOM     23  C   UNL     1       9.409  11.632  19.930  0.00  0.00    +0.000 C 
ENDBRANCH   4  18
TORSDOF 4
ENDMDL
MODEL 5
REMARK VINA RESULT:      -6.7      1.659      2.535
REMARK  Name = 
REMARK  4 active torsions:
REMARK  status: ('A' for Active; 'I' for Inactive)
REMARK    1  A    between atoms: N_3  and  C_4
REMARK    2  A    between atoms: C_7  and  O_8
REMARK    3  A    between atoms: O_8  and  C_9
REMARK    4  A    between atoms: N_15  and  C_16
REMARK                            x       y       z     vdW  Elec       q    Type
REMARK                         _______ _______ _______ _____ _____    ______ ____
ROOT
ATOM      1  O   UNL     1       9.010   9.724  19.893  0.00  0.00    +0.000 OA
ATOM      2  C   UNL     1       9.004   9.935  18.686  0.00  0.00    +0.000 C 
ATOM      3  N   UNL     1       8.435   9.144  17.711  0.00  0.00    +0.000 N 
ATOM      4  N   UNL     1       9.601  11.049  18.135  0.00  0.00    +0.000 N 
ATOM      5  H   UNL     1       8.513   9.477  16.763  0.00  0.00    +0.000 HD
ATOM      6  H   UNL     1       9.830  10.989  17.156  0.00  0.00    +0.000 HD
ENDROOT
BRANCH   3   7
ATOM      7  C   UNL     1       7.764   7.915  17.887  0.00  0.00    +0.000 A 
ATOM      8  C   UNL     1       8.226   6.896  18.715  0.00  0.00    +0.000 A 
ATOM      9  C   UNL     1       7.512   5.700  18.835  0.00  0.00    +0.000 A 
ATOM     10  C   UNL     1       6.322   5.503  18.136  0.00  0.00    +0.000 A 
ATOM     11  C   UNL     1       5.871   6.502  17.277  0.00  0.00    +0.000 A 
ATOM     12  C   UNL     1       6.576   7.711  17.174  0.00  0.00    +0.000 A 
BRANCH  10  13
ATOM     13  O   UNL     1       5.755   4.278  18.306  0.00  0.00    +0.000 OA
BRANCH  13  14
ATOM     14  C   UNL     1       4.541   4.159  19.033  0.00  0.00    +0.000 C 
ATOM     15  F   UNL     1       4.279   5.190  19.863  0.00  0.00    +0.000 F 
ATOM     16  F   UNL     1       3.518   4.042  18.159  0.00  0.00    +0.000 F 
ATOM     17  F   UNL     1       4.590   3.030  19.775  0.00  0.00    +0.000 F 
ENDBRANCH  13  14
ENDBRANCH  10  13
ENDBRANCH   3   7
BRANCH   4  18
ATOM     18  C   UNL     1      10.412  11.959  18.941  0.00  0.00    +0.000 C 
ATOM     19  C   UNL     1      11.782  12.209  18.293  0.00  0.00    +0.000 C 
ATOM     20  C   UNL     1      11.673  13.012  16.995  0.00  0.00    +0.000 C 
ATOM     21  C   UNL     1      10.860  14.294  17.161  0.00  0.00    +0.000 C 
ATOM     22  C   UNL     1       9.514  14.057  17.842  0.00  0.00    +0.000 C 
ATOM     23  C   UNL     1       9.680  13.288  19.152  0.00  0.00    +0.000 C 
ENDBRANCH   4  18
TORSDOF 4
ENDMDL
MODEL 6
REMARK VINA RESULT:      -6.6      7.940     10.132
REMARK  Name = 
REMARK  4 active torsions:
REMARK  status: ('A' for Active; 'I' for Inactive)
REMARK    1  A    between atoms: N_3  and  C_4
REMARK    2  A    between atoms: C_7  and  O_8
REMARK    3  A    between atoms: O_8  and  C_9
REMARK    4  A    between atoms: N_15  and  C_16
REMARK                            x       y       z     vdW  Elec       q    Type
REMARK                         _______ _______ _______ _____ _____    ______ ____
ROOT
ATOM      1  O   UNL     1       1.829   8.479  19.041  0.00  0.00    +0.000 OA
ATOM      2  C   UNL     1       1.918   7.783  20.045  0.00  0.00    +0.000 C 
ATOM      3  N   UNL     1       1.408   8.064  21.295  0.00  0.00    +0.000 N 
ATOM      4  N   UNL     1       2.578   6.573  20.040  0.00  0.00    +0.000 N 
ATOM      5  H   UNL     1       1.564   7.369  22.009  0.00  0.00    +0.000 HD
ATOM      6  H   UNL     1       2.879   6.229  20.938  0.00  0.00    +0.000 HD
ENDROOT
BRANCH   3   7
ATOM      7  C   UNL     1       0.700   9.218  21.693  0.00  0.00    +0.000 A 
ATOM      8  C   UNL     1       0.815  10.451  21.055  0.00  0.00    +0.000 A 
ATOM      9  C   UNL     1       0.088  11.555  21.510  0.00  0.00    +0.000 A 
ATOM     10  C   UNL     1      -0.770  11.447  22.604  0.00  0.00    +0.000 A 
ATOM     11  C   UNL     1      -0.864  10.227  23.270  0.00  0.00    +0.000 A 
ATOM     12  C   UNL     1      -0.150   9.113  22.800  0.00  0.00    +0.000 A 
BRANCH  10  13
ATOM     13  O   UNL     1      -1.379  12.607  22.970  0.00  0.00    +0.000 OA
BRANCH  13  14
ATOM     14  C   UNL     1      -2.796  12.693  22.958  0.00  0.00    +0.000 C 
ATOM     15  F   UNL     1      -3.412  11.937  23.890  0.00  0.00    +0.000 F 
ATOM     16  F   UNL     1      -3.158  13.981  23.144  0.00  0.00    +0.000 F 
ATOM     17  F   UNL     1      -3.243  12.302  21.744  0.00  0.00    +0.000 F 
ENDBRANCH  13  14
ENDBRANCH  10  13
ENDBRANCH   3   7
BRANCH   4  18
ATOM     18  C   UNL     1       3.344   6.125  18.878  0.00  0.00    +0.000 C 
ATOM     19  C   UNL     1       4.420   5.103  19.279  0.00  0.00    +0.000 C 
ATOM     20  C   UNL     1       3.816   3.775  19.741  0.00  0.00    +0.000 C 
ATOM     21  C   UNL     1       2.809   3.207  18.742  0.00  0.00    +0.000 C 
ATOM     22  C   UNL     1       1.763   4.230  18.310  0.00  0.00    +0.000 C 
ATOM     23  C   UNL     1       2.415   5.522  17.821  0.00  0.00    +0.000 C 
ENDBRANCH   4  18
TORSDOF 4
ENDMDL
MODEL 7
REMARK VINA RESULT:      -6.6      1.742      2.346
REMARK  Name = 
REMARK  4 active torsions:
REMARK  status: ('A' for Active; 'I' for Inactive)
REMARK    1  A    between atoms: N_3  and  C_4
REMARK    2  A    between atoms: C_7  and  O_8
REMARK    3  A    between atoms: O_8  and  C_9
REMARK    4  A    between atoms: N_15  and  C_16
REMARK                            x       y       z     vdW  Elec       q    Type
REMARK                         _______ _______ _______ _____ _____    ______ ____
ROOT
ATOM      1  O   UNL     1       9.258   9.728  19.820  0.00  0.00    +0.000 OA
ATOM      2  C   UNL     1       9.041  10.048  18.657  0.00  0.00    +0.000 C 
ATOM      3  N   UNL     1       8.361   9.314  17.709  0.00  0.00    +0.000 N 
ATOM      4  N   UNL     1       9.480  11.246  18.134  0.00  0.00    +0.000 N 
ATOM      5  H   UNL     1       8.264   9.737  16.799  0.00  0.00    +0.000 HD
ATOM      6  H   UNL     1       9.548  11.292  17.130  0.00  0.00    +0.000 HD
ENDROOT
BRANCH   3   7
ATOM      7  C   UNL     1       7.793   8.031  17.864  0.00  0.00    +0.000 A 
ATOM      8  C   UNL     1       6.711   7.572  17.118  0.00  0.00    +0.000 A 
ATOM      9  C   UNL     1       6.195   6.290  17.331  0.00  0.00    +0.000 A 
ATOM     10  C   UNL     1       6.753   5.443  18.289  0.00  0.00    +0.000 A 
ATOM     11  C   UNL     1       7.812   5.907  19.064  0.00  0.00    +0.000 A 
ATOM     12  C   UNL     1       8.344   7.186  18.835  0.00  0.00    +0.000 A 
BRANCH  10  13
ATOM     13  O   UNL     1       6.125   4.244  18.426  0.00  0.00    +0.000 OA
BRANCH  13  14
ATOM     14  C   UNL     1       4.841   4.186  19.028  0.00  0.00    +0.000 C 
ATOM     15  F   UNL     1       3.813   4.134  18.155  0.00  0.00    +0.000 F 
ATOM     16  F   UNL     1       4.780   3.098  19.826  0.00  0.00    +0.000 F 
ATOM     17  F   UNL     1       4.675   5.283  19.800  0.00  0.00    +0.000 F 
ENDBRANCH  13  14
ENDBRANCH  10  13
ENDBRANCH   3   7
BRANCH   4  18
ATOM     18  C   UNL     1      10.364  12.132  18.889  0.00  0.00    +0.000 C 
ATOM     19  C   UNL     1      11.685  12.372  18.142  0.00  0.00    +0.000 C 
ATOM     20  C   UNL     1      11.491  13.197  16.868  0.00  0.00    +0.000 C 
ATOM     21  C   UNL     1      10.713  14.488  17.115  0.00  0.00    +0.000 C 
ATOM     22  C   UNL     1       9.419  14.260  17.892  0.00  0.00    +0.000 C 
ATOM     23  C   UNL     1       9.671  13.468  19.174  0.00  0.00    +0.000 C 
ENDBRANCH   4  18
TORSDOF 4
ENDMDL
MODEL 8
REMARK VINA RESULT:      -6.5      5.664      6.887
REMARK  Name = 
REMARK  4 active torsions:
REMARK  status: ('A' for Active; 'I' for Inactive)
REMARK    1  A    between atoms: N_3  and  C_4
REMARK    2  A    between atoms: C_7  and  O_8
REMARK    3  A    between atoms: O_8  and  C_9
REMARK    4  A    between atoms: N_15  and  C_16
REMARK                            x       y       z     vdW  Elec       q    Type
REMARK                         _______ _______ _______ _____ _____    ______ ____
ROOT
ATOM      1  O   UNL     1       2.187   9.368  17.201  0.00  0.00    +0.000 OA
ATOM      2  C   UNL     1       1.897   8.874  18.284  0.00  0.00    +0.000 C 
ATOM      3  N   UNL     1       2.346   7.674  18.793  0.00  0.00    +0.000 N 
ATOM      4  N   UNL     1       1.038   9.496  19.165  0.00  0.00    +0.000 N 
ATOM      5  H   UNL     1       2.014   7.425  19.712  0.00  0.00    +0.000 HD
ATOM      6  H   UNL     1       0.610   8.903  19.858  0.00  0.00    +0.000 HD
ENDROOT
BRANCH   3   7
ATOM      7  C   UNL     1       3.211   6.749  18.170  0.00  0.00    +0.000 A 
ATOM      8  C   UNL     1       4.498   7.063  17.743  0.00  0.00    +0.000 A 
ATOM      9  C   UNL     1       5.297   6.096  17.126  0.00  0.00    +0.000 A 
ATOM     10  C   UNL     1       4.828   4.798  16.929  0.00  0.00    +0.000 A 
ATOM     11  C   UNL     1       3.528   4.484  17.320  0.00  0.00    +0.000 A 
ATOM     12  C   UNL     1       2.734   5.449  17.959  0.00  0.00    +0.000 A 
BRANCH  10  13
ATOM     13  O   UNL     1       5.688   3.972  16.275  0.00  0.00    +0.000 OA
BRANCH  13  14
ATOM     14  C   UNL     1       6.129   4.305  14.967  0.00  0.00    +0.000 C 
ATOM     15  F   UNL     1       7.301   4.970  14.922  0.00  0.00    +0.000 F 
ATOM     16  F   UNL     1       6.251   3.171  14.245  0.00  0.00    +0.000 F 
ATOM     17  F   UNL     1       5.189   5.078  14.378  0.00  0.00    +0.000 F 
ENDBRANCH  13  14
ENDBRANCH  10  13
ENDBRANCH   3   7
BRANCH   4  18
ATOM     18  C   UNL     1       0.301  10.701  18.792  0.00  0.00    +0.000 C 
ATOM     19  C   UNL     1      -1.045  10.784  19.529  0.00  0.00    +0.000 C 
ATOM     20  C   UNL     1      -0.871  11.020  21.031  0.00  0.00    +0.000 C 
ATOM     21  C   UNL     1       0.042  12.206  21.339  0.00  0.00    +0.000 C 
ATOM     22  C   UNL     1       1.364  12.149  20.578  0.00  0.00    +0.000 C 
ATOM     23  C   UNL     1       1.136  11.953  19.080  0.00  0.00    +0.000 C 
ENDBRANCH   4  18
TORSDOF 4
ENDMDL
MODEL 9
REMARK VINA RESULT:      -6.5      7.219      9.434
REMARK  Name = 
REMARK  4 active torsions:
REMARK  status: ('A' for Active; 'I' for Inactive)
REMARK    1  A    between atoms: N_3  and  C_4
REMARK    2  A    between atoms: C_7  and  O_8
REMARK    3  A    between atoms: O_8  and  C_9
REMARK    4  A    between atoms: N_15  and  C_16
REMARK                            x       y       z     vdW  Elec       q    Type
REMARK                         _______ _______ _______ _____ _____    ______ ____
ROOT
ATOM      1  O   UNL     1       0.896   5.275  20.688  0.00  0.00    +0.000 OA
ATOM      2  C   UNL     1       2.058   5.445  20.339  0.00  0.00    +0.000 C 
ATOM      3  N   UNL     1       2.614   6.607  19.849  0.00  0.00    +0.000 N 
ATOM      4  N   UNL     1       2.994   4.434  20.398  0.00  0.00    +0.000 N 
ATOM      5  H   UNL     1       3.596   6.572  19.622  0.00  0.00    +0.000 HD
ATOM      6  H   UNL     1       3.807   4.549  19.813  0.00  0.00    +0.000 HD
ENDROOT
BRANCH   3   7
ATOM      7  C   UNL     1       1.964   7.838  19.621  0.00  0.00    +0.000 A 
ATOM      8  C   UNL     1       1.293   8.552  20.611  0.00  0.00    +0.000 A 
ATOM      9  C   UNL     1       0.664   9.763  20.310  0.00  0.00    +0.000 A 
ATOM     10  C   UNL     1       0.697  10.286  19.017  0.00  0.00    +0.000 A 
ATOM     11  C   UNL     1       1.335   9.562  18.013  0.00  0.00    +0.000 A 
ATOM     12  C   UNL     1       1.985   8.356  18.320  0.00  0.00    +0.000 A 
BRANCH  10  13
ATOM     13  O   UNL     1       0.006  11.446  18.852  0.00  0.00    +0.000 OA
BRANCH  13  14
ATOM     14  C   UNL     1      -1.361  11.403  18.470  0.00  0.00    +0.000 C 
ATOM     15  F   UNL     1      -1.644  12.057  17.324  0.00  0.00    +0.000 F 
ATOM     16  F   UNL     1      -1.736  10.113  18.331  0.00  0.00    +0.000 F 
ATOM     17  F   UNL     1      -2.103  11.953  19.457  0.00  0.00    +0.000 F 
ENDBRANCH  13  14
ENDBRANCH  10  13
ENDBRANCH   3   7
BRANCH   4  18
ATOM     18  C   UNL     1       2.617   3.061  20.729  0.00  0.00    +0.000 C 
ATOM     19  C   UNL     1       1.614   2.497  19.711  0.00  0.00    +0.000 C 
ATOM     20  C   UNL     1       2.241   2.286  18.332  0.00  0.00    +0.000 C 
ATOM     21  C   UNL     1       3.536   1.476  18.390  0.00  0.00    +0.000 C 
ATOM     22  C   UNL     1       4.520   2.009  19.428  0.00  0.00    +0.000 C 
ATOM     23  C   UNL     1       3.857   2.164  20.797  0.00  0.00    +0.000 C 
ENDBRANCH   4  18
TORSDOF 4
ENDMDL
