MODEL 1
REMARK VINA RESULT:      -6.9      0.000      0.000
REMARK  Name = 
REMARK  11 active torsions:
REMARK  status: ('A' for Active; 'I' for Inactive)
REMARK    1  A    between atoms: C_1  and  C_2
REMARK    2  A    between atoms: C_2  and  C_3
REMARK    3  A    between atoms: C_2  and  C_4
REMARK    4  A    between atoms: C_4  and  C_5
REMARK    5  A    between atoms: C_5  and  C_6
REMARK    6  A    between atoms: C_6  and  N_7
REMARK    7  A    between atoms: N_9  and  C_10
REMARK    8  A    between atoms: C_18  and  C_19
REMARK    9  A    between atoms: C_19  and  C_20
REMARK   10  A    between atoms: C_20  and  C_21
REMARK   11  A    between atoms: C_20  and  C_22
REMARK                            x       y       z     vdW  Elec       q    Type
REMARK                         _______ _______ _______ _____ _____    ______ ____
ROOT
ATOM      1  N   UNL     1       4.696   4.778  16.837  0.00  0.00    +0.000 N 
ATOM      2  C   UNL     1       4.384   5.956  17.495  0.00  0.00    +0.000 C 
ATOM      3  N   UNL     1       3.122   6.106  17.975  0.00  0.00    +0.000 N 
ATOM      4  N   UNL     1       5.365   6.821  17.595  0.00  0.00    +0.000 NA
ATOM      5  C   UNL     1       6.502   6.187  16.890  0.00  0.00    +0.000 C 
ATOM      6  C   UNL     1       6.160   4.691  16.815  0.00  0.00    +0.000 C 
ATOM      7  H   UNL     1       2.596   5.258  18.107  0.00  0.00    +0.000 HD
ENDROOT
BRANCH   3   8
ATOM      8  C   UNL     1       2.492   7.228  18.544  0.00  0.00    +0.000 A 
ATOM      9  C   UNL     1       2.158   7.173  19.910  0.00  0.00    +0.000 A 
ATOM     10  C   UNL     1       1.470   8.214  20.540  0.00  0.00    +0.000 A 
ATOM     11  C   UNL     1       1.097   9.341  19.812  0.00  0.00    +0.000 A 
ATOM     12  C   UNL     1       1.398   9.405  18.457  0.00  0.00    +0.000 A 
ATOM     13  C   UNL     1       2.070   8.352  17.825  0.00  0.00    +0.000 A 
ENDBRANCH   3   8
BRANCH   1  14
ATOM     14  C   UNL     1       3.876   3.588  16.662  0.00  0.00    +0.000 C 
BRANCH  14  15
ATOM     15  C   UNL     1       3.724   2.805  17.977  0.00  0.00    +0.000 C 
BRANCH  15  16
ATOM     16  C   UNL     1       2.256   2.496  18.302  0.00  0.00    +0.000 C 
BRANCH  16  18
ATOM     17  C   UNL     1       3.199   2.827  20.614  0.00  0.00    +0.000 C 
ATOM     18  C   UNL     1       1.921   2.577  19.807  0.00  0.00    +0.000 C 
ATOM     19  C   UNL     1       0.901   3.668  20.144  0.00  0.00    +0.000 C 
ENDBRANCH  16  18
ENDBRANCH  15  16
ENDBRANCH  14  15
ENDBRANCH   1  14
BRANCH   6  20
ATOM     20  C   UNL     1       6.758   4.004  15.586  0.00  0.00    +0.000 C 
BRANCH  20  21
ATOM     21  C   UNL     1       6.423   4.693  14.244  0.00  0.00    +0.000 C 
ATOM     22  C   UNL     1       7.673   5.161  13.495  0.00  0.00    +0.000 C 
ATOM     23  C   UNL     1       5.621   3.738  13.356  0.00  0.00    +0.000 C 
ENDBRANCH  20  21
ENDBRANCH   6  20
TORSDOF 7
ENDMDL
MODEL 2
REMARK VINA RESULT:      -6.9      0.340      1.071
REMARK  Name = 
REMARK  11 active torsions:
REMARK  status: ('A' for Active; 'I' for Inactive)
REMARK    1  A    between atoms: C_1  and  C_2
REMARK    2  A    between atoms: C_2  and  C_3
REMARK    3  A    between atoms: C_2  and  C_4
REMARK    4  A    between atoms: C_4  and  C_5
REMARK    5  A    between atoms: C_5  and  C_6
REMARK    6  A    between atoms: C_6  and  N_7
REMARK    7  A    between atoms: N_9  and  C_10
REMARK    8  A    between atoms: C_18  and  C_19
REMARK    9  A    between atoms: C_19  and  C_20
REMARK   10  A    between atoms: C_20  and  C_21
REMARK   11  A    between atoms: C_20  and  C_22
REMARK                            x       y       z     vdW  Elec       q    Type
REMARK                         _______ _______ _______ _____ _____    ______ ____
ROOT
ATOM      1  N   UNL     1       4.564   4.860  17.042  0.00  0.00    +0.000 N 
ATOM      2  C   UNL     1       4.205   6.074  17.603  0.00  0.00    +0.000 C 
ATOM      3  N   UNL     1       2.961   6.190  18.137  0.00  0.00    +0.000 N 
ATOM      4  N   UNL     1       5.128   7.005  17.566  0.00  0.00    +0.000 NA
ATOM      5  C   UNL     1       6.270   6.379  16.861  0.00  0.00    +0.000 C 
ATOM      6  C   UNL     1       6.028   4.865  16.947  0.00  0.00    +0.000 C 
ATOM      7  H   UNL     1       2.502   5.327  18.377  0.00  0.00    +0.000 HD
ENDROOT
BRANCH   3   8
ATOM      8  C   UNL     1       2.284   7.320  18.632  0.00  0.00    +0.000 A 
ATOM      9  C   UNL     1       2.018   8.372  17.735  0.00  0.00    +0.000 A 
ATOM     10  C   UNL     1       1.413   9.560  18.157  0.00  0.00    +0.000 A 
ATOM     11  C   UNL     1       1.058   9.722  19.493  0.00  0.00    +0.000 A 
ATOM     12  C   UNL     1       1.331   8.704  20.398  0.00  0.00    +0.000 A 
ATOM     13  C   UNL     1       1.956   7.524  19.976  0.00  0.00    +0.000 A 
ENDBRANCH   3   8
BRANCH   1  14
ATOM     14  C   UNL     1       3.820   3.609  17.027  0.00  0.00    +0.000 C 
BRANCH  14  15
ATOM     15  C   UNL     1       3.744   2.976  18.426  0.00  0.00    +0.000 C 
BRANCH  15  16
ATOM     16  C   UNL     1       2.415   2.246  18.662  0.00  0.00    +0.000 C 
BRANCH  16  18
ATOM     17  C   UNL     1       2.859   2.693  21.101  0.00  0.00    +0.000 C 
ATOM     18  C   UNL     1       1.771   2.553  20.032  0.00  0.00    +0.000 C 
ATOM     19  C   UNL     1       0.912   3.821  20.029  0.00  0.00    +0.000 C 
ENDBRANCH  16  18
ENDBRANCH  15  16
ENDBRANCH  14  15
ENDBRANCH   1  14
BRANCH   6  20
ATOM     20  C   UNL     1       6.610   4.100  15.757  0.00  0.00    +0.000 C 
BRANCH  20  21
ATOM     21  C   UNL     1       6.333   4.752  14.383  0.00  0.00    +0.000 C 
ATOM     22  C   UNL     1       7.618   5.116  13.635  0.00  0.00    +0.000 C 
ATOM     23  C   UNL     1       5.488   3.810  13.521  0.00  0.00    +0.000 C 
ENDBRANCH  20  21
ENDBRANCH   6  20
TORSDOF 7
ENDMDL
MODEL 3
REMARK VINA RESULT:      -6.8      2.197      3.922
REMARK  Name = 
REMARK  11 active torsions:
REMARK  status: ('A' for Active; 'I' for Inactive)
REMARK    1  A    between atoms: C_1  and  C_2
REMARK    2  A    between atoms: C_2  and  C_3
REMARK    3  A    between atoms: C_2  and  C_4
REMARK    4  A    between atoms: C_4  and  C_5
REMARK    5  A    between atoms: C_5  and  C_6
REMARK    6  A    between atoms: C_6  and  N_7
REMARK    7  A    between atoms: N_9  and  C_10
REMARK    8  A    between atoms: C_18  and  C_19
REMARK    9  A    between atoms: C_19  and  C_20
REMARK   10  A    between atoms: C_20  and  C_21
REMARK   11  A    between atoms: C_20  and  C_22
REMARK                            x       y       z     vdW  Elec       q    Type
REMARK                         _______ _______ _______ _____ _____    ______ ____
ROOT
ATOM      1  N   UNL     1       2.281   6.559  19.708  0.00  0.00    +0.000 N 
ATOM      2  C   UNL     1       1.783   7.838  19.893  0.00  0.00    +0.000 C 
ATOM      3  N   UNL     1       1.203   8.133  21.086  0.00  0.00    +0.000 N 
ATOM      4  N   UNL     1       1.932   8.652  18.876  0.00  0.00    +0.000 NA
ATOM      5  C   UNL     1       2.589   7.836  17.830  0.00  0.00    +0.000 C 
ATOM      6  C   UNL     1       3.201   6.634  18.567  0.00  0.00    +0.000 C 
ATOM      7  H   UNL     1       1.447   7.531  21.855  0.00  0.00    +0.000 HD
ENDROOT
BRANCH   3   8
ATOM      8  C   UNL     1       0.496   9.278  21.496  0.00  0.00    +0.000 A 
ATOM      9  C   UNL     1      -0.093   9.265  22.775  0.00  0.00    +0.000 A 
ATOM     10  C   UNL     1      -0.871  10.331  23.235  0.00  0.00    +0.000 A 
ATOM     11  C   UNL     1      -1.079  11.441  22.422  0.00  0.00    +0.000 A 
ATOM     12  C   UNL     1      -0.523  11.465  21.148  0.00  0.00    +0.000 A 
ATOM     13  C   UNL     1       0.238  10.387  20.683  0.00  0.00    +0.000 A 
ENDBRANCH   3   8
BRANCH   1  14
ATOM     14  C   UNL     1       2.374   5.471  20.669  0.00  0.00    +0.000 C 
BRANCH  14  15
ATOM     15  C   UNL     1       1.168   4.521  20.572  0.00  0.00    +0.000 C 
BRANCH  15  16
ATOM     16  C   UNL     1       1.525   3.084  20.973  0.00  0.00    +0.000 C 
BRANCH  16  18
ATOM     17  C   UNL     1       0.930   2.574  18.580  0.00  0.00    +0.000 C 
ATOM     18  C   UNL     1       1.792   2.150  19.774  0.00  0.00    +0.000 C 
ATOM     19  C   UNL     1       3.261   2.123  19.340  0.00  0.00    +0.000 C 
ENDBRANCH  16  18
ENDBRANCH  15  16
ENDBRANCH  14  15
ENDBRANCH   1  14
BRANCH   6  20
ATOM     20  C   UNL     1       3.273   5.376  17.699  0.00  0.00    +0.000 C 
BRANCH  20  21
ATOM     21  C   UNL     1       4.709   4.916  17.361  0.00  0.00    +0.000 C 
ATOM     22  C   UNL     1       5.319   5.702  16.199  0.00  0.00    +0.000 C 
ATOM     23  C   UNL     1       5.602   5.052  18.597  0.00  0.00    +0.000 C 
ENDBRANCH  20  21
ENDBRANCH   6  20
TORSDOF 7
ENDMDL
MODEL 4
REMARK VINA RESULT:      -6.8      2.229      4.103
REMARK  Name = 
REMARK  11 active torsions:
REMARK  status: ('A' for Active; 'I' for Inactive)
REMARK    1  A    between atoms: C_1  and  C_2
REMARK    2  A    between atoms: C_2  and  C_3
REMARK    3  A    between atoms: C_2  and  C_4
REMARK    4  A    between atoms: C_4  and  C_5
REMARK    5  A    between atoms: C_5  and  C_6
REMARK    6  A    between atoms: C_6  and  N_7
REMARK    7  A    between atoms: N_9  and  C_10
REMARK    8  A    between atoms: C_18  and  C_19
REMARK    9  A    between atoms: C_19  and  C_20
REMARK   10  A    between atoms: C_20  and  C_21
REMARK   11  A    between atoms: C_20  and  C_22
REMARK                            x       y       z     vdW  Elec       q    Type
REMARK                         _______ _______ _______ _____ _____    ______ ____
ROOT
ATOM      1  N   UNL     1       2.220   6.549  19.784  0.00  0.00    +0.000 N 
ATOM      2  C   UNL     1       1.733   7.828  19.995  0.00  0.00    +0.000 C 
ATOM      3  N   UNL     1       1.164   8.105  21.197  0.00  0.00    +0.000 N 
ATOM      4  N   UNL     1       1.880   8.658  18.991  0.00  0.00    +0.000 NA
ATOM      5  C   UNL     1       2.524   7.856  17.926  0.00  0.00    +0.000 C 
ATOM      6  C   UNL     1       3.132   6.637  18.637  0.00  0.00    +0.000 C 
ATOM      7  H   UNL     1       1.408   7.489  21.954  0.00  0.00    +0.000 HD
ENDROOT
BRANCH   3   8
ATOM      8  C   UNL     1       0.467   9.248  21.632  0.00  0.00    +0.000 A 
ATOM      9  C   UNL     1       0.710  10.461  20.961  0.00  0.00    +0.000 A 
ATOM     10  C   UNL     1       0.114  11.658  21.371  0.00  0.00    +0.000 A 
ATOM     11  C   UNL     1      -0.742  11.668  22.468  0.00  0.00    +0.000 A 
ATOM     12  C   UNL     1      -0.978  10.484  23.157  0.00  0.00    +0.000 A 
ATOM     13  C   UNL     1      -0.365   9.292  22.756  0.00  0.00    +0.000 A 
ENDBRANCH   3   8
BRANCH   1  14
ATOM     14  C   UNL     1       2.312   5.443  20.725  0.00  0.00    +0.000 C 
BRANCH  14  15
ATOM     15  C   UNL     1       1.166   4.436  20.533  0.00  0.00    +0.000 C 
BRANCH  15  16
ATOM     16  C   UNL     1       1.563   3.016  20.958  0.00  0.00    +0.000 C 
BRANCH  16  18
ATOM     17  C   UNL     1       0.857   2.439  18.610  0.00  0.00    +0.000 C 
ATOM     18  C   UNL     1       1.773   2.047  19.774  0.00  0.00    +0.000 C 
ATOM     19  C   UNL     1       3.220   2.005  19.273  0.00  0.00    +0.000 C 
ENDBRANCH  16  18
ENDBRANCH  15  16
ENDBRANCH  14  15
ENDBRANCH   1  14
BRANCH   6  20
ATOM     20  C   UNL     1       3.189   5.394  17.747  0.00  0.00    +0.000 C 
BRANCH  20  21
ATOM     21  C   UNL     1       4.619   4.887  17.452  0.00  0.00    +0.000 C 
ATOM     22  C   UNL     1       5.299   5.670  16.327  0.00  0.00    +0.000 C 
ATOM     23  C   UNL     1       5.471   4.966  18.721  0.00  0.00    +0.000 C 
ENDBRANCH  20  21
ENDBRANCH   6  20
TORSDOF 7
ENDMDL
MODEL 5
REMARK VINA RESULT:      -6.6      2.595      6.986
REMARK  Name = 
REMARK  11 active torsions:
REMARK  status: ('A' for Active; 'I' for Inactive)
REMARK    1  A    between atoms: C_1  and  C_2
REMARK    2  A    between atoms: C_2  and  C_3
REMARK    3  A    between atoms: C_2  and  C_4
REMARK    4  A    between atoms: C_4  and  C_5
REMARK    5  A    between atoms: C_5  and  C_6
REMARK    6  A    between atoms: C_6  and  N_7
REMARK    7  A    between atoms: N_9  and  C_10
REMARK    8  A    between atoms: C_18  and  C_19
REMARK    9  A    between atoms: C_19  and  C_20
REMARK   10  A    between atoms: C_20  and  C_21
REMARK   11  A    between atoms: C_20  and  C_22
REMARK                            x       y       z     vdW  Elec       q    Type
REMARK                         _______ _______ _______ _____ _____    ______ ____
ROOT
ATOM      1  N   UNL     1       5.154   4.103  18.059  0.00  0.00    +0.000 N 
ATOM      2  C   UNL     1       5.145   4.028  16.676  0.00  0.00    +0.000 C 
ATOM      3  N   UNL     1       6.320   4.212  16.018  0.00  0.00    +0.000 N 
ATOM      4  N   UNL     1       3.978   3.773  16.134  0.00  0.00    +0.000 NA
ATOM      5  C   UNL     1       3.039   3.691  17.276  0.00  0.00    +0.000 C 
ATOM      6  C   UNL     1       3.917   3.460  18.516  0.00  0.00    +0.000 C 
ATOM      7  H   UNL     1       7.156   4.077  16.561  0.00  0.00    +0.000 HD
ENDROOT
BRANCH   3   8
ATOM      8  C   UNL     1       6.581   4.335  14.640  0.00  0.00    +0.000 A 
ATOM      9  C   UNL     1       5.940   3.436  13.767  0.00  0.00    +0.000 A 
ATOM     10  C   UNL     1       6.196   3.442  12.392  0.00  0.00    +0.000 A 
ATOM     11  C   UNL     1       7.103   4.352  11.858  0.00  0.00    +0.000 A 
ATOM     12  C   UNL     1       7.762   5.233  12.706  0.00  0.00    +0.000 A 
ATOM     13  C   UNL     1       7.519   5.211  14.085  0.00  0.00    +0.000 A 
ENDBRANCH   3   8
BRANCH   1  14
ATOM     14  C   UNL     1       6.290   4.255  18.955  0.00  0.00    +0.000 C 
BRANCH  14  15
ATOM     15  C   UNL     1       6.564   5.732  19.281  0.00  0.00    +0.000 C 
BRANCH  15  16
ATOM     16  C   UNL     1       7.855   6.242  18.627  0.00  0.00    +0.000 C 
BRANCH  16  18
ATOM     17  C   UNL     1       6.128   7.461  17.258  0.00  0.00    +0.000 C 
ATOM     18  C   UNL     1       7.625   7.335  17.562  0.00  0.00    +0.000 C 
ATOM     19  C   UNL     1       8.164   8.708  17.973  0.00  0.00    +0.000 C 
ENDBRANCH  16  18
ENDBRANCH  15  16
ENDBRANCH  14  15
ENDBRANCH   1  14
BRANCH   6  20
ATOM     20  C   UNL     1       3.308   4.042  19.794  0.00  0.00    +0.000 C 
BRANCH  20  21
ATOM     21  C   UNL     1       2.080   3.268  20.325  0.00  0.00    +0.000 C 
ATOM     22  C   UNL     1       2.287   2.744  21.748  0.00  0.00    +0.000 C 
ATOM     23  C   UNL     1       0.842   4.167  20.284  0.00  0.00    +0.000 C 
ENDBRANCH  20  21
ENDBRANCH   6  20
TORSDOF 7
ENDMDL
MODEL 6
REMARK VINA RESULT:      -6.6      1.391      6.364
REMARK  Name = 
REMARK  11 active torsions:
REMARK  status: ('A' for Active; 'I' for Inactive)
REMARK    1  A    between atoms: C_1  and  C_2
REMARK    2  A    between atoms: C_2  and  C_3
REMARK    3  A    between atoms: C_2  and  C_4
REMARK    4  A    between atoms: C_4  and  C_5
REMARK    5  A    between atoms: C_5  and  C_6
REMARK    6  A    between atoms: C_6  and  N_7
REMARK    7  A    between atoms: N_9  and  C_10
REMARK    8  A    between atoms: C_18  and  C_19
REMARK    9  A    between atoms: C_19  and  C_20
REMARK   10  A    between atoms: C_20  and  C_21
REMARK   11  A    between atoms: C_20  and  C_22
REMARK                            x       y       z     vdW  Elec       q    Type
REMARK                         _______ _______ _______ _____ _____    ______ ____
ROOT
ATOM      1  N   UNL     1       2.661   6.390  19.919  0.00  0.00    +0.000 N 
ATOM      2  C   UNL     1       3.389   6.323  18.743  0.00  0.00    +0.000 C 
ATOM      3  N   UNL     1       4.084   5.184  18.485  0.00  0.00    +0.000 N 
ATOM      4  N   UNL     1       3.323   7.386  17.979  0.00  0.00    +0.000 NA
ATOM      5  C   UNL     1       2.468   8.337  18.726  0.00  0.00    +0.000 C 
ATOM      6  C   UNL     1       1.701   7.486  19.749  0.00  0.00    +0.000 C 
ATOM      7  H   UNL     1       3.787   4.363  18.984  0.00  0.00    +0.000 HD
ENDROOT
BRANCH   3   8
ATOM      8  C   UNL     1       5.008   4.893  17.463  0.00  0.00    +0.000 A 
ATOM      9  C   UNL     1       4.502   4.456  16.225  0.00  0.00    +0.000 A 
ATOM     10  C   UNL     1       5.349   4.079  15.178  0.00  0.00    +0.000 A 
ATOM     11  C   UNL     1       6.730   4.133  15.348  0.00  0.00    +0.000 A 
ATOM     12  C   UNL     1       7.249   4.542  16.571  0.00  0.00    +0.000 A 
ATOM     13  C   UNL     1       6.398   4.899  17.623  0.00  0.00    +0.000 A 
ENDBRANCH   3   8
BRANCH   1  14
ATOM     14  C   UNL     1       2.438   5.350  20.912  0.00  0.00    +0.000 C 
BRANCH  14  15
ATOM     15  C   UNL     1       1.253   4.446  20.531  0.00  0.00    +0.000 C 
BRANCH  15  16
ATOM     16  C   UNL     1       1.651   2.966  20.457  0.00  0.00    +0.000 C 
BRANCH  16  18
ATOM     17  C   UNL     1       1.203   3.469  18.030  0.00  0.00    +0.000 C 
ATOM     18  C   UNL     1       1.627   2.385  19.027  0.00  0.00    +0.000 C 
ATOM     19  C   UNL     1       2.973   1.805  18.584  0.00  0.00    +0.000 C 
ENDBRANCH  16  18
ENDBRANCH  15  16
ENDBRANCH  14  15
ENDBRANCH   1  14
BRANCH   6  20
ATOM     20  C   UNL     1       1.353   8.257  21.024  0.00  0.00    +0.000 C 
BRANCH  20  21
ATOM     21  C   UNL     1      -0.131   8.678  21.130  0.00  0.00    +0.000 C 
ATOM     22  C   UNL     1      -0.525   9.083  22.553  0.00  0.00    +0.000 C 
ATOM     23  C   UNL     1      -0.412   9.837  20.171  0.00  0.00    +0.000 C 
ENDBRANCH  20  21
ENDBRANCH   6  20
TORSDOF 7
ENDMDL
MODEL 7
REMARK VINA RESULT:      -6.5      1.359      6.314
REMARK  Name = 
REMARK  11 active torsions:
REMARK  status: ('A' for Active; 'I' for Inactive)
REMARK    1  A    between atoms: C_1  and  C_2
REMARK    2  A    between atoms: C_2  and  C_3
REMARK    3  A    between atoms: C_2  and  C_4
REMARK    4  A    between atoms: C_4  and  C_5
REMARK    5  A    between atoms: C_5  and  C_6
REMARK    6  A    between atoms: C_6  and  N_7
REMARK    7  A    between atoms: N_9  and  C_10
REMARK    8  A    between atoms: C_18  and  C_19
REMARK    9  A    between atoms: C_19  and  C_20
REMARK   10  A    between atoms: C_20  and  C_21
REMARK   11  A    between atoms: C_20  and  C_22
REMARK                            x       y       z     vdW  Elec       q    Type
REMARK                         _______ _______ _______ _____ _____    ______ ____
ROOT
ATOM      1  N   UNL     1       2.668   6.576  19.774  0.00  0.00    +0.000 N 
ATOM      2  C   UNL     1       3.352   6.480  18.573  0.00  0.00    +0.000 C 
ATOM      3  N   UNL     1       4.051   5.342  18.324  0.00  0.00    +0.000 N 
ATOM      4  N   UNL     1       3.246   7.520  17.782  0.00  0.00    +0.000 NA
ATOM      5  C   UNL     1       2.409   8.484  18.532  0.00  0.00    +0.000 C 
ATOM      6  C   UNL     1       1.690   7.656  19.608  0.00  0.00    +0.000 C 
ATOM      7  H   UNL     1       3.781   4.533  18.857  0.00  0.00    +0.000 HD
ENDROOT
BRANCH   3   8
ATOM      8  C   UNL     1       4.939   5.030  17.277  0.00  0.00    +0.000 A 
ATOM      9  C   UNL     1       6.157   5.733  17.217  0.00  0.00    +0.000 A 
ATOM     10  C   UNL     1       7.066   5.536  16.174  0.00  0.00    +0.000 A 
ATOM     11  C   UNL     1       6.776   4.626  15.161  0.00  0.00    +0.000 A 
ATOM     12  C   UNL     1       5.569   3.938  15.191  0.00  0.00    +0.000 A 
ATOM     13  C   UNL     1       4.652   4.152  16.227  0.00  0.00    +0.000 A 
ENDBRANCH   3   8
BRANCH   1  14
ATOM     14  C   UNL     1       2.493   5.563  20.805  0.00  0.00    +0.000 C 
BRANCH  14  15
ATOM     15  C   UNL     1       1.264   4.681  20.531  0.00  0.00    +0.000 C 
BRANCH  15  16
ATOM     16  C   UNL     1       1.475   3.232  20.989  0.00  0.00    +0.000 C 
BRANCH  16  18
ATOM     17  C   UNL     1       0.919   2.642  18.604  0.00  0.00    +0.000 C 
ATOM     18  C   UNL     1       1.747   2.246  19.831  0.00  0.00    +0.000 C 
ATOM     19  C   UNL     1       3.223   2.171  19.430  0.00  0.00    +0.000 C 
ENDBRANCH  16  18
ENDBRANCH  15  16
ENDBRANCH  14  15
ENDBRANCH   1  14
BRANCH   6  20
ATOM     20  C   UNL     1       1.381   8.461  20.872  0.00  0.00    +0.000 C 
BRANCH  20  21
ATOM     21  C   UNL     1      -0.112   8.822  21.049  0.00  0.00    +0.000 C 
ATOM     22  C   UNL     1      -0.480   9.097  22.509  0.00  0.00    +0.000 C 
ATOM     23  C   UNL     1      -0.456  10.045  20.194  0.00  0.00    +0.000 C 
ENDBRANCH  20  21
ENDBRANCH   6  20
TORSDOF 7
ENDMDL
MODEL 8
REMARK VINA RESULT:      -6.4      2.202      3.861
REMARK  Name = 
REMARK  11 active torsions:
REMARK  status: ('A' for Active; 'I' for Inactive)
REMARK    1  A    between atoms: C_1  and  C_2
REMARK    2  A    between atoms: C_2  and  C_3
REMARK    3  A    between atoms: C_2  and  C_4
REMARK    4  A    between atoms: C_4  and  C_5
REMARK    5  A    between atoms: C_5  and  C_6
REMARK    6  A    between atoms: C_6  and  N_7
REMARK    7  A    between atoms: N_9  and  C_10
REMARK    8  A    between atoms: C_18  and  C_19
REMARK    9  A    between atoms: C_19  and  C_20
REMARK   10  A    between atoms: C_20  and  C_21
REMARK   11  A    between atoms: C_20  and  C_22
REMARK                            x       y       z     vdW  Elec       q    Type
REMARK                         _______ _______ _______ _____ _____    ______ ____
ROOT
ATOM      1  N   UNL     1       2.304   6.741  19.591  0.00  0.00    +0.000 N 
ATOM      2  C   UNL     1       1.762   7.998  19.801  0.00  0.00    +0.000 C 
ATOM      3  N   UNL     1       1.121   8.230  20.977  0.00  0.00    +0.000 N 
ATOM      4  N   UNL     1       1.935   8.855  18.824  0.00  0.00    +0.000 NA
ATOM      5  C   UNL     1       2.661   8.098  17.779  0.00  0.00    +0.000 C 
ATOM      6  C   UNL     1       3.272   6.885  18.497  0.00  0.00    +0.000 C 
ATOM      7  H   UNL     1       1.346   7.605  21.733  0.00  0.00    +0.000 HD
ENDROOT
BRANCH   3   8
ATOM      8  C   UNL     1       0.364   9.340  21.397  0.00  0.00    +0.000 A 
ATOM      9  C   UNL     1      -0.048   9.383  22.742  0.00  0.00    +0.000 A 
ATOM     10  C   UNL     1      -0.860  10.412  23.227  0.00  0.00    +0.000 A 
ATOM     11  C   UNL     1      -1.281  11.427  22.373  0.00  0.00    +0.000 A 
ATOM     12  C   UNL     1      -0.902  11.391  21.036  0.00  0.00    +0.000 A 
ATOM     13  C   UNL     1      -0.105  10.348  20.549  0.00  0.00    +0.000 A 
ENDBRANCH   3   8
BRANCH   1  14
ATOM     14  C   UNL     1       2.383   5.618  20.513  0.00  0.00    +0.000 C 
BRANCH  14  15
ATOM     15  C   UNL     1       1.082   4.797  20.523  0.00  0.00    +0.000 C 
BRANCH  15  16
ATOM     16  C   UNL     1       1.101   3.666  19.487  0.00  0.00    +0.000 C 
BRANCH  16  18
ATOM     17  C   UNL     1       3.106   2.150  19.333  0.00  0.00    +0.000 C 
ATOM     18  C   UNL     1       1.743   2.360  20.001  0.00  0.00    +0.000 C 
ATOM     19  C   UNL     1       1.926   2.330  21.521  0.00  0.00    +0.000 C 
ENDBRANCH  16  18
ENDBRANCH  15  16
ENDBRANCH  14  15
ENDBRANCH   1  14
BRANCH   6  20
ATOM     20  C   UNL     1       3.418   5.664  17.586  0.00  0.00    +0.000 C 
BRANCH  20  21
ATOM     21  C   UNL     1       4.871   5.166  17.416  0.00  0.00    +0.000 C 
ATOM     22  C   UNL     1       5.556   4.886  18.755  0.00  0.00    +0.000 C 
ATOM     23  C   UNL     1       4.890   3.901  16.555  0.00  0.00    +0.000 C 
ENDBRANCH  20  21
ENDBRANCH   6  20
TORSDOF 7
ENDMDL
MODEL 9
REMARK VINA RESULT:      -6.4      1.238      6.683
REMARK  Name = 
REMARK  11 active torsions:
REMARK  status: ('A' for Active; 'I' for Inactive)
REMARK    1  A    between atoms: C_1  and  C_2
REMARK    2  A    between atoms: C_2  and  C_3
REMARK    3  A    between atoms: C_2  and  C_4
REMARK    4  A    between atoms: C_4  and  C_5
REMARK    5  A    between atoms: C_5  and  C_6
REMARK    6  A    between atoms: C_6  and  N_7
REMARK    7  A    between atoms: N_9  and  C_10
REMARK    8  A    between atoms: C_18  and  C_19
REMARK    9  A    between atoms: C_19  and  C_20
REMARK   10  A    between atoms: C_20  and  C_21
REMARK   11  A    between atoms: C_20  and  C_22
REMARK                            x       y       z     vdW  Elec       q    Type
REMARK                         _______ _______ _______ _____ _____    ______ ____
ROOT
ATOM      1  N   UNL     1       4.043   5.056  17.871  0.00  0.00    +0.000 N 
ATOM      2  C   UNL     1       4.686   4.370  16.854  0.00  0.00    +0.000 C 
ATOM      3  N   UNL     1       5.248   5.094  15.851  0.00  0.00    +0.000 N 
ATOM      4  N   UNL     1       4.692   3.064  16.972  0.00  0.00    +0.000 NA
ATOM      5  C   UNL     1       3.928   2.792  18.212  0.00  0.00    +0.000 C 
ATOM      6  C   UNL     1       3.922   4.116  18.991  0.00  0.00    +0.000 C 
ATOM      7  H   UNL     1       5.441   6.059  16.058  0.00  0.00    +0.000 HD
ENDROOT
BRANCH   3   8
ATOM      8  C   UNL     1       5.826   4.673  14.638  0.00  0.00    +0.000 A 
ATOM      9  C   UNL     1       7.077   5.213  14.284  0.00  0.00    +0.000 A 
ATOM     10  C   UNL     1       7.691   4.903  13.067  0.00  0.00    +0.000 A 
ATOM     11  C   UNL     1       7.064   4.042  12.172  0.00  0.00    +0.000 A 
ATOM     12  C   UNL     1       5.819   3.515  12.494  0.00  0.00    +0.000 A 
ATOM     13  C   UNL     1       5.198   3.843  13.704  0.00  0.00    +0.000 A 
ENDBRANCH   3   8
BRANCH   1  14
ATOM     14  C   UNL     1       3.961   6.492  18.091  0.00  0.00    +0.000 C 
BRANCH  14  15
ATOM     15  C   UNL     1       2.516   7.004  17.971  0.00  0.00    +0.000 C 
BRANCH  15  16
ATOM     16  C   UNL     1       2.451   8.530  17.824  0.00  0.00    +0.000 C 
BRANCH  16  18
ATOM     17  C   UNL     1       1.339   8.717  20.076  0.00  0.00    +0.000 C 
ATOM     18  C   UNL     1       1.299   9.184  18.617  0.00  0.00    +0.000 C 
ATOM     19  C   UNL     1       1.332  10.715  18.586  0.00  0.00    +0.000 C 
ENDBRANCH  16  18
ENDBRANCH  15  16
ENDBRANCH  14  15
ENDBRANCH   1  14
BRANCH   6  20
ATOM     20  C   UNL     1       2.675   4.289  19.861  0.00  0.00    +0.000 C 
BRANCH  20  21
ATOM     21  C   UNL     1       1.904   2.978  20.139  0.00  0.00    +0.000 C 
ATOM     22  C   UNL     1       1.608   2.776  21.627  0.00  0.00    +0.000 C 
ATOM     23  C   UNL     1       0.594   2.968  19.349  0.00  0.00    +0.000 C 
ENDBRANCH  20  21
ENDBRANCH   6  20
TORSDOF 7
ENDMDL
