MODEL 1
REMARK VINA RESULT:      -7.6      0.000      0.000
REMARK  Name = 
REMARK  4 active torsions:
REMARK  status: ('A' for Active; 'I' for Inactive)
REMARK    1  A    between atoms: N_1  and  C_2
REMARK    2  A    between atoms: C_2  and  N_4
REMARK    3  A    between atoms: C_6  and  C_7
REMARK    4  A    between atoms: C_15  and  C_16
REMARK                            x       y       z     vdW  Elec       q    Type
REMARK                         _______ _______ _______ _____ _____    ______ ____
ROOT
ATOM      1  N   UNL     1       3.833   4.429  18.797  0.00  0.00    +0.000 N 
ATOM      2  N   UNL     1       2.741   5.237  19.017  0.00  0.00    +0.000 NA
ATOM      3  C   UNL     1       3.136   6.467  18.902  0.00  0.00    +0.000 C 
ATOM      4  C   UNL     1       4.587   6.650  18.552  0.00  0.00    +0.000 C 
ATOM      5  C   UNL     1       5.035   5.195  18.436  0.00  0.00    +0.000 C 
ENDROOT
BRANCH   3   6
ATOM      6  C   UNL     1       2.237   7.624  19.120  0.00  0.00    +0.000 A 
ATOM      7  C   UNL     1       1.946   8.476  18.046  0.00  0.00    +0.000 A 
ATOM      8  C   UNL     1       1.102   9.575  18.224  0.00  0.00    +0.000 A 
ATOM      9  C   UNL     1       0.543   9.830  19.475  0.00  0.00    +0.000 A 
ATOM     10  C   UNL     1       0.831   8.981  20.542  0.00  0.00    +0.000 A 
ATOM     11 BR   UNL     1       0.081   9.327  22.244  0.00  0.00    +0.000 Br
ATOM     12  C   UNL     1       1.669   7.876  20.374  0.00  0.00    +0.000 A 
ENDBRANCH   3   6
BRANCH   5  13
ATOM     13  C   UNL     1       5.531   4.856  17.035  0.00  0.00    +0.000 A 
ATOM     14  C   UNL     1       4.617   4.836  15.960  0.00  0.00    +0.000 A 
ATOM     15  C   UNL     1       5.031   4.526  14.663  0.00  0.00    +0.000 A 
ATOM     16  C   UNL     1       6.362   4.222  14.412  0.00  0.00    +0.000 A 
ATOM     17  C   UNL     1       7.284   4.231  15.456  0.00  0.00    +0.000 A 
ATOM     18  C   UNL     1       6.876   4.546  16.758  0.00  0.00    +0.000 A 
ATOM     19 CL   UNL     1       8.090   4.535  17.988  0.00  0.00    +0.000 Cl
ENDBRANCH   5  13
BRANCH   1  20
ATOM     20  C   UNL     1       3.742   3.060  18.948  0.00  0.00    +0.000 C 
ATOM     21  S   UNL     1       2.505   2.082  18.395  0.00  0.00    +0.000 S 
BRANCH  20  22
ATOM     22  N   UNL     1       4.785   2.460  19.594  0.00  0.00    +0.000 N 
ATOM     23  H   UNL     1       4.608   2.231  20.566  0.00  0.00    +0.000 HD
ATOM     24  H   UNL     1       5.719   2.804  19.414  0.00  0.00    +0.000 HD
ENDBRANCH  20  22
ENDBRANCH   1  20
TORSDOF 4
ENDMDL
MODEL 2
REMARK VINA RESULT:      -7.4      4.238      7.185
REMARK  Name = 
REMARK  4 active torsions:
REMARK  status: ('A' for Active; 'I' for Inactive)
REMARK    1  A    between atoms: N_1  and  C_2
REMARK    2  A    between atoms: C_2  and  N_4
REMARK    3  A    between atoms: C_6  and  C_7
REMARK    4  A    between atoms: C_15  and  C_16
REMARK                            x       y       z     vdW  Elec       q    Type
REMARK                         _______ _______ _______ _____ _____    ______ ____
ROOT
ATOM      1  N   UNL     1       6.992   5.573  17.607  0.00  0.00    +0.000 N 
ATOM      2  N   UNL     1       7.377   5.660  16.289  0.00  0.00    +0.000 NA
ATOM      3  C   UNL     1       6.660   4.815  15.616  0.00  0.00    +0.000 C 
ATOM      4  C   UNL     1       5.646   4.044  16.416  0.00  0.00    +0.000 C 
ATOM      5  C   UNL     1       5.873   4.639  17.804  0.00  0.00    +0.000 C 
ENDROOT
BRANCH   3   6
ATOM      6  C   UNL     1       6.831   4.596  14.160  0.00  0.00    +0.000 A 
ATOM      7  C   UNL     1       7.647   5.470  13.429  0.00  0.00    +0.000 A 
ATOM      8  C   UNL     1       7.825   5.287  12.055  0.00  0.00    +0.000 A 
ATOM      9  C   UNL     1       7.190   4.231  11.404  0.00  0.00    +0.000 A 
ATOM     10  C   UNL     1       6.381   3.362  12.133  0.00  0.00    +0.000 A 
ATOM     11 BR   UNL     1       5.511   1.931  11.252  0.00  0.00    +0.000 Br
ATOM     12  C   UNL     1       6.200   3.531  13.508  0.00  0.00    +0.000 A 
ENDBRANCH   3   6
BRANCH   5  13
ATOM     13  C   UNL     1       4.630   5.340  18.339  0.00  0.00    +0.000 A 
ATOM     14  C   UNL     1       4.243   6.582  17.793  0.00  0.00    +0.000 A 
ATOM     15  C   UNL     1       3.113   7.257  18.259  0.00  0.00    +0.000 A 
ATOM     16  C   UNL     1       2.349   6.713  19.282  0.00  0.00    +0.000 A 
ATOM     17  C   UNL     1       2.712   5.490  19.842  0.00  0.00    +0.000 A 
ATOM     18  C   UNL     1       3.840   4.805  19.375  0.00  0.00    +0.000 A 
ATOM     19 CL   UNL     1       4.210   3.293  20.126  0.00  0.00    +0.000 Cl
ENDBRANCH   5  13
BRANCH   1  20
ATOM     20  C   UNL     1       7.650   6.288  18.586  0.00  0.00    +0.000 C 
ATOM     21  S   UNL     1       8.161   7.876  18.478  0.00  0.00    +0.000 S 
BRANCH  20  22
ATOM     22  N   UNL     1       7.876   5.629  19.760  0.00  0.00    +0.000 N 
ATOM     23  H   UNL     1       7.453   6.056  20.576  0.00  0.00    +0.000 HD
ATOM     24  H   UNL     1       8.800   5.251  19.924  0.00  0.00    +0.000 HD
ENDBRANCH  20  22
ENDBRANCH   1  20
TORSDOF 4
ENDMDL
MODEL 3
REMARK VINA RESULT:      -6.9      4.017      7.143
REMARK  Name = 
REMARK  4 active torsions:
REMARK  status: ('A' for Active; 'I' for Inactive)
REMARK    1  A    between atoms: N_1  and  C_2
REMARK    2  A    between atoms: C_2  and  N_4
REMARK    3  A    between atoms: C_6  and  C_7
REMARK    4  A    between atoms: C_15  and  C_16
REMARK                            x       y       z     vdW  Elec       q    Type
REMARK                         _______ _______ _______ _____ _____    ______ ____
ROOT
ATOM      1  N   UNL     1       6.543   5.609  17.066  0.00  0.00    +0.000 N 
ATOM      2  N   UNL     1       6.834   5.439  15.732  0.00  0.00    +0.000 NA
ATOM      3  C   UNL     1       5.966   4.607  15.246  0.00  0.00    +0.000 C 
ATOM      4  C   UNL     1       4.929   4.114  16.217  0.00  0.00    +0.000 C 
ATOM      5  C   UNL     1       5.335   4.878  17.475  0.00  0.00    +0.000 C 
ENDROOT
BRANCH   3   6
ATOM      6  C   UNL     1       5.995   4.145  13.838  0.00  0.00    +0.000 A 
ATOM      7  C   UNL     1       7.231   4.005  13.191  0.00  0.00    +0.000 A 
ATOM      8  C   UNL     1       7.287   3.572  11.864  0.00  0.00    +0.000 A 
ATOM      9  C   UNL     1       6.112   3.276  11.176  0.00  0.00    +0.000 A 
ATOM     10  C   UNL     1       4.884   3.414  11.822  0.00  0.00    +0.000 A 
ATOM     11 BR   UNL     1       3.286   3.021  10.889  0.00  0.00    +0.000 Br
ATOM     12  C   UNL     1       4.816   3.840  13.150  0.00  0.00    +0.000 A 
ENDBRANCH   3   6
BRANCH   5  13
ATOM     13  C   UNL     1       4.234   5.817  17.958  0.00  0.00    +0.000 A 
ATOM     14  C   UNL     1       4.038   7.051  17.305  0.00  0.00    +0.000 A 
ATOM     15  C   UNL     1       3.044   7.940  17.719  0.00  0.00    +0.000 A 
ATOM     16  C   UNL     1       2.230   7.619  18.797  0.00  0.00    +0.000 A 
ATOM     17  C   UNL     1       2.405   6.408  19.462  0.00  0.00    +0.000 A 
ATOM     18  C   UNL     1       3.397   5.511  19.047  0.00  0.00    +0.000 A 
ATOM     19 CL   UNL     1       3.538   4.031  19.929  0.00  0.00    +0.000 Cl
ENDBRANCH   5  13
BRANCH   1  20
ATOM     20  C   UNL     1       7.360   6.370  17.877  0.00  0.00    +0.000 C 
ATOM     21  S   UNL     1       7.936   5.941  19.386  0.00  0.00    +0.000 S 
BRANCH  20  22
ATOM     22  N   UNL     1       7.746   7.579  17.372  0.00  0.00    +0.000 N 
ATOM     23  H   UNL     1       8.547   7.996  17.834  0.00  0.00    +0.000 HD
ATOM     24  H   UNL     1       7.025   8.241  17.116  0.00  0.00    +0.000 HD
ENDBRANCH  20  22
ENDBRANCH   1  20
TORSDOF 4
ENDMDL
MODEL 4
REMARK VINA RESULT:      -6.9      1.160      1.568
REMARK  Name = 
REMARK  4 active torsions:
REMARK  status: ('A' for Active; 'I' for Inactive)
REMARK    1  A    between atoms: N_1  and  C_2
REMARK    2  A    between atoms: C_2  and  N_4
REMARK    3  A    between atoms: C_6  and  C_7
REMARK    4  A    between atoms: C_15  and  C_16
REMARK                            x       y       z     vdW  Elec       q    Type
REMARK                         _______ _______ _______ _____ _____    ______ ____
ROOT
ATOM      1  N   UNL     1       3.762   4.016  19.177  0.00  0.00    +0.000 N 
ATOM      2  N   UNL     1       2.667   4.800  19.462  0.00  0.00    +0.000 NA
ATOM      3  C   UNL     1       3.073   6.030  19.524  0.00  0.00    +0.000 C 
ATOM      4  C   UNL     1       4.537   6.242  19.252  0.00  0.00    +0.000 C 
ATOM      5  C   UNL     1       4.981   4.810  18.963  0.00  0.00    +0.000 C 
ENDROOT
BRANCH   3   6
ATOM      6  C   UNL     1       2.173   7.158  19.860  0.00  0.00    +0.000 A 
ATOM      7  C   UNL     1       1.405   7.093  21.031  0.00  0.00    +0.000 A 
ATOM      8  C   UNL     1       0.548   8.142  21.372  0.00  0.00    +0.000 A 
ATOM      9  C   UNL     1       0.452   9.262  20.547  0.00  0.00    +0.000 A 
ATOM     10  C   UNL     1       1.218   9.326  19.385  0.00  0.00    +0.000 A 
ATOM     11 BR   UNL     1       1.087  10.840  18.258  0.00  0.00    +0.000 Br
ATOM     12  C   UNL     1       2.083   8.285  19.037  0.00  0.00    +0.000 A 
ENDBRANCH   3   6
BRANCH   5  13
ATOM     13  C   UNL     1       5.525   4.652  17.548  0.00  0.00    +0.000 A 
ATOM     14  C   UNL     1       4.634   4.398  16.484  0.00  0.00    +0.000 A 
ATOM     15  C   UNL     1       5.093   4.243  15.175  0.00  0.00    +0.000 A 
ATOM     16  C   UNL     1       6.452   4.331  14.900  0.00  0.00    +0.000 A 
ATOM     17  C   UNL     1       7.353   4.577  15.932  0.00  0.00    +0.000 A 
ATOM     18  C   UNL     1       6.897   4.739  17.246  0.00  0.00    +0.000 A 
ATOM     19 CL   UNL     1       8.088   5.045  18.460  0.00  0.00    +0.000 Cl
ENDBRANCH   5  13
BRANCH   1  20
ATOM     20  C   UNL     1       3.658   2.641  19.145  0.00  0.00    +0.000 C 
ATOM     21  S   UNL     1       2.406   1.757  18.479  0.00  0.00    +0.000 S 
BRANCH  20  22
ATOM     22  N   UNL     1       4.700   1.949  19.692  0.00  0.00    +0.000 N 
ATOM     23  H   UNL     1       4.990   2.272  20.608  0.00  0.00    +0.000 HD
ATOM     24  H   UNL     1       5.466   1.683  19.087  0.00  0.00    +0.000 HD
ENDBRANCH  20  22
ENDBRANCH   1  20
TORSDOF 4
ENDMDL
MODEL 5
REMARK VINA RESULT:      -6.8      4.927      8.157
REMARK  Name = 
REMARK  4 active torsions:
REMARK  status: ('A' for Active; 'I' for Inactive)
REMARK    1  A    between atoms: N_1  and  C_2
REMARK    2  A    between atoms: C_2  and  N_4
REMARK    3  A    between atoms: C_6  and  C_7
REMARK    4  A    between atoms: C_15  and  C_16
REMARK                            x       y       z     vdW  Elec       q    Type
REMARK                         _______ _______ _______ _____ _____    ______ ____
ROOT
ATOM      1  N   UNL     1       1.698  10.750  18.642  0.00  0.00    +0.000 N 
ATOM      2  N   UNL     1       2.485   9.780  18.064  0.00  0.00    +0.000 NA
ATOM      3  C   UNL     1       2.035   8.628  18.456  0.00  0.00    +0.000 C 
ATOM      4  C   UNL     1       0.831   8.676  19.356  0.00  0.00    +0.000 C 
ATOM      5  C   UNL     1       0.591  10.183  19.425  0.00  0.00    +0.000 C 
ENDROOT
BRANCH   3   6
ATOM      6  C   UNL     1       2.667   7.344  18.070  0.00  0.00    +0.000 A 
ATOM      7  C   UNL     1       3.920   7.361  17.443  0.00  0.00    +0.000 A 
ATOM      8  C   UNL     1       4.538   6.165  17.068  0.00  0.00    +0.000 A 
ATOM      9  C   UNL     1       3.909   4.947  17.318  0.00  0.00    +0.000 A 
ATOM     10  C   UNL     1       2.664   4.932  17.944  0.00  0.00    +0.000 A 
ATOM     11 BR   UNL     1       1.803   3.280  18.277  0.00  0.00    +0.000 Br
ATOM     12  C   UNL     1       2.039   6.121  18.328  0.00  0.00    +0.000 A 
ENDBRANCH   3   6
BRANCH   5  13
ATOM     13  C   UNL     1      -0.769  10.574  18.860  0.00  0.00    +0.000 A 
ATOM     14  C   UNL     1      -1.179  10.057  17.614  0.00  0.00    +0.000 A 
ATOM     15  C   UNL     1      -2.416  10.395  17.061  0.00  0.00    +0.000 A 
ATOM     16  C   UNL     1      -3.266  11.261  17.735  0.00  0.00    +0.000 A 
ATOM     17  C   UNL     1      -2.884  11.789  18.966  0.00  0.00    +0.000 A 
ATOM     18  C   UNL     1      -1.647  11.450  19.528  0.00  0.00    +0.000 A 
ATOM     19 CL   UNL     1      -1.260  12.150  21.060  0.00  0.00    +0.000 Cl
ENDBRANCH   5  13
BRANCH   1  20
ATOM     20  C   UNL     1       1.997  12.088  18.485  0.00  0.00    +0.000 C 
ATOM     21  S   UNL     1       1.825  13.283  19.641  0.00  0.00    +0.000 S 
BRANCH  20  22
ATOM     22  N   UNL     1       2.504  12.450  17.271  0.00  0.00    +0.000 N 
ATOM     23  H   UNL     1       3.474  12.747  17.286  0.00  0.00    +0.000 HD
ATOM     24  H   UNL     1       1.917  12.991  16.650  0.00  0.00    +0.000 HD
ENDBRANCH  20  22
ENDBRANCH   1  20
TORSDOF 4
ENDMDL
MODEL 6
REMARK VINA RESULT:      -6.7      5.352      8.548
REMARK  Name = 
REMARK  4 active torsions:
REMARK  status: ('A' for Active; 'I' for Inactive)
REMARK    1  A    between atoms: N_1  and  C_2
REMARK    2  A    between atoms: C_2  and  N_4
REMARK    3  A    between atoms: C_6  and  C_7
REMARK    4  A    between atoms: C_15  and  C_16
REMARK                            x       y       z     vdW  Elec       q    Type
REMARK                         _______ _______ _______ _____ _____    ______ ____
ROOT
ATOM      1  N   UNL     1       1.056  11.213  18.688  0.00  0.00    +0.000 N 
ATOM      2  N   UNL     1       1.994  10.259  18.367  0.00  0.00    +0.000 NA
ATOM      3  C   UNL     1       1.594   9.133  18.871  0.00  0.00    +0.000 C 
ATOM      4  C   UNL     1       0.278   9.181  19.598  0.00  0.00    +0.000 C 
ATOM      5  C   UNL     1      -0.097  10.648  19.406  0.00  0.00    +0.000 C 
ENDROOT
BRANCH   3   6
ATOM      6  C   UNL     1       2.380   7.881  18.768  0.00  0.00    +0.000 A 
ATOM      7  C   UNL     1       2.242   6.904  19.763  0.00  0.00    +0.000 A 
ATOM      8  C   UNL     1       2.972   5.715  19.691  0.00  0.00    +0.000 A 
ATOM      9  C   UNL     1       3.842   5.494  18.625  0.00  0.00    +0.000 A 
ATOM     10  C   UNL     1       3.976   6.465  17.635  0.00  0.00    +0.000 A 
ATOM     11 BR   UNL     1       5.162   6.173  16.190  0.00  0.00    +0.000 Br
ATOM     12  C   UNL     1       3.248   7.655  17.693  0.00  0.00    +0.000 A 
ENDBRANCH   3   6
BRANCH   5  13
ATOM     13  C   UNL     1      -1.395  10.812  18.623  0.00  0.00    +0.000 A 
ATOM     14  C   UNL     1      -1.538  10.174  17.373  0.00  0.00    +0.000 A 
ATOM     15  C   UNL     1      -2.710  10.303  16.625  0.00  0.00    +0.000 A 
ATOM     16  C   UNL     1      -3.759  11.077  17.103  0.00  0.00    +0.000 A 
ATOM     17  C   UNL     1      -3.641  11.721  18.332  0.00  0.00    +0.000 A 
ATOM     18  C   UNL     1      -2.471  11.590  19.090  0.00  0.00    +0.000 A 
ATOM     19 CL   UNL     1      -2.417  12.422  20.603  0.00  0.00    +0.000 Cl
ENDBRANCH   5  13
BRANCH   1  20
ATOM     20  C   UNL     1       1.257  12.540  18.367  0.00  0.00    +0.000 C 
ATOM     21  S   UNL     1       0.508  13.855  19.074  0.00  0.00    +0.000 S 
BRANCH  20  22
ATOM     22  N   UNL     1       2.181  12.786  17.392  0.00  0.00    +0.000 N 
ATOM     23  H   UNL     1       1.810  13.222  16.555  0.00  0.00    +0.000 HD
ATOM     24  H   UNL     1       2.884  12.081  17.212  0.00  0.00    +0.000 HD
ENDBRANCH  20  22
ENDBRANCH   1  20
TORSDOF 4
ENDMDL
MODEL 7
REMARK VINA RESULT:      -6.6      4.098      7.084
REMARK  Name = 
REMARK  4 active torsions:
REMARK  status: ('A' for Active; 'I' for Inactive)
REMARK    1  A    between atoms: N_1  and  C_2
REMARK    2  A    between atoms: C_2  and  N_4
REMARK    3  A    between atoms: C_6  and  C_7
REMARK    4  A    between atoms: C_15  and  C_16
REMARK                            x       y       z     vdW  Elec       q    Type
REMARK                         _______ _______ _______ _____ _____    ______ ____
ROOT
ATOM      1  N   UNL     1       6.891   5.541  17.550  0.00  0.00    +0.000 N 
ATOM      2  N   UNL     1       7.177   5.603  16.205  0.00  0.00    +0.000 NA
ATOM      3  C   UNL     1       6.422   4.736  15.605  0.00  0.00    +0.000 C 
ATOM      4  C   UNL     1       5.480   3.972  16.495  0.00  0.00    +0.000 C 
ATOM      5  C   UNL     1       5.802   4.600  17.849  0.00  0.00    +0.000 C 
ENDROOT
BRANCH   3   6
ATOM      6  C   UNL     1       6.487   4.487  14.145  0.00  0.00    +0.000 A 
ATOM      7  C   UNL     1       7.635   4.869  13.438  0.00  0.00    +0.000 A 
ATOM      8  C   UNL     1       7.722   4.646  12.061  0.00  0.00    +0.000 A 
ATOM      9  C   UNL     1       6.665   4.040  11.384  0.00  0.00    +0.000 A 
ATOM     10  C   UNL     1       5.526   3.658  12.090  0.00  0.00    +0.000 A 
ATOM     11 BR   UNL     1       4.086   2.843  11.173  0.00  0.00    +0.000 Br
ATOM     12  C   UNL     1       5.429   3.871  13.467  0.00  0.00    +0.000 A 
ENDBRANCH   3   6
BRANCH   5  13
ATOM     13  C   UNL     1       4.593   5.299  18.460  0.00  0.00    +0.000 A 
ATOM     14  C   UNL     1       4.034   4.802  19.656  0.00  0.00    +0.000 A 
ATOM     15  C   UNL     1       2.924   5.412  20.245  0.00  0.00    +0.000 A 
ATOM     16  C   UNL     1       2.344   6.525  19.650  0.00  0.00    +0.000 A 
ATOM     17  C   UNL     1       2.874   7.032  18.466  0.00  0.00    +0.000 A 
ATOM     18  C   UNL     1       3.990   6.429  17.874  0.00  0.00    +0.000 A 
ATOM     19 CL   UNL     1       4.581   7.130  16.410  0.00  0.00    +0.000 Cl
ENDBRANCH   5  13
BRANCH   1  20
ATOM     20  C   UNL     1       7.611   6.286  18.461  0.00  0.00    +0.000 C 
ATOM     21  S   UNL     1       8.093   7.876  18.281  0.00  0.00    +0.000 S 
BRANCH  20  22
ATOM     22  N   UNL     1       7.931   5.655  19.629  0.00  0.00    +0.000 N 
ATOM     23  H   UNL     1       7.360   4.846  19.846  0.00  0.00    +0.000 HD
ATOM     24  H   UNL     1       8.161   6.226  20.432  0.00  0.00    +0.000 HD
ENDBRANCH  20  22
ENDBRANCH   1  20
TORSDOF 4
ENDMDL
MODEL 8
REMARK VINA RESULT:      -6.6      5.048      8.270
REMARK  Name = 
REMARK  4 active torsions:
REMARK  status: ('A' for Active; 'I' for Inactive)
REMARK    1  A    between atoms: N_1  and  C_2
REMARK    2  A    between atoms: C_2  and  N_4
REMARK    3  A    between atoms: C_6  and  C_7
REMARK    4  A    between atoms: C_15  and  C_16
REMARK                            x       y       z     vdW  Elec       q    Type
REMARK                         _______ _______ _______ _____ _____    ______ ____
ROOT
ATOM      1  N   UNL     1       1.732  10.756  18.668  0.00  0.00    +0.000 N 
ATOM      2  N   UNL     1       2.501   9.775  18.086  0.00  0.00    +0.000 NA
ATOM      3  C   UNL     1       2.039   8.630  18.484  0.00  0.00    +0.000 C 
ATOM      4  C   UNL     1       0.842   8.696  19.393  0.00  0.00    +0.000 C 
ATOM      5  C   UNL     1       0.623  10.205  19.461  0.00  0.00    +0.000 C 
ENDROOT
BRANCH   3   6
ATOM      6  C   UNL     1       2.651   7.337  18.096  0.00  0.00    +0.000 A 
ATOM      7  C   UNL     1       1.930   6.152  18.300  0.00  0.00    +0.000 A 
ATOM      8  C   UNL     1       2.483   4.919  17.945  0.00  0.00    +0.000 A 
ATOM      9  C   UNL     1       3.758   4.863  17.383  0.00  0.00    +0.000 A 
ATOM     10  C   UNL     1       4.472   6.042  17.179  0.00  0.00    +0.000 A 
ATOM     11 BR   UNL     1       6.205   5.968  16.424  0.00  0.00    +0.000 Br
ATOM     12  C   UNL     1       3.927   7.280  17.525  0.00  0.00    +0.000 A 
ENDBRANCH   3   6
BRANCH   5  13
ATOM     13  C   UNL     1      -0.736  10.614  18.905  0.00  0.00    +0.000 A 
ATOM     14  C   UNL     1      -1.159  10.106  17.659  0.00  0.00    +0.000 A 
ATOM     15  C   UNL     1      -2.395  10.460  17.114  0.00  0.00    +0.000 A 
ATOM     16  C   UNL     1      -3.232  11.332  17.796  0.00  0.00    +0.000 A 
ATOM     17  C   UNL     1      -2.837  11.851  19.027  0.00  0.00    +0.000 A 
ATOM     18  C   UNL     1      -1.601  11.496  19.581  0.00  0.00    +0.000 A 
ATOM     19 CL   UNL     1      -1.198  12.186  21.113  0.00  0.00    +0.000 Cl
ENDBRANCH   5  13
BRANCH   1  20
ATOM     20  C   UNL     1       2.047  12.090  18.507  0.00  0.00    +0.000 C 
ATOM     21  S   UNL     1       1.947  13.280  19.676  0.00  0.00    +0.000 S 
BRANCH  20  22
ATOM     22  N   UNL     1       2.506  12.451  17.273  0.00  0.00    +0.000 N 
ATOM     23  H   UNL     1       3.083  11.755  16.813  0.00  0.00    +0.000 HD
ATOM     24  H   UNL     1       2.825  13.403  17.142  0.00  0.00    +0.000 HD
ENDBRANCH  20  22
ENDBRANCH   1  20
TORSDOF 4
ENDMDL
MODEL 9
REMARK VINA RESULT:      -6.6      4.031      6.804
REMARK  Name = 
REMARK  4 active torsions:
REMARK  status: ('A' for Active; 'I' for Inactive)
REMARK    1  A    between atoms: N_1  and  C_2
REMARK    2  A    between atoms: C_2  and  N_4
REMARK    3  A    between atoms: C_6  and  C_7
REMARK    4  A    between atoms: C_15  and  C_16
REMARK                            x       y       z     vdW  Elec       q    Type
REMARK                         _______ _______ _______ _____ _____    ______ ____
ROOT
ATOM      1  N   UNL     1       4.142   5.758  17.717  0.00  0.00    +0.000 N 
ATOM      2  N   UNL     1       4.617   5.908  16.434  0.00  0.00    +0.000 NA
ATOM      3  C   UNL     1       5.243   4.817  16.119  0.00  0.00    +0.000 C 
ATOM      4  C   UNL     1       5.248   3.746  17.176  0.00  0.00    +0.000 C 
ATOM      5  C   UNL     1       4.421   4.423  18.267  0.00  0.00    +0.000 C 
ENDROOT
BRANCH   3   6
ATOM      6  C   UNL     1       5.932   4.632  14.820  0.00  0.00    +0.000 A 
ATOM      7  C   UNL     1       7.075   5.392  14.540  0.00  0.00    +0.000 A 
ATOM      8  C   UNL     1       7.744   5.238  13.322  0.00  0.00    +0.000 A 
ATOM      9  C   UNL     1       7.276   4.324  12.380  0.00  0.00    +0.000 A 
ATOM     10  C   UNL     1       6.141   3.566  12.662  0.00  0.00    +0.000 A 
ATOM     11 BR   UNL     1       5.498   2.329  11.383  0.00  0.00    +0.000 Br
ATOM     12  C   UNL     1       5.468   3.708  13.878  0.00  0.00    +0.000 A 
ENDBRANCH   3   6
BRANCH   5  13
ATOM     13  C   UNL     1       3.143   3.654  18.579  0.00  0.00    +0.000 A 
ATOM     14  C   UNL     1       1.956   3.968  17.886  0.00  0.00    +0.000 A 
ATOM     15  C   UNL     1       0.763   3.289  18.147  0.00  0.00    +0.000 A 
ATOM     16  C   UNL     1       0.729   2.288  19.109  0.00  0.00    +0.000 A 
ATOM     17  C   UNL     1       1.887   1.962  19.810  0.00  0.00    +0.000 A 
ATOM     18  C   UNL     1       3.086   2.635  19.549  0.00  0.00    +0.000 A 
ATOM     19 CL   UNL     1       4.471   2.158  20.466  0.00  0.00    +0.000 Cl
ENDBRANCH   5  13
BRANCH   1  20
ATOM     20  C   UNL     1       3.511   6.800  18.365  0.00  0.00    +0.000 C 
ATOM     21  S   UNL     1       2.848   8.156  17.648  0.00  0.00    +0.000 S 
BRANCH  20  22
ATOM     22  N   UNL     1       3.406   6.685  19.721  0.00  0.00    +0.000 N 
ATOM     23  H   UNL     1       2.757   7.334  20.154  0.00  0.00    +0.000 HD
ATOM     24  H   UNL     1       4.251   6.530  20.254  0.00  0.00    +0.000 HD
ENDBRANCH  20  22
ENDBRANCH   1  20
TORSDOF 4
ENDMDL
