MODEL 1
REMARK VINA RESULT:      -7.3      0.000      0.000
REMARK  Name = 
REMARK  10 active torsions:
REMARK  status: ('A' for Active; 'I' for Inactive)
REMARK    1  A    between atoms: C_1  and  C_2
REMARK    2  A    between atoms: C_2  and  C_3
REMARK    3  A    between atoms: C_3  and  C_4
REMARK    4  A    between atoms: C_4  and  C_5
REMARK    5  A    between atoms: C_5  and  C_6
REMARK    6  A    between atoms: C_6  and  C_7
REMARK    7  A    between atoms: C_7  and  C_8
REMARK    8  A    between atoms: C_8  and  C_9
REMARK    9  A    between atoms: C_9  and  C_11
REMARK   10  A    between atoms: C_14  and  C_15
REMARK                            x       y       z     vdW  Elec       q    Type
REMARK                         _______ _______ _______ _____ _____    ______ ____
ROOT
ATOM      1  C   UNL     1       6.093   4.580  17.754  0.00  0.00    +0.000 A 
ATOM      2  N   UNL     1       6.430   5.034  18.949  0.00  0.00    +0.000 NA
ATOM      3  C   UNL     1       5.337   4.739  19.727  0.00  0.00    +0.000 A 
ATOM      4  C   UNL     1       4.376   4.094  18.980  0.00  0.00    +0.000 A 
ATOM      5  O   UNL     1       4.861   3.981  17.703  0.00  0.00    +0.000 OA
ENDROOT
BRANCH   4   6
ATOM      6  C   UNL     1       3.039   3.603  19.247  0.00  0.00    +0.000 A 
ATOM      7  C   UNL     1       2.153   3.250  18.234  0.00  0.00    +0.000 A 
ATOM      8  C   UNL     1       0.857   2.877  18.579  0.00  0.00    +0.000 A 
ATOM      9  C   UNL     1       0.489   2.857  19.919  0.00  0.00    +0.000 A 
ATOM     10  C   UNL     1       1.442   3.193  20.865  0.00  0.00    +0.000 A 
ATOM     11  N   UNL     1       2.706   3.563  20.562  0.00  0.00    +0.000 NA
ENDBRANCH   4   6
BRANCH   1  12
ATOM     12  C   UNL     1       6.885   4.689  16.540  0.00  0.00    +0.000 C 
ATOM     13  O   UNL     1       8.060   4.325  16.456  0.00  0.00    +0.000 OA
BRANCH  12  14
ATOM     14  C   UNL     1       6.175   5.336  15.355  0.00  0.00    +0.000 C 
BRANCH  14  15
ATOM     15  C   UNL     1       6.595   4.711  14.026  0.00  0.00    +0.000 C 
BRANCH  15  16
ATOM     16  C   UNL     1       5.533   3.741  13.505  0.00  0.00    +0.000 C 
BRANCH  16  17
ATOM     17  C   UNL     1       5.977   3.099  12.190  0.00  0.00    +0.000 C 
BRANCH  17  18
ATOM     18  C   UNL     1       4.782   2.699  11.324  0.00  0.00    +0.000 C 
BRANCH  18  19
ATOM     19  C   UNL     1       4.005   3.931  10.857  0.00  0.00    +0.000 C 
BRANCH  19  21
ATOM     20  C   UNL     1       2.379   4.786   9.134  0.00  0.00    +0.000 C 
ATOM     21  C   UNL     1       2.911   3.558   9.858  0.00  0.00    +0.000 C 
ENDBRANCH  19  21
ENDBRANCH  18  19
ENDBRANCH  17  18
ENDBRANCH  16  17
ENDBRANCH  15  16
ENDBRANCH  14  15
ENDBRANCH  12  14
ENDBRANCH   1  12
TORSDOF 9
ENDMDL
MODEL 2
REMARK VINA RESULT:      -7.2      1.116      1.193
REMARK  Name = 
REMARK  10 active torsions:
REMARK  status: ('A' for Active; 'I' for Inactive)
REMARK    1  A    between atoms: C_1  and  C_2
REMARK    2  A    between atoms: C_2  and  C_3
REMARK    3  A    between atoms: C_3  and  C_4
REMARK    4  A    between atoms: C_4  and  C_5
REMARK    5  A    between atoms: C_5  and  C_6
REMARK    6  A    between atoms: C_6  and  C_7
REMARK    7  A    between atoms: C_7  and  C_8
REMARK    8  A    between atoms: C_8  and  C_9
REMARK    9  A    between atoms: C_9  and  C_11
REMARK   10  A    between atoms: C_14  and  C_15
REMARK                            x       y       z     vdW  Elec       q    Type
REMARK                         _______ _______ _______ _____ _____    ______ ____
ROOT
ATOM      1  C   UNL     1       5.742   5.364  17.470  0.00  0.00    +0.000 A 
ATOM      2  N   UNL     1       5.177   6.556  17.380  0.00  0.00    +0.000 NA
ATOM      3  C   UNL     1       3.999   6.409  18.070  0.00  0.00    +0.000 A 
ATOM      4  C   UNL     1       3.895   5.133  18.576  0.00  0.00    +0.000 A 
ATOM      5  O   UNL     1       5.024   4.451  18.198  0.00  0.00    +0.000 OA
ENDROOT
BRANCH   4   6
ATOM      6  C   UNL     1       2.883   4.412  19.322  0.00  0.00    +0.000 A 
ATOM      7  C   UNL     1       1.800   3.790  18.708  0.00  0.00    +0.000 A 
ATOM      8  C   UNL     1       0.826   3.201  19.510  0.00  0.00    +0.000 A 
ATOM      9  C   UNL     1       0.966   3.241  20.892  0.00  0.00    +0.000 A 
ATOM     10  C   UNL     1       2.090   3.854  21.418  0.00  0.00    +0.000 A 
ATOM     11  N   UNL     1       3.050   4.437  20.668  0.00  0.00    +0.000 NA
ENDBRANCH   4   6
BRANCH   1  12
ATOM     12  C   UNL     1       6.998   4.961  16.859  0.00  0.00    +0.000 C 
ATOM     13  O   UNL     1       7.966   4.544  17.498  0.00  0.00    +0.000 OA
BRANCH  12  14
ATOM     14  C   UNL     1       7.067   5.126  15.344  0.00  0.00    +0.000 C 
BRANCH  14  15
ATOM     15  C   UNL     1       5.695   4.980  14.689  0.00  0.00    +0.000 C 
BRANCH  15  16
ATOM     16  C   UNL     1       5.533   3.607  14.031  0.00  0.00    +0.000 C 
BRANCH  16  17
ATOM     17  C   UNL     1       6.399   3.498  12.775  0.00  0.00    +0.000 C 
BRANCH  17  18
ATOM     18  C   UNL     1       5.591   3.009  11.572  0.00  0.00    +0.000 C 
BRANCH  18  19
ATOM     19  C   UNL     1       4.136   3.473  11.663  0.00  0.00    +0.000 C 
BRANCH  19  21
ATOM     20  C   UNL     1       2.838   4.222   9.640  0.00  0.00    +0.000 C 
ATOM     21  C   UNL     1       3.330   3.028  10.444  0.00  0.00    +0.000 C 
ENDBRANCH  19  21
ENDBRANCH  18  19
ENDBRANCH  17  18
ENDBRANCH  16  17
ENDBRANCH  15  16
ENDBRANCH  14  15
ENDBRANCH  12  14
ENDBRANCH   1  12
TORSDOF 9
ENDMDL
MODEL 3
REMARK VINA RESULT:      -7.1      2.169      7.368
REMARK  Name = 
REMARK  10 active torsions:
REMARK  status: ('A' for Active; 'I' for Inactive)
REMARK    1  A    between atoms: C_1  and  C_2
REMARK    2  A    between atoms: C_2  and  C_3
REMARK    3  A    between atoms: C_3  and  C_4
REMARK    4  A    between atoms: C_4  and  C_5
REMARK    5  A    between atoms: C_5  and  C_6
REMARK    6  A    between atoms: C_6  and  C_7
REMARK    7  A    between atoms: C_7  and  C_8
REMARK    8  A    between atoms: C_8  and  C_9
REMARK    9  A    between atoms: C_9  and  C_11
REMARK   10  A    between atoms: C_14  and  C_15
REMARK                            x       y       z     vdW  Elec       q    Type
REMARK                         _______ _______ _______ _____ _____    ______ ____
ROOT
ATOM      1  C   UNL     1       4.969   4.193  17.612  0.00  0.00    +0.000 A 
ATOM      2  N   UNL     1       4.978   5.513  17.696  0.00  0.00    +0.000 NA
ATOM      3  C   UNL     1       5.447   5.911  16.468  0.00  0.00    +0.000 A 
ATOM      4  C   UNL     1       5.689   4.817  15.668  0.00  0.00    +0.000 A 
ATOM      5  O   UNL     1       5.376   3.700  16.399  0.00  0.00    +0.000 OA
ENDROOT
BRANCH   4   6
ATOM      6  C   UNL     1       6.221   4.630  14.333  0.00  0.00    +0.000 A 
ATOM      7  C   UNL     1       5.650   3.756  13.413  0.00  0.00    +0.000 A 
ATOM      8  C   UNL     1       6.282   3.569  12.187  0.00  0.00    +0.000 A 
ATOM      9  C   UNL     1       7.454   4.264  11.913  0.00  0.00    +0.000 A 
ATOM     10  C   UNL     1       7.938   5.136  12.873  0.00  0.00    +0.000 A 
ATOM     11  N   UNL     1       7.350   5.337  14.073  0.00  0.00    +0.000 NA
ENDBRANCH   4   6
BRANCH   1  12
ATOM     12  C   UNL     1       4.603   3.268  18.672  0.00  0.00    +0.000 C 
ATOM     13  O   UNL     1       5.107   3.284  19.797  0.00  0.00    +0.000 OA
BRANCH  12  14
ATOM     14  C   UNL     1       3.560   2.222  18.291  0.00  0.00    +0.000 C 
BRANCH  14  15
ATOM     15  C   UNL     1       2.242   2.859  17.858  0.00  0.00    +0.000 C 
BRANCH  15  16
ATOM     16  C   UNL     1       1.069   2.339  18.692  0.00  0.00    +0.000 C 
BRANCH  16  17
ATOM     17  C   UNL     1       1.226   2.735  20.161  0.00  0.00    +0.000 C 
BRANCH  17  18
ATOM     18  C   UNL     1       0.900   4.211  20.387  0.00  0.00    +0.000 C 
BRANCH  18  19
ATOM     19  C   UNL     1       2.155   4.997  20.774  0.00  0.00    +0.000 C 
BRANCH  19  21
ATOM     20  C   UNL     1       1.825   7.470  20.430  0.00  0.00    +0.000 C 
ATOM     21  C   UNL     1       2.382   6.184  19.838  0.00  0.00    +0.000 C 
ENDBRANCH  19  21
ENDBRANCH  18  19
ENDBRANCH  17  18
ENDBRANCH  16  17
ENDBRANCH  15  16
ENDBRANCH  14  15
ENDBRANCH  12  14
ENDBRANCH   1  12
TORSDOF 9
ENDMDL
MODEL 4
REMARK VINA RESULT:      -7.0      3.489      6.830
REMARK  Name = 
REMARK  10 active torsions:
REMARK  status: ('A' for Active; 'I' for Inactive)
REMARK    1  A    between atoms: C_1  and  C_2
REMARK    2  A    between atoms: C_2  and  C_3
REMARK    3  A    between atoms: C_3  and  C_4
REMARK    4  A    between atoms: C_4  and  C_5
REMARK    5  A    between atoms: C_5  and  C_6
REMARK    6  A    between atoms: C_6  and  C_7
REMARK    7  A    between atoms: C_7  and  C_8
REMARK    8  A    between atoms: C_8  and  C_9
REMARK    9  A    between atoms: C_9  and  C_11
REMARK   10  A    between atoms: C_14  and  C_15
REMARK                            x       y       z     vdW  Elec       q    Type
REMARK                         _______ _______ _______ _____ _____    ______ ____
ROOT
ATOM      1  C   UNL     1       3.857   2.996  17.762  0.00  0.00    +0.000 A 
ATOM      2  N   UNL     1       3.684   3.340  16.497  0.00  0.00    +0.000 NA
ATOM      3  C   UNL     1       4.574   4.370  16.317  0.00  0.00    +0.000 A 
ATOM      4  C   UNL     1       5.276   4.606  17.478  0.00  0.00    +0.000 A 
ATOM      5  O   UNL     1       4.823   3.716  18.417  0.00  0.00    +0.000 OA
ENDROOT
BRANCH   4   6
ATOM      6  C   UNL     1       6.278   5.571  17.883  0.00  0.00    +0.000 A 
ATOM      7  C   UNL     1       6.501   6.758  17.190  0.00  0.00    +0.000 A 
ATOM      8  C   UNL     1       7.547   7.582  17.596  0.00  0.00    +0.000 A 
ATOM      9  C   UNL     1       8.330   7.204  18.680  0.00  0.00    +0.000 A 
ATOM     10  C   UNL     1       8.021   6.022  19.330  0.00  0.00    +0.000 A 
ATOM     11  N   UNL     1       7.015   5.200  18.960  0.00  0.00    +0.000 NA
ENDBRANCH   4   6
BRANCH   1  12
ATOM     12  C   UNL     1       3.114   1.977  18.484  0.00  0.00    +0.000 C 
ATOM     13  O   UNL     1       3.604   0.908  18.856  0.00  0.00    +0.000 OA
BRANCH  12  14
ATOM     14  C   UNL     1       1.641   2.294  18.727  0.00  0.00    +0.000 C 
BRANCH  14  15
ATOM     15  C   UNL     1       1.365   2.648  20.186  0.00  0.00    +0.000 C 
BRANCH  15  16
ATOM     16  C   UNL     1       1.021   4.130  20.346  0.00  0.00    +0.000 C 
BRANCH  16  17
ATOM     17  C   UNL     1       2.280   4.959  20.607  0.00  0.00    +0.000 C 
BRANCH  17  18
ATOM     18  C   UNL     1       2.171   6.359  20.003  0.00  0.00    +0.000 C 
BRANCH  18  19
ATOM     19  C   UNL     1       2.310   6.312  18.480  0.00  0.00    +0.000 C 
BRANCH  19  21
ATOM     20  C   UNL     1       1.963   8.722  17.837  0.00  0.00    +0.000 C 
ATOM     21  C   UNL     1       2.965   7.582  17.939  0.00  0.00    +0.000 C 
ENDBRANCH  19  21
ENDBRANCH  18  19
ENDBRANCH  17  18
ENDBRANCH  16  17
ENDBRANCH  15  16
ENDBRANCH  14  15
ENDBRANCH  12  14
ENDBRANCH   1  12
TORSDOF 9
ENDMDL
MODEL 5
REMARK VINA RESULT:      -7.0      1.824      1.947
REMARK  Name = 
REMARK  10 active torsions:
REMARK  status: ('A' for Active; 'I' for Inactive)
REMARK    1  A    between atoms: C_1  and  C_2
REMARK    2  A    between atoms: C_2  and  C_3
REMARK    3  A    between atoms: C_3  and  C_4
REMARK    4  A    between atoms: C_4  and  C_5
REMARK    5  A    between atoms: C_5  and  C_6
REMARK    6  A    between atoms: C_6  and  C_7
REMARK    7  A    between atoms: C_7  and  C_8
REMARK    8  A    between atoms: C_8  and  C_9
REMARK    9  A    between atoms: C_9  and  C_11
REMARK   10  A    between atoms: C_14  and  C_15
REMARK                            x       y       z     vdW  Elec       q    Type
REMARK                         _______ _______ _______ _____ _____    ______ ____
ROOT
ATOM      1  C   UNL     1       4.423   6.659  17.481  0.00  0.00    +0.000 A 
ATOM      2  N   UNL     1       3.450   7.553  17.526  0.00  0.00    +0.000 NA
ATOM      3  C   UNL     1       2.487   6.944  18.294  0.00  0.00    +0.000 A 
ATOM      4  C   UNL     1       2.918   5.704  18.709  0.00  0.00    +0.000 A 
ATOM      5  O   UNL     1       4.174   5.514  18.193  0.00  0.00    +0.000 OA
ENDROOT
BRANCH   4   6
ATOM      6  C   UNL     1       2.327   4.625  19.476  0.00  0.00    +0.000 A 
ATOM      7  C   UNL     1       1.293   3.835  18.984  0.00  0.00    +0.000 A 
ATOM      8  C   UNL     1       0.723   2.882  19.825  0.00  0.00    +0.000 A 
ATOM      9  C   UNL     1       1.206   2.741  21.120  0.00  0.00    +0.000 A 
ATOM     10  C   UNL     1       2.257   3.549  21.518  0.00  0.00    +0.000 A 
ATOM     11  N   UNL     1       2.829   4.483  20.728  0.00  0.00    +0.000 NA
ENDBRANCH   4   6
BRANCH   1  12
ATOM     12  C   UNL     1       5.670   6.784  16.744  0.00  0.00    +0.000 C 
ATOM     13  O   UNL     1       6.699   7.271  17.219  0.00  0.00    +0.000 OA
BRANCH  12  14
ATOM     14  C   UNL     1       5.621   6.304  15.297  0.00  0.00    +0.000 C 
BRANCH  14  15
ATOM     15  C   UNL     1       6.123   4.870  15.153  0.00  0.00    +0.000 C 
BRANCH  15  16
ATOM     16  C   UNL     1       5.299   4.090  14.126  0.00  0.00    +0.000 C 
BRANCH  16  17
ATOM     17  C   UNL     1       6.173   3.637  12.955  0.00  0.00    +0.000 C 
BRANCH  17  18
ATOM     18  C   UNL     1       5.351   2.926  11.878  0.00  0.00    +0.000 C 
BRANCH  18  19
ATOM     19  C   UNL     1       4.204   3.813  11.388  0.00  0.00    +0.000 C 
BRANCH  19  21
ATOM     20  C   UNL     1       2.655   4.225   9.447  0.00  0.00    +0.000 C 
ATOM     21  C   UNL     1       3.491   3.193  10.188  0.00  0.00    +0.000 C 
ENDBRANCH  19  21
ENDBRANCH  18  19
ENDBRANCH  17  18
ENDBRANCH  16  17
ENDBRANCH  15  16
ENDBRANCH  14  15
ENDBRANCH  12  14
ENDBRANCH   1  12
TORSDOF 9
ENDMDL
MODEL 6
REMARK VINA RESULT:      -6.9      1.905      2.309
REMARK  Name = 
REMARK  10 active torsions:
REMARK  status: ('A' for Active; 'I' for Inactive)
REMARK    1  A    between atoms: C_1  and  C_2
REMARK    2  A    between atoms: C_2  and  C_3
REMARK    3  A    between atoms: C_3  and  C_4
REMARK    4  A    between atoms: C_4  and  C_5
REMARK    5  A    between atoms: C_5  and  C_6
REMARK    6  A    between atoms: C_6  and  C_7
REMARK    7  A    between atoms: C_7  and  C_8
REMARK    8  A    between atoms: C_8  and  C_9
REMARK    9  A    between atoms: C_9  and  C_11
REMARK   10  A    between atoms: C_14  and  C_15
REMARK                            x       y       z     vdW  Elec       q    Type
REMARK                         _______ _______ _______ _____ _____    ______ ____
ROOT
ATOM      1  C   UNL     1       5.771   5.252  17.676  0.00  0.00    +0.000 A 
ATOM      2  N   UNL     1       5.081   6.362  17.477  0.00  0.00    +0.000 NA
ATOM      3  C   UNL     1       3.912   6.144  18.166  0.00  0.00    +0.000 A 
ATOM      4  C   UNL     1       3.940   4.912  18.780  0.00  0.00    +0.000 A 
ATOM      5  O   UNL     1       5.143   4.331  18.473  0.00  0.00    +0.000 OA
ENDROOT
BRANCH   4   6
ATOM      6  C   UNL     1       2.998   4.150  19.575  0.00  0.00    +0.000 A 
ATOM      7  C   UNL     1       1.628   4.388  19.548  0.00  0.00    +0.000 A 
ATOM      8  C   UNL     1       0.808   3.671  20.414  0.00  0.00    +0.000 A 
ATOM      9  C   UNL     1       1.375   2.734  21.270  0.00  0.00    +0.000 A 
ATOM     10  C   UNL     1       2.745   2.539  21.211  0.00  0.00    +0.000 A 
ATOM     11  N   UNL     1       3.567   3.221  20.384  0.00  0.00    +0.000 NA
ENDBRANCH   4   6
BRANCH   1  12
ATOM     12  C   UNL     1       7.075   4.940  17.114  0.00  0.00    +0.000 C 
ATOM     13  O   UNL     1       7.971   4.371  17.741  0.00  0.00    +0.000 OA
BRANCH  12  14
ATOM     14  C   UNL     1       7.294   5.407  15.678  0.00  0.00    +0.000 C 
BRANCH  14  15
ATOM     15  C   UNL     1       7.026   4.293  14.668  0.00  0.00    +0.000 C 
BRANCH  15  16
ATOM     16  C   UNL     1       5.595   4.357  14.131  0.00  0.00    +0.000 C 
BRANCH  16  17
ATOM     17  C   UNL     1       5.444   3.502  12.872  0.00  0.00    +0.000 C 
BRANCH  17  18
ATOM     18  C   UNL     1       6.696   3.562  11.995  0.00  0.00    +0.000 C 
BRANCH  18  19
ATOM     19  C   UNL     1       7.122   2.160  11.553  0.00  0.00    +0.000 C 
BRANCH  19  21
ATOM     20  C   UNL     1       6.222  -0.179  11.309  0.00  0.00    +0.000 C 
ATOM     21  C   UNL     1       5.917   1.305  11.167  0.00  0.00    +0.000 C 
ENDBRANCH  19  21
ENDBRANCH  18  19
ENDBRANCH  17  18
ENDBRANCH  16  17
ENDBRANCH  15  16
ENDBRANCH  14  15
ENDBRANCH  12  14
ENDBRANCH   1  12
TORSDOF 9
ENDMDL
MODEL 7
REMARK VINA RESULT:      -6.8      4.383      7.136
REMARK  Name = 
REMARK  10 active torsions:
REMARK  status: ('A' for Active; 'I' for Inactive)
REMARK    1  A    between atoms: C_1  and  C_2
REMARK    2  A    between atoms: C_2  and  C_3
REMARK    3  A    between atoms: C_3  and  C_4
REMARK    4  A    between atoms: C_4  and  C_5
REMARK    5  A    between atoms: C_5  and  C_6
REMARK    6  A    between atoms: C_6  and  C_7
REMARK    7  A    between atoms: C_7  and  C_8
REMARK    8  A    between atoms: C_8  and  C_9
REMARK    9  A    between atoms: C_9  and  C_11
REMARK   10  A    between atoms: C_14  and  C_15
REMARK                            x       y       z     vdW  Elec       q    Type
REMARK                         _______ _______ _______ _____ _____    ______ ____
ROOT
ATOM      1  C   UNL     1       5.622   5.049  16.935  0.00  0.00    +0.000 A 
ATOM      2  N   UNL     1       5.431   3.961  16.208  0.00  0.00    +0.000 NA
ATOM      3  C   UNL     1       4.398   3.321  16.848  0.00  0.00    +0.000 A 
ATOM      4  C   UNL     1       3.979   4.053  17.935  0.00  0.00    +0.000 A 
ATOM      5  O   UNL     1       4.762   5.178  17.995  0.00  0.00    +0.000 OA
ENDROOT
BRANCH   4   6
ATOM      6  C   UNL     1       2.991   3.856  18.976  0.00  0.00    +0.000 A 
ATOM      7  C   UNL     1       2.458   4.908  19.715  0.00  0.00    +0.000 A 
ATOM      8  C   UNL     1       1.584   4.616  20.758  0.00  0.00    +0.000 A 
ATOM      9  C   UNL     1       1.261   3.291  21.026  0.00  0.00    +0.000 A 
ATOM     10  C   UNL     1       1.813   2.308  20.222  0.00  0.00    +0.000 A 
ATOM     11  N   UNL     1       2.666   2.558  19.205  0.00  0.00    +0.000 NA
ENDBRANCH   4   6
BRANCH   1  12
ATOM     12  C   UNL     1       6.646   6.057  16.719  0.00  0.00    +0.000 C 
ATOM     13  O   UNL     1       7.517   5.972  15.850  0.00  0.00    +0.000 OA
BRANCH  12  14
ATOM     14  C   UNL     1       6.608   7.240  17.682  0.00  0.00    +0.000 C 
BRANCH  14  15
ATOM     15  C   UNL     1       8.008   7.726  18.047  0.00  0.00    +0.000 C 
BRANCH  15  16
ATOM     16  C   UNL     1       8.193   9.207  17.709  0.00  0.00    +0.000 C 
BRANCH  16  17
ATOM     17  C   UNL     1       8.976   9.925  18.808  0.00  0.00    +0.000 C 
BRANCH  17  18
ATOM     18  C   UNL     1       9.843  11.050  18.242  0.00  0.00    +0.000 C 
BRANCH  18  19
ATOM     19  C   UNL     1      10.854  11.540  19.281  0.00  0.00    +0.000 C 
BRANCH  19  21
ATOM     20  C   UNL     1      10.188  13.089  21.151  0.00  0.00    +0.000 C 
ATOM     21  C   UNL     1      10.223  11.647  20.668  0.00  0.00    +0.000 C 
ENDBRANCH  19  21
ENDBRANCH  18  19
ENDBRANCH  17  18
ENDBRANCH  16  17
ENDBRANCH  15  16
ENDBRANCH  14  15
ENDBRANCH  12  14
ENDBRANCH   1  12
TORSDOF 9
ENDMDL
MODEL 8
REMARK VINA RESULT:      -6.8      4.572      8.569
REMARK  Name = 
REMARK  10 active torsions:
REMARK  status: ('A' for Active; 'I' for Inactive)
REMARK    1  A    between atoms: C_1  and  C_2
REMARK    2  A    between atoms: C_2  and  C_3
REMARK    3  A    between atoms: C_3  and  C_4
REMARK    4  A    between atoms: C_4  and  C_5
REMARK    5  A    between atoms: C_5  and  C_6
REMARK    6  A    between atoms: C_6  and  C_7
REMARK    7  A    between atoms: C_7  and  C_8
REMARK    8  A    between atoms: C_8  and  C_9
REMARK    9  A    between atoms: C_9  and  C_11
REMARK   10  A    between atoms: C_14  and  C_15
REMARK                            x       y       z     vdW  Elec       q    Type
REMARK                         _______ _______ _______ _____ _____    ______ ____
ROOT
ATOM      1  C   UNL     1       6.797   5.049  17.954  0.00  0.00    +0.000 A 
ATOM      2  N   UNL     1       5.625   4.439  18.015  0.00  0.00    +0.000 NA
ATOM      3  C   UNL     1       5.364   4.108  16.708  0.00  0.00    +0.000 A 
ATOM      4  C   UNL     1       6.400   4.510  15.895  0.00  0.00    +0.000 A 
ATOM      5  O   UNL     1       7.335   5.114  16.695  0.00  0.00    +0.000 OA
ENDROOT
BRANCH   4   6
ATOM      6  C   UNL     1       6.646   4.473  14.467  0.00  0.00    +0.000 A 
ATOM      7  C   UNL     1       6.019   3.564  13.621  0.00  0.00    +0.000 A 
ATOM      8  C   UNL     1       6.386   3.538  12.279  0.00  0.00    +0.000 A 
ATOM      9  C   UNL     1       7.356   4.422  11.821  0.00  0.00    +0.000 A 
ATOM     10  C   UNL     1       7.907   5.314  12.724  0.00  0.00    +0.000 A 
ATOM     11  N   UNL     1       7.575   5.362  14.033  0.00  0.00    +0.000 NA
ENDBRANCH   4   6
BRANCH   1  12
ATOM     12  C   UNL     1       7.511   5.651  19.068  0.00  0.00    +0.000 C 
ATOM     13  O   UNL     1       7.430   5.247  20.230  0.00  0.00    +0.000 OA
BRANCH  12  14
ATOM     14  C   UNL     1       8.358   6.870  18.716  0.00  0.00    +0.000 C 
BRANCH  14  15
ATOM     15  C   UNL     1       7.527   7.977  18.072  0.00  0.00    +0.000 C 
BRANCH  15  16
ATOM     16  C   UNL     1       8.401   9.163  17.657  0.00  0.00    +0.000 C 
BRANCH  16  17
ATOM     17  C   UNL     1       8.946   9.895  18.884  0.00  0.00    +0.000 C 
BRANCH  17  18
ATOM     18  C   UNL     1       9.720  11.155  18.493  0.00  0.00    +0.000 C 
BRANCH  18  19
ATOM     19  C   UNL     1      10.731  11.536  19.577  0.00  0.00    +0.000 C 
BRANCH  19  21
ATOM     20  C   UNL     1       9.931  13.270  21.218  0.00  0.00    +0.000 C 
ATOM     21  C   UNL     1      10.045  11.783  20.920  0.00  0.00    +0.000 C 
ENDBRANCH  19  21
ENDBRANCH  18  19
ENDBRANCH  17  18
ENDBRANCH  16  17
ENDBRANCH  15  16
ENDBRANCH  14  15
ENDBRANCH  12  14
ENDBRANCH   1  12
TORSDOF 9
ENDMDL
MODEL 9
REMARK VINA RESULT:      -6.7      1.577      2.078
REMARK  Name = 
REMARK  10 active torsions:
REMARK  status: ('A' for Active; 'I' for Inactive)
REMARK    1  A    between atoms: C_1  and  C_2
REMARK    2  A    between atoms: C_2  and  C_3
REMARK    3  A    between atoms: C_3  and  C_4
REMARK    4  A    between atoms: C_4  and  C_5
REMARK    5  A    between atoms: C_5  and  C_6
REMARK    6  A    between atoms: C_6  and  C_7
REMARK    7  A    between atoms: C_7  and  C_8
REMARK    8  A    between atoms: C_8  and  C_9
REMARK    9  A    between atoms: C_9  and  C_11
REMARK   10  A    between atoms: C_14  and  C_15
REMARK                            x       y       z     vdW  Elec       q    Type
REMARK                         _______ _______ _______ _____ _____    ______ ____
ROOT
ATOM      1  C   UNL     1       5.772   5.286  17.600  0.00  0.00    +0.000 A 
ATOM      2  N   UNL     1       6.562   4.738  18.508  0.00  0.00    +0.000 NA
ATOM      3  C   UNL     1       5.694   4.051  19.321  0.00  0.00    +0.000 A 
ATOM      4  C   UNL     1       4.401   4.187  18.866  0.00  0.00    +0.000 A 
ATOM      5  O   UNL     1       4.444   4.980  17.748  0.00  0.00    +0.000 OA
ENDROOT
BRANCH   4   6
ATOM      6  C   UNL     1       3.105   3.739  19.334  0.00  0.00    +0.000 A 
ATOM      7  C   UNL     1       2.330   2.821  18.632  0.00  0.00    +0.000 A 
ATOM      8  C   UNL     1       1.058   2.518  19.109  0.00  0.00    +0.000 A 
ATOM      9  C   UNL     1       0.603   3.130  20.271  0.00  0.00    +0.000 A 
ATOM     10  C   UNL     1       1.450   4.009  20.923  0.00  0.00    +0.000 A 
ATOM     11  N   UNL     1       2.689   4.325  20.485  0.00  0.00    +0.000 NA
ENDBRANCH   4   6
BRANCH   1  12
ATOM     12  C   UNL     1       6.186   6.170  16.523  0.00  0.00    +0.000 C 
ATOM     13  O   UNL     1       7.081   7.011  16.635  0.00  0.00    +0.000 OA
BRANCH  12  14
ATOM     14  C   UNL     1       5.401   6.023  15.223  0.00  0.00    +0.000 C 
BRANCH  14  15
ATOM     15  C   UNL     1       5.423   4.589  14.700  0.00  0.00    +0.000 C 
BRANCH  15  16
ATOM     16  C   UNL     1       6.778   4.242  14.078  0.00  0.00    +0.000 C 
BRANCH  16  17
ATOM     17  C   UNL     1       6.615   3.803  12.622  0.00  0.00    +0.000 C 
BRANCH  17  18
ATOM     18  C   UNL     1       5.218   3.240  12.354  0.00  0.00    +0.000 C 
BRANCH  18  19
ATOM     19  C   UNL     1       5.241   2.244  11.194  0.00  0.00    +0.000 C 
BRANCH  19  21
ATOM     20  C   UNL     1       6.119  -0.111  11.351  0.00  0.00    +0.000 C 
ATOM     21  C   UNL     1       6.487   1.361  11.240  0.00  0.00    +0.000 C 
ENDBRANCH  19  21
ENDBRANCH  18  19
ENDBRANCH  17  18
ENDBRANCH  16  17
ENDBRANCH  15  16
ENDBRANCH  14  15
ENDBRANCH  12  14
ENDBRANCH   1  12
TORSDOF 9
ENDMDL
