MODEL 1
REMARK VINA RESULT:      -7.7      0.000      0.000
REMARK  Name = 
REMARK  4 active torsions:
REMARK  status: ('A' for Active; 'I' for Inactive)
REMARK    1  A    between atoms: C_1  and  C_2
REMARK    2  A    between atoms: C_4  and  C_5
REMARK    3  A    between atoms: C_7  and  N_8
REMARK    4  A    between atoms: C_13  and  C_14
REMARK                            x       y       z     vdW  Elec       q    Type
REMARK                         _______ _______ _______ _____ _____    ______ ____
ROOT
ATOM      1  N   UNL     1       4.435   3.228  18.091  0.00  0.00    +0.000 N 
ATOM      2  C   UNL     1       3.561   3.718  19.068  0.00  0.00    +0.000 A 
ATOM      3  N   UNL     1       3.290   2.883  20.082  0.00  0.00    +0.000 NA
ATOM      4  C   UNL     1       2.558   3.374  21.099  0.00  0.00    +0.000 A 
ATOM      5  C   UNL     1       2.090   4.664  21.150  0.00  0.00    +0.000 A 
ATOM      6  C   UNL     1       2.392   5.443  20.059  0.00  0.00    +0.000 A 
ATOM      7  N   UNL     1       3.097   4.973  19.017  0.00  0.00    +0.000 NA
ATOM      8  H   UNL     1       4.788   2.340  18.415  0.00  0.00    +0.000 HD
ENDROOT
BRANCH   1  15
ATOM      9  C   UNL     1       6.362   4.044  13.591  0.00  0.00    +0.000 C 
ATOM     10  C   UNL     1       6.279   4.406  15.044  0.00  0.00    +0.000 A 
ATOM     11  C   UNL     1       6.961   5.501  15.572  0.00  0.00    +0.000 A 
ATOM     12  C   UNL     1       6.854   5.812  16.932  0.00  0.00    +0.000 A 
ATOM     13  C   UNL     1       7.592   6.984  17.510  0.00  0.00    +0.000 C 
ATOM     14  C   UNL     1       6.029   5.030  17.758  0.00  0.00    +0.000 A 
ATOM     15  C   UNL     1       5.294   3.951  17.241  0.00  0.00    +0.000 A 
ATOM     16  C   UNL     1       5.474   3.633  15.890  0.00  0.00    +0.000 A 
ENDBRANCH   1  15
BRANCH   6  17
ATOM     17  C   UNL     1       2.014   6.856  19.923  0.00  0.00    +0.000 A 
ATOM     18  C   UNL     1       1.360   7.663  20.842  0.00  0.00    +0.000 A 
ATOM     19  C   UNL     1       1.116   8.978  20.353  0.00  0.00    +0.000 A 
ATOM     20  C   UNL     1       1.573   9.138  19.064  0.00  0.00    +0.000 A 
ATOM     21  S   UNL     1       2.300   7.715  18.462  0.00  0.00    +0.000 S 
ENDBRANCH   6  17
TORSDOF 2
ENDMDL
MODEL 2
REMARK VINA RESULT:      -7.7      0.121      1.930
REMARK  Name = 
REMARK  4 active torsions:
REMARK  status: ('A' for Active; 'I' for Inactive)
REMARK    1  A    between atoms: C_1  and  C_2
REMARK    2  A    between atoms: C_4  and  C_5
REMARK    3  A    between atoms: C_7  and  N_8
REMARK    4  A    between atoms: C_13  and  C_14
REMARK                            x       y       z     vdW  Elec       q    Type
REMARK                         _______ _______ _______ _____ _____    ______ ____
ROOT
ATOM      1  N   UNL     1       4.401   3.303  18.057  0.00  0.00    +0.000 N 
ATOM      2  C   UNL     1       3.532   3.749  19.059  0.00  0.00    +0.000 A 
ATOM      3  N   UNL     1       3.280   2.876  20.046  0.00  0.00    +0.000 NA
ATOM      4  C   UNL     1       2.554   3.324  21.087  0.00  0.00    +0.000 A 
ATOM      5  C   UNL     1       2.072   4.606  21.186  0.00  0.00    +0.000 A 
ATOM      6  C   UNL     1       2.355   5.426  20.120  0.00  0.00    +0.000 A 
ATOM      7  N   UNL     1       3.054   5.000  19.055  0.00  0.00    +0.000 NA
ATOM      8  H   UNL     1       4.768   2.408  18.347  0.00  0.00    +0.000 HD
ENDROOT
BRANCH   1  15
ATOM      9  C   UNL     1       7.608   7.036  17.423  0.00  0.00    +0.000 C 
ATOM     10  C   UNL     1       6.835   5.889  16.847  0.00  0.00    +0.000 A 
ATOM     11  C   UNL     1       6.989   5.486  15.521  0.00  0.00    +0.000 A 
ATOM     12  C   UNL     1       6.254   4.405  15.020  0.00  0.00    +0.000 A 
ATOM     13  C   UNL     1       6.407   3.971  13.592  0.00  0.00    +0.000 C 
ATOM     14  C   UNL     1       5.381   3.708  15.872  0.00  0.00    +0.000 A 
ATOM     15  C   UNL     1       5.244   4.064  17.224  0.00  0.00    +0.000 A 
ATOM     16  C   UNL     1       5.948   5.186  17.673  0.00  0.00    +0.000 A 
ENDBRANCH   1  15
BRANCH   6  17
ATOM     17  C   UNL     1       1.960   6.839  20.036  0.00  0.00    +0.000 A 
ATOM     18  C   UNL     1       1.287   7.600  20.979  0.00  0.00    +0.000 A 
ATOM     19  C   UNL     1       1.030   8.931  20.540  0.00  0.00    +0.000 A 
ATOM     20  C   UNL     1       1.497   9.146  19.263  0.00  0.00    +0.000 A 
ATOM     21  S   UNL     1       2.247   7.757  18.612  0.00  0.00    +0.000 S 
ENDBRANCH   6  17
TORSDOF 2
ENDMDL
MODEL 3
REMARK VINA RESULT:      -7.7      0.917      1.171
REMARK  Name = 
REMARK  4 active torsions:
REMARK  status: ('A' for Active; 'I' for Inactive)
REMARK    1  A    between atoms: C_1  and  C_2
REMARK    2  A    between atoms: C_4  and  C_5
REMARK    3  A    between atoms: C_7  and  N_8
REMARK    4  A    between atoms: C_13  and  C_14
REMARK                            x       y       z     vdW  Elec       q    Type
REMARK                         _______ _______ _______ _____ _____    ______ ____
ROOT
ATOM      1  N   UNL     1       4.236   3.710  18.244  0.00  0.00    +0.000 N 
ATOM      2  C   UNL     1       3.320   4.359  19.079  0.00  0.00    +0.000 A 
ATOM      3  N   UNL     1       2.953   3.686  20.179  0.00  0.00    +0.000 NA
ATOM      4  C   UNL     1       2.176   4.339  21.064  0.00  0.00    +0.000 A 
ATOM      5  C   UNL     1       1.753   5.635  20.898  0.00  0.00    +0.000 A 
ATOM      6  C   UNL     1       2.155   6.240  19.731  0.00  0.00    +0.000 A 
ATOM      7  N   UNL     1       2.907   5.606  18.817  0.00  0.00    +0.000 NA
ATOM      8  H   UNL     1       4.535   2.869  18.714  0.00  0.00    +0.000 HD
ENDROOT
BRANCH   1  15
ATOM      9  C   UNL     1       6.351   3.937  13.760  0.00  0.00    +0.000 C 
ATOM     10  C   UNL     1       6.256   4.442  15.168  0.00  0.00    +0.000 A 
ATOM     11  C   UNL     1       7.009   5.527  15.616  0.00  0.00    +0.000 A 
ATOM     12  C   UNL     1       6.888   5.975  16.936  0.00  0.00    +0.000 A 
ATOM     13  C   UNL     1       7.701   7.136  17.428  0.00  0.00    +0.000 C 
ATOM     14  C   UNL     1       5.980   5.342  17.801  0.00  0.00    +0.000 A 
ATOM     15  C   UNL     1       5.175   4.278  17.361  0.00  0.00    +0.000 A 
ATOM     16  C   UNL     1       5.367   3.819  16.054  0.00  0.00    +0.000 A 
ENDBRANCH   1  15
BRANCH   6  17
ATOM     17  C   UNL     1       1.839   7.629  19.370  0.00  0.00    +0.000 A 
ATOM     18  C   UNL     1       2.063   8.276  18.164  0.00  0.00    +0.000 A 
ATOM     19  C   UNL     1       1.668   9.644  18.185  0.00  0.00    +0.000 A 
ATOM     20  C   UNL     1       1.170  10.014  19.413  0.00  0.00    +0.000 A 
ATOM     21  S   UNL     1       1.169   8.715  20.521  0.00  0.00    +0.000 S 
ENDBRANCH   6  17
TORSDOF 2
ENDMDL
MODEL 4
REMARK VINA RESULT:      -7.5      0.816      2.182
REMARK  Name = 
REMARK  4 active torsions:
REMARK  status: ('A' for Active; 'I' for Inactive)
REMARK    1  A    between atoms: C_1  and  C_2
REMARK    2  A    between atoms: C_4  and  C_5
REMARK    3  A    between atoms: C_7  and  N_8
REMARK    4  A    between atoms: C_13  and  C_14
REMARK                            x       y       z     vdW  Elec       q    Type
REMARK                         _______ _______ _______ _____ _____    ______ ____
ROOT
ATOM      1  N   UNL     1       4.260   3.607  18.179  0.00  0.00    +0.000 N 
ATOM      2  C   UNL     1       3.358   4.158  19.095  0.00  0.00    +0.000 A 
ATOM      3  N   UNL     1       3.044   3.385  20.145  0.00  0.00    +0.000 NA
ATOM      4  C   UNL     1       2.283   3.939  21.107  0.00  0.00    +0.000 A 
ATOM      5  C   UNL     1       1.825   5.233  21.067  0.00  0.00    +0.000 A 
ATOM      6  C   UNL     1       2.172   5.946  19.945  0.00  0.00    +0.000 A 
ATOM      7  N   UNL     1       2.907   5.412  18.956  0.00  0.00    +0.000 NA
ATOM      8  H   UNL     1       4.594   2.737  18.565  0.00  0.00    +0.000 HD
ENDROOT
BRANCH   1  15
ATOM      9  C   UNL     1       7.690   7.108  17.399  0.00  0.00    +0.000 C 
ATOM     10  C   UNL     1       6.855   5.980  16.871  0.00  0.00    +0.000 A 
ATOM     11  C   UNL     1       6.998   5.502  15.569  0.00  0.00    +0.000 A 
ATOM     12  C   UNL     1       6.205   4.442  15.114  0.00  0.00    +0.000 A 
ATOM     13  C   UNL     1       6.346   3.928  13.711  0.00  0.00    +0.000 C 
ATOM     14  C   UNL     1       5.283   3.842  15.988  0.00  0.00    +0.000 A 
ATOM     15  C   UNL     1       5.155   4.274  17.319  0.00  0.00    +0.000 A 
ATOM     16  C   UNL     1       5.920   5.374  17.720  0.00  0.00    +0.000 A 
ENDBRANCH   1  15
BRANCH   6  17
ATOM     17  C   UNL     1       1.812   7.352  19.715  0.00  0.00    +0.000 A 
ATOM     18  C   UNL     1       1.975   8.103  18.561  0.00  0.00    +0.000 A 
ATOM     19  C   UNL     1       1.551   9.455  18.713  0.00  0.00    +0.000 A 
ATOM     20  C   UNL     1       1.093   9.707  19.986  0.00  0.00    +0.000 A 
ATOM     21  S   UNL     1       1.164   8.320  20.979  0.00  0.00    +0.000 S 
ENDBRANCH   6  17
TORSDOF 2
ENDMDL
MODEL 5
REMARK VINA RESULT:      -7.3      3.632      6.323
REMARK  Name = 
REMARK  4 active torsions:
REMARK  status: ('A' for Active; 'I' for Inactive)
REMARK    1  A    between atoms: C_1  and  C_2
REMARK    2  A    between atoms: C_4  and  C_5
REMARK    3  A    between atoms: C_7  and  N_8
REMARK    4  A    between atoms: C_13  and  C_14
REMARK                            x       y       z     vdW  Elec       q    Type
REMARK                         _______ _______ _______ _____ _____    ______ ____
ROOT
ATOM      1  N   UNL     1       1.491   8.319  21.348  0.00  0.00    +0.000 N 
ATOM      2  C   UNL     1       0.748   9.468  21.054  0.00  0.00    +0.000 A 
ATOM      3  N   UNL     1       1.038  10.554  21.785  0.00  0.00    +0.000 NA
ATOM      4  C   UNL     1       0.432  11.704  21.436  0.00  0.00    +0.000 A 
ATOM      5  C   UNL     1      -0.446  11.817  20.386  0.00  0.00    +0.000 A 
ATOM      6  C   UNL     1      -0.704  10.651  19.707  0.00  0.00    +0.000 A 
ATOM      7  N   UNL     1      -0.137   9.482  20.049  0.00  0.00    +0.000 NA
ATOM      8  H   UNL     1       2.206   8.579  22.011  0.00  0.00    +0.000 HD
ENDROOT
BRANCH   1  15
ATOM      9  C   UNL     1       3.875   6.505  17.392  0.00  0.00    +0.000 C 
ATOM     10  C   UNL     1       2.966   6.283  18.563  0.00  0.00    +0.000 A 
ATOM     11  C   UNL     1       2.491   5.017  18.900  0.00  0.00    +0.000 A 
ATOM     12  C   UNL     1       1.648   4.848  20.005  0.00  0.00    +0.000 A 
ATOM     13  C   UNL     1       1.126   3.490  20.370  0.00  0.00    +0.000 C 
ATOM     14  C   UNL     1       1.307   5.961  20.791  0.00  0.00    +0.000 A 
ATOM     15  C   UNL     1       1.811   7.240  20.501  0.00  0.00    +0.000 A 
ATOM     16  C   UNL     1       2.600   7.380  19.354  0.00  0.00    +0.000 A 
ENDBRANCH   1  15
BRANCH   6  17
ATOM     17  C   UNL     1      -1.588  10.554  18.537  0.00  0.00    +0.000 A 
ATOM     18  C   UNL     1      -1.418   9.790  17.393  0.00  0.00    +0.000 A 
ATOM     19  C   UNL     1      -2.459   9.978  16.438  0.00  0.00    +0.000 A 
ATOM     20  C   UNL     1      -3.388  10.898  16.869  0.00  0.00    +0.000 A 
ATOM     21  S   UNL     1      -3.009  11.513  18.417  0.00  0.00    +0.000 S 
ENDBRANCH   6  17
TORSDOF 2
ENDMDL
MODEL 6
REMARK VINA RESULT:      -7.3      3.252      5.622
REMARK  Name = 
REMARK  4 active torsions:
REMARK  status: ('A' for Active; 'I' for Inactive)
REMARK    1  A    between atoms: C_1  and  C_2
REMARK    2  A    between atoms: C_4  and  C_5
REMARK    3  A    between atoms: C_7  and  N_8
REMARK    4  A    between atoms: C_13  and  C_14
REMARK                            x       y       z     vdW  Elec       q    Type
REMARK                         _______ _______ _______ _____ _____    ______ ____
ROOT
ATOM      1  N   UNL     1       6.606   4.390  13.809  0.00  0.00    +0.000 N 
ATOM      2  C   UNL     1       6.138   4.803  15.061  0.00  0.00    +0.000 A 
ATOM      3  N   UNL     1       6.693   5.920  15.554  0.00  0.00    +0.000 NA
ATOM      4  C   UNL     1       6.170   6.410  16.694  0.00  0.00    +0.000 A 
ATOM      5  C   UNL     1       5.114   5.836  17.359  0.00  0.00    +0.000 A 
ATOM      6  C   UNL     1       4.623   4.681  16.798  0.00  0.00    +0.000 A 
ATOM      7  N   UNL     1       5.142   4.153  15.677  0.00  0.00    +0.000 NA
ATOM      8  H   UNL     1       7.222   5.110  13.461  0.00  0.00    +0.000 HD
ENDROOT
BRANCH   1  15
ATOM      9  C   UNL     1       3.083   3.997  10.337  0.00  0.00    +0.000 C 
ATOM     10  C   UNL     1       4.219   3.381  11.097  0.00  0.00    +0.000 A 
ATOM     11  C   UNL     1       4.700   2.106  10.802  0.00  0.00    +0.000 A 
ATOM     12  C   UNL     1       5.767   1.567  11.530  0.00  0.00    +0.000 A 
ATOM     13  C   UNL     1       6.285   0.192  11.224  0.00  0.00    +0.000 C 
ATOM     14  C   UNL     1       6.371   2.332  12.542  0.00  0.00    +0.000 A 
ATOM     15  C   UNL     1       5.936   3.637  12.826  0.00  0.00    +0.000 A 
ATOM     16  C   UNL     1       4.829   4.118  12.120  0.00  0.00    +0.000 A 
ENDBRANCH   1  15
BRANCH   6  17
ATOM     17  C   UNL     1       3.482   3.925  17.330  0.00  0.00    +0.000 A 
ATOM     18  C   UNL     1       2.193   4.374  17.575  0.00  0.00    +0.000 A 
ATOM     19  C   UNL     1       1.352   3.371  18.138  0.00  0.00    +0.000 A 
ATOM     20  C   UNL     1       2.026   2.186  18.327  0.00  0.00    +0.000 A 
ATOM     21  S   UNL     1       3.652   2.285  17.816  0.00  0.00    +0.000 S 
ENDBRANCH   6  17
TORSDOF 2
ENDMDL
MODEL 7
REMARK VINA RESULT:      -7.2      2.638      6.854
REMARK  Name = 
REMARK  4 active torsions:
REMARK  status: ('A' for Active; 'I' for Inactive)
REMARK    1  A    between atoms: C_1  and  C_2
REMARK    2  A    between atoms: C_4  and  C_5
REMARK    3  A    between atoms: C_7  and  N_8
REMARK    4  A    between atoms: C_13  and  C_14
REMARK                            x       y       z     vdW  Elec       q    Type
REMARK                         _______ _______ _______ _____ _____    ______ ____
ROOT
ATOM      1  N   UNL     1       2.320   8.554  17.788  0.00  0.00    +0.000 N 
ATOM      2  C   UNL     1       3.022   7.350  17.918  0.00  0.00    +0.000 A 
ATOM      3  N   UNL     1       4.220   7.304  17.318  0.00  0.00    +0.000 NA
ATOM      4  C   UNL     1       4.971   6.209  17.537  0.00  0.00    +0.000 A 
ATOM      5  C   UNL     1       4.579   5.160  18.332  0.00  0.00    +0.000 A 
ATOM      6  C   UNL     1       3.328   5.279  18.888  0.00  0.00    +0.000 A 
ATOM      7  N   UNL     1       2.544   6.347  18.666  0.00  0.00    +0.000 NA
ATOM      8  H   UNL     1       2.932   9.217  17.336  0.00  0.00    +0.000 HD
ENDROOT
BRANCH   1  15
ATOM      9  C   UNL     1       0.594   9.336  22.375  0.00  0.00    +0.000 C 
ATOM     10  C   UNL     1       0.457   9.532  20.895  0.00  0.00    +0.000 A 
ATOM     11  C   UNL     1      -0.548  10.325  20.344  0.00  0.00    +0.000 A 
ATOM     12  C   UNL     1      -0.639  10.490  18.957  0.00  0.00    +0.000 A 
ATOM     13  C   UNL     1      -1.723  11.336  18.356  0.00  0.00    +0.000 C 
ATOM     14  C   UNL     1       0.308   9.873  18.123  0.00  0.00    +0.000 A 
ATOM     15  C   UNL     1       1.359   9.107  18.656  0.00  0.00    +0.000 A 
ATOM     16  C   UNL     1       1.382   8.915  20.041  0.00  0.00    +0.000 A 
ENDBRANCH   1  15
BRANCH   6  17
ATOM     17  C   UNL     1       2.728   4.288  19.791  0.00  0.00    +0.000 A 
ATOM     18  C   UNL     1       1.539   4.380  20.500  0.00  0.00    +0.000 A 
ATOM     19  C   UNL     1       1.290   3.240  21.317  0.00  0.00    +0.000 A 
ATOM     20  C   UNL     1       2.305   2.315  21.228  0.00  0.00    +0.000 A 
ATOM     21  S   UNL     1       3.536   2.816  20.157  0.00  0.00    +0.000 S 
ENDBRANCH   6  17
TORSDOF 2
ENDMDL
MODEL 8
REMARK VINA RESULT:      -7.2      3.681      6.263
REMARK  Name = 
REMARK  4 active torsions:
REMARK  status: ('A' for Active; 'I' for Inactive)
REMARK    1  A    between atoms: C_1  and  C_2
REMARK    2  A    between atoms: C_4  and  C_5
REMARK    3  A    between atoms: C_7  and  N_8
REMARK    4  A    between atoms: C_13  and  C_14
REMARK                            x       y       z     vdW  Elec       q    Type
REMARK                         _______ _______ _______ _____ _____    ______ ____
ROOT
ATOM      1  N   UNL     1       1.439   8.220  21.395  0.00  0.00    +0.000 N 
ATOM      2  C   UNL     1       0.708   9.378  21.107  0.00  0.00    +0.000 A 
ATOM      3  N   UNL     1       0.983  10.447  21.867  0.00  0.00    +0.000 NA
ATOM      4  C   UNL     1       0.391  11.607  21.527  0.00  0.00    +0.000 A 
ATOM      5  C   UNL     1      -0.460  11.746  20.458  0.00  0.00    +0.000 A 
ATOM      6  C   UNL     1      -0.705  10.594  19.748  0.00  0.00    +0.000 A 
ATOM      7  N   UNL     1      -0.151   9.417  20.080  0.00  0.00    +0.000 NA
ATOM      8  H   UNL     1       2.138   8.463  22.082  0.00  0.00    +0.000 HD
ENDROOT
BRANCH   1  15
ATOM      9  C   UNL     1       1.053   3.453  20.071  0.00  0.00    +0.000 C 
ATOM     10  C   UNL     1       1.625   4.817  19.827  0.00  0.00    +0.000 A 
ATOM     11  C   UNL     1       2.418   5.097  18.714  0.00  0.00    +0.000 A 
ATOM     12  C   UNL     1       2.929   6.385  18.516  0.00  0.00    +0.000 A 
ATOM     13  C   UNL     1       3.789   6.692  17.326  0.00  0.00    +0.000 C 
ATOM     14  C   UNL     1       2.613   7.403  19.431  0.00  0.00    +0.000 A 
ATOM     15  C   UNL     1       1.777   7.158  20.534  0.00  0.00    +0.000 A 
ATOM     16  C   UNL     1       1.336   5.846  20.733  0.00  0.00    +0.000 A 
ENDBRANCH   1  15
BRANCH   6  17
ATOM     17  C   UNL     1      -1.559  10.526  18.555  0.00  0.00    +0.000 A 
ATOM     18  C   UNL     1      -1.377   9.764  17.411  0.00  0.00    +0.000 A 
ATOM     19  C   UNL     1      -2.387   9.983  16.430  0.00  0.00    +0.000 A 
ATOM     20  C   UNL     1      -3.304  10.923  16.841  0.00  0.00    +0.000 A 
ATOM     21  S   UNL     1      -2.952  11.521  18.402  0.00  0.00    +0.000 S 
ENDBRANCH   6  17
TORSDOF 2
ENDMDL
MODEL 9
REMARK VINA RESULT:      -7.1      2.681      6.833
REMARK  Name = 
REMARK  4 active torsions:
REMARK  status: ('A' for Active; 'I' for Inactive)
REMARK    1  A    between atoms: C_1  and  C_2
REMARK    2  A    between atoms: C_4  and  C_5
REMARK    3  A    between atoms: C_7  and  N_8
REMARK    4  A    between atoms: C_13  and  C_14
REMARK                            x       y       z     vdW  Elec       q    Type
REMARK                         _______ _______ _______ _____ _____    ______ ____
ROOT
ATOM      1  N   UNL     1       2.333   8.855  17.754  0.00  0.00    +0.000 N 
ATOM      2  C   UNL     1       2.943   7.596  17.733  0.00  0.00    +0.000 A 
ATOM      3  N   UNL     1       4.200   7.563  17.267  0.00  0.00    +0.000 NA
ATOM      4  C   UNL     1       4.855   6.391  17.358  0.00  0.00    +0.000 A 
ATOM      5  C   UNL     1       4.310   5.251  17.898  0.00  0.00    +0.000 A 
ATOM      6  C   UNL     1       3.010   5.368  18.327  0.00  0.00    +0.000 A 
ATOM      7  N   UNL     1       2.321   6.517  18.225  0.00  0.00    +0.000 NA
ATOM      8  H   UNL     1       3.032   9.538  17.502  0.00  0.00    +0.000 HD
ENDROOT
BRANCH   1  15
ATOM      9  C   UNL     1      -2.102  10.991  18.384  0.00  0.00    +0.000 C 
ATOM     10  C   UNL     1      -0.876  10.364  18.978  0.00  0.00    +0.000 A 
ATOM     11  C   UNL     1      -0.751  10.141  20.348  0.00  0.00    +0.000 A 
ATOM     12  C   UNL     1       0.406   9.547  20.865  0.00  0.00    +0.000 A 
ATOM     13  C   UNL     1       0.552   9.311  22.340  0.00  0.00    +0.000 C 
ATOM     14  C   UNL     1       1.430   9.149  19.990  0.00  0.00    +0.000 A 
ATOM     15  C   UNL     1       1.308   9.320  18.601  0.00  0.00    +0.000 A 
ATOM     16  C   UNL     1       0.165   9.972  18.127  0.00  0.00    +0.000 A 
ENDBRANCH   1  15
BRANCH   6  17
ATOM     17  C   UNL     1       2.249   4.282  18.961  0.00  0.00    +0.000 A 
ATOM     18  C   UNL     1       1.442   3.331  18.355  0.00  0.00    +0.000 A 
ATOM     19  C   UNL     1       0.819   2.453  19.288  0.00  0.00    +0.000 A 
ATOM     20  C   UNL     1       1.151   2.768  20.586  0.00  0.00    +0.000 A 
ATOM     21  S   UNL     1       2.214   4.103  20.670  0.00  0.00    +0.000 S 
ENDBRANCH   6  17
TORSDOF 2
ENDMDL
