MODEL 1
REMARK VINA RESULT:      -8.2      0.000      0.000
REMARK  Name = 
REMARK  12 active torsions:
REMARK  status: ('A' for Active; 'I' for Inactive)
REMARK    1  A    between atoms: C_1  and  C_2
REMARK    2  A    between atoms: C_2  and  C_3
REMARK    3  A    between atoms: C_2  and  C_4
REMARK    4  A    between atoms: C_2  and  C_5
REMARK    5  A    between atoms: C_7  and  C_8
REMARK    6  A    between atoms: C_9  and  C_10
REMARK    7  A    between atoms: C_10  and  C_12
REMARK    8  A    between atoms: C_17  and  C_18
REMARK    9  A    between atoms: C_18  and  C_19
REMARK   10  A    between atoms: C_18  and  C_20
REMARK   11  A    between atoms: C_18  and  C_21
REMARK   12  A    between atoms: C_22  and  O_23
REMARK                            x       y       z     vdW  Elec       q    Type
REMARK                         _______ _______ _______ _____ _____    ______ ____
ROOT
ATOM      1  C   UNL     1       3.177   4.658  18.806  0.00  0.00    +0.000 A 
ATOM      2  C   UNL     1       2.526   5.869  18.503  0.00  0.00    +0.000 A 
ATOM      3  C   UNL     1       3.222   6.991  18.041  0.00  0.00    +0.000 A 
ATOM      4  C   UNL     1       4.600   6.888  17.826  0.00  0.00    +0.000 A 
ATOM      5  C   UNL     1       5.331   5.723  18.122  0.00  0.00    +0.000 A 
ATOM      6  C   UNL     1       4.581   4.622  18.602  0.00  0.00    +0.000 A 
ENDROOT
BRANCH   1   8
ATOM      7  C   UNL     1       3.065   2.742  20.557  0.00  0.00    +0.000 C 
ATOM      8  C   UNL     1       2.375   3.447  19.357  0.00  0.00    +0.000 C 
ATOM      9  C   UNL     1       2.203   2.362  18.271  0.00  0.00    +0.000 C 
ATOM     10  C   UNL     1       0.988   3.890  19.869  0.00  0.00    +0.000 C 
ENDBRANCH   1   8
BRANCH   5  11
ATOM     11  C   UNL     1       6.877   5.730  17.986  0.00  0.00    +0.000 C 
ATOM     12  C   UNL     1       7.435   7.038  17.356  0.00  0.00    +0.000 C 
ATOM     13  C   UNL     1       7.536   5.619  19.379  0.00  0.00    +0.000 C 
ATOM     14  C   UNL     1       7.385   4.589  17.078  0.00  0.00    +0.000 C 
ENDBRANCH   5  11
BRANCH   3  15
ATOM     15  C   UNL     1       2.489   8.242  17.777  0.00  0.00    +0.000 C 
ATOM     16  C   UNL     1       1.951   8.999  18.751  0.00  0.00    +0.000 C 
BRANCH  16  17
ATOM     17  C   UNL     1       1.205  10.259  18.433  0.00  0.00    +0.000 C 
ATOM     18  O   UNL     1       1.820  11.308  18.247  0.00  0.00    +0.000 OA
BRANCH  17  19
ATOM     19  C   UNL     1      -0.320  10.152  18.373  0.00  0.00    +0.000 C 
ATOM     20  F   UNL     1      -0.765   9.381  17.340  0.00  0.00    +0.000 F 
ATOM     21  F   UNL     1      -0.845   9.601  19.503  0.00  0.00    +0.000 F 
ATOM     22  F   UNL     1      -0.917  11.365  18.221  0.00  0.00    +0.000 F 
ENDBRANCH  17  19
ENDBRANCH  16  17
ENDBRANCH   3  15
BRANCH   6  23
ATOM     23  O   UNL     1       5.236   3.460  18.908  0.00  0.00    +0.000 OA
ATOM     24  H   UNL     1       6.164   3.705  19.057  0.00  0.00    +0.000 HD
ENDBRANCH   6  23
TORSDOF 6
ENDMDL
MODEL 2
REMARK VINA RESULT:      -8.1      0.093      1.195
REMARK  Name = 
REMARK  12 active torsions:
REMARK  status: ('A' for Active; 'I' for Inactive)
REMARK    1  A    between atoms: C_1  and  C_2
REMARK    2  A    between atoms: C_2  and  C_3
REMARK    3  A    between atoms: C_2  and  C_4
REMARK    4  A    between atoms: C_2  and  C_5
REMARK    5  A    between atoms: C_7  and  C_8
REMARK    6  A    between atoms: C_9  and  C_10
REMARK    7  A    between atoms: C_10  and  C_12
REMARK    8  A    between atoms: C_17  and  C_18
REMARK    9  A    between atoms: C_18  and  C_19
REMARK   10  A    between atoms: C_18  and  C_20
REMARK   11  A    between atoms: C_18  and  C_21
REMARK   12  A    between atoms: C_22  and  O_23
REMARK                            x       y       z     vdW  Elec       q    Type
REMARK                         _______ _______ _______ _____ _____    ______ ____
ROOT
ATOM      1  C   UNL     1       3.208   4.696  18.752  0.00  0.00    +0.000 A 
ATOM      2  C   UNL     1       2.565   5.916  18.466  0.00  0.00    +0.000 A 
ATOM      3  C   UNL     1       3.270   7.040  18.024  0.00  0.00    +0.000 A 
ATOM      4  C   UNL     1       4.649   6.933  17.812  0.00  0.00    +0.000 A 
ATOM      5  C   UNL     1       5.371   5.759  18.093  0.00  0.00    +0.000 A 
ATOM      6  C   UNL     1       4.613   4.655  18.553  0.00  0.00    +0.000 A 
ENDROOT
BRANCH   1   8
ATOM      7  C   UNL     1       3.088   2.741  20.457  0.00  0.00    +0.000 C 
ATOM      8  C   UNL     1       2.397   3.482  19.281  0.00  0.00    +0.000 C 
ATOM      9  C   UNL     1       2.203   2.425  18.171  0.00  0.00    +0.000 C 
ATOM     10  C   UNL     1       1.019   3.929  19.815  0.00  0.00    +0.000 C 
ENDBRANCH   1   8
BRANCH   5  11
ATOM     11  C   UNL     1       6.918   5.758  17.963  0.00  0.00    +0.000 C 
ATOM     12  C   UNL     1       7.651   5.642  19.330  0.00  0.00    +0.000 C 
ATOM     13  C   UNL     1       7.382   4.541  17.132  0.00  0.00    +0.000 C 
ATOM     14  C   UNL     1       7.447   7.058  17.321  0.00  0.00    +0.000 C 
ENDBRANCH   5  11
BRANCH   3  15
ATOM     15  C   UNL     1       2.545   8.300  17.777  0.00  0.00    +0.000 C 
ATOM     16  C   UNL     1       1.830   8.935  18.723  0.00  0.00    +0.000 C 
BRANCH  16  17
ATOM     17  C   UNL     1       1.101  10.209  18.422  0.00  0.00    +0.000 C 
ATOM     18  O   UNL     1       1.730  11.253  18.254  0.00  0.00    +0.000 OA
BRANCH  17  19
ATOM     19  C   UNL     1      -0.425  10.123  18.355  0.00  0.00    +0.000 C 
ATOM     20  F   UNL     1      -1.027  11.340  18.224  0.00  0.00    +0.000 F 
ATOM     21  F   UNL     1      -0.855   9.379  17.298  0.00  0.00    +0.000 F 
ATOM     22  F   UNL     1      -0.960   9.557  19.470  0.00  0.00    +0.000 F 
ENDBRANCH  17  19
ENDBRANCH  16  17
ENDBRANCH   3  15
BRANCH   6  23
ATOM     23  O   UNL     1       5.259   3.485  18.843  0.00  0.00    +0.000 OA
ATOM     24  H   UNL     1       5.583   3.139  17.996  0.00  0.00    +0.000 HD
ENDBRANCH   6  23
TORSDOF 6
ENDMDL
MODEL 3
REMARK VINA RESULT:      -8.1      0.061      1.202
REMARK  Name = 
REMARK  12 active torsions:
REMARK  status: ('A' for Active; 'I' for Inactive)
REMARK    1  A    between atoms: C_1  and  C_2
REMARK    2  A    between atoms: C_2  and  C_3
REMARK    3  A    between atoms: C_2  and  C_4
REMARK    4  A    between atoms: C_2  and  C_5
REMARK    5  A    between atoms: C_7  and  C_8
REMARK    6  A    between atoms: C_9  and  C_10
REMARK    7  A    between atoms: C_10  and  C_12
REMARK    8  A    between atoms: C_17  and  C_18
REMARK    9  A    between atoms: C_18  and  C_19
REMARK   10  A    between atoms: C_18  and  C_20
REMARK   11  A    between atoms: C_18  and  C_21
REMARK   12  A    between atoms: C_22  and  O_23
REMARK                            x       y       z     vdW  Elec       q    Type
REMARK                         _______ _______ _______ _____ _____    ______ ____
ROOT
ATOM      1  C   UNL     1       3.188   4.674  18.785  0.00  0.00    +0.000 A 
ATOM      2  C   UNL     1       2.544   5.893  18.494  0.00  0.00    +0.000 A 
ATOM      3  C   UNL     1       3.246   7.015  18.043  0.00  0.00    +0.000 A 
ATOM      4  C   UNL     1       4.624   6.906  17.827  0.00  0.00    +0.000 A 
ATOM      5  C   UNL     1       5.349   5.735  18.113  0.00  0.00    +0.000 A 
ATOM      6  C   UNL     1       4.592   4.633  18.582  0.00  0.00    +0.000 A 
ENDROOT
BRANCH   1   8
ATOM      7  C   UNL     1       2.148   2.352  18.264  0.00  0.00    +0.000 C 
ATOM      8  C   UNL     1       2.380   3.463  19.324  0.00  0.00    +0.000 C 
ATOM      9  C   UNL     1       0.974   3.904  19.788  0.00  0.00    +0.000 C 
ATOM     10  C   UNL     1       3.120   2.781  20.495  0.00  0.00    +0.000 C 
ENDBRANCH   1   8
BRANCH   5  11
ATOM     11  C   UNL     1       6.894   5.734  17.977  0.00  0.00    +0.000 C 
ATOM     12  C   UNL     1       7.456   7.029  17.323  0.00  0.00    +0.000 C 
ATOM     13  C   UNL     1       7.552   5.648  19.372  0.00  0.00    +0.000 C 
ATOM     14  C   UNL     1       7.399   4.575  17.092  0.00  0.00    +0.000 C 
ENDBRANCH   5  11
BRANCH   3  15
ATOM     15  C   UNL     1       2.520   8.273  17.792  0.00  0.00    +0.000 C 
ATOM     16  C   UNL     1       1.876   8.956  18.755  0.00  0.00    +0.000 C 
BRANCH  16  17
ATOM     17  C   UNL     1       1.143  10.226  18.449  0.00  0.00    +0.000 C 
ATOM     18  O   UNL     1       1.769  11.266  18.249  0.00  0.00    +0.000 OA
BRANCH  17  19
ATOM     19  C   UNL     1      -0.385  10.141  18.418  0.00  0.00    +0.000 C 
ATOM     20  F   UNL     1      -0.989  11.361  18.328  0.00  0.00    +0.000 F 
ATOM     21  F   UNL     1      -0.842   9.419  17.357  0.00  0.00    +0.000 F 
ATOM     22  F   UNL     1      -0.893   9.552  19.535  0.00  0.00    +0.000 F 
ENDBRANCH  17  19
ENDBRANCH  16  17
ENDBRANCH   3  15
BRANCH   6  23
ATOM     23  O   UNL     1       5.241   3.465  18.876  0.00  0.00    +0.000 OA
ATOM     24  H   UNL     1       5.748   3.231  18.083  0.00  0.00    +0.000 HD
ENDBRANCH   6  23
TORSDOF 6
ENDMDL
MODEL 4
REMARK VINA RESULT:      -8.0      0.160      1.454
REMARK  Name = 
REMARK  12 active torsions:
REMARK  status: ('A' for Active; 'I' for Inactive)
REMARK    1  A    between atoms: C_1  and  C_2
REMARK    2  A    between atoms: C_2  and  C_3
REMARK    3  A    between atoms: C_2  and  C_4
REMARK    4  A    between atoms: C_2  and  C_5
REMARK    5  A    between atoms: C_7  and  C_8
REMARK    6  A    between atoms: C_9  and  C_10
REMARK    7  A    between atoms: C_10  and  C_12
REMARK    8  A    between atoms: C_17  and  C_18
REMARK    9  A    between atoms: C_18  and  C_19
REMARK   10  A    between atoms: C_18  and  C_20
REMARK   11  A    between atoms: C_18  and  C_21
REMARK   12  A    between atoms: C_22  and  O_23
REMARK                            x       y       z     vdW  Elec       q    Type
REMARK                         _______ _______ _______ _____ _____    ______ ____
ROOT
ATOM      1  C   UNL     1       3.200   4.589  18.851  0.00  0.00    +0.000 A 
ATOM      2  C   UNL     1       2.538   5.789  18.528  0.00  0.00    +0.000 A 
ATOM      3  C   UNL     1       3.225   6.912  18.057  0.00  0.00    +0.000 A 
ATOM      4  C   UNL     1       4.606   6.822  17.853  0.00  0.00    +0.000 A 
ATOM      5  C   UNL     1       5.348   5.669  18.169  0.00  0.00    +0.000 A 
ATOM      6  C   UNL     1       4.606   4.566  18.658  0.00  0.00    +0.000 A 
ENDROOT
BRANCH   1   8
ATOM      7  C   UNL     1       2.380   2.157  18.450  0.00  0.00    +0.000 C 
ATOM      8  C   UNL     1       2.408   3.377  19.411  0.00  0.00    +0.000 C 
ATOM      9  C   UNL     1       0.930   3.753  19.659  0.00  0.00    +0.000 C 
ATOM     10  C   UNL     1       3.037   2.864  20.725  0.00  0.00    +0.000 C 
ENDBRANCH   1   8
BRANCH   5  11
ATOM     11  C   UNL     1       6.894   5.691  18.044  0.00  0.00    +0.000 C 
ATOM     12  C   UNL     1       7.458   4.531  17.174  0.00  0.00    +0.000 C 
ATOM     13  C   UNL     1       7.355   6.995  17.356  0.00  0.00    +0.000 C 
ATOM     14  C   UNL     1       7.590   5.552  19.414  0.00  0.00    +0.000 C 
ENDBRANCH   5  11
BRANCH   3  15
ATOM     15  C   UNL     1       2.480   8.152  17.772  0.00  0.00    +0.000 C 
ATOM     16  C   UNL     1       2.022   8.973  18.735  0.00  0.00    +0.000 C 
BRANCH  16  17
ATOM     17  C   UNL     1       1.260  10.218  18.397  0.00  0.00    +0.000 C 
ATOM     18  O   UNL     1       1.864  11.243  18.081  0.00  0.00    +0.000 OA
BRANCH  17  19
ATOM     19  C   UNL     1      -0.265  10.129  18.483  0.00  0.00    +0.000 C 
ATOM     20  F   UNL     1      -0.702   9.428  19.568  0.00  0.00    +0.000 F 
ATOM     21  F   UNL     1      -0.850  11.356  18.571  0.00  0.00    +0.000 F 
ATOM     22  F   UNL     1      -0.809   9.518  17.396  0.00  0.00    +0.000 F 
ENDBRANCH  17  19
ENDBRANCH  16  17
ENDBRANCH   3  15
BRANCH   6  23
ATOM     23  O   UNL     1       5.272   3.416  18.983  0.00  0.00    +0.000 OA
ATOM     24  H   UNL     1       4.588   2.743  19.135  0.00  0.00    +0.000 HD
ENDBRANCH   6  23
TORSDOF 6
ENDMDL
MODEL 5
REMARK VINA RESULT:      -8.0      1.233      1.975
REMARK  Name = 
REMARK  12 active torsions:
REMARK  status: ('A' for Active; 'I' for Inactive)
REMARK    1  A    between atoms: C_1  and  C_2
REMARK    2  A    between atoms: C_2  and  C_3
REMARK    3  A    between atoms: C_2  and  C_4
REMARK    4  A    between atoms: C_2  and  C_5
REMARK    5  A    between atoms: C_7  and  C_8
REMARK    6  A    between atoms: C_9  and  C_10
REMARK    7  A    between atoms: C_10  and  C_12
REMARK    8  A    between atoms: C_17  and  C_18
REMARK    9  A    between atoms: C_18  and  C_19
REMARK   10  A    between atoms: C_18  and  C_20
REMARK   11  A    between atoms: C_18  and  C_21
REMARK   12  A    between atoms: C_22  and  O_23
REMARK                            x       y       z     vdW  Elec       q    Type
REMARK                         _______ _______ _______ _____ _____    ______ ____
ROOT
ATOM      1  C   UNL     1       3.177   4.487  18.908  0.00  0.00    +0.000 A 
ATOM      2  C   UNL     1       2.452   5.645  18.563  0.00  0.00    +0.000 A 
ATOM      3  C   UNL     1       3.079   6.793  18.069  0.00  0.00    +0.000 A 
ATOM      4  C   UNL     1       4.463   6.772  17.865  0.00  0.00    +0.000 A 
ATOM      5  C   UNL     1       5.264   5.667  18.203  0.00  0.00    +0.000 A 
ATOM      6  C   UNL     1       4.582   4.535  18.714  0.00  0.00    +0.000 A 
ENDROOT
BRANCH   1   8
ATOM      7  C   UNL     1       0.947   3.494  19.795  0.00  0.00    +0.000 C 
ATOM      8  C   UNL     1       2.450   3.246  19.493  0.00  0.00    +0.000 C 
ATOM      9  C   UNL     1       3.086   2.818  20.834  0.00  0.00    +0.000 C 
ATOM     10  C   UNL     1       2.491   2.063  18.501  0.00  0.00    +0.000 C 
ENDBRANCH   1   8
BRANCH   5  11
ATOM     11  C   UNL     1       6.807   5.768  18.075  0.00  0.00    +0.000 C 
ATOM     12  C   UNL     1       7.430   4.632  17.213  0.00  0.00    +0.000 C 
ATOM     13  C   UNL     1       7.199   7.089  17.376  0.00  0.00    +0.000 C 
ATOM     14  C   UNL     1       7.511   5.676  19.446  0.00  0.00    +0.000 C 
ENDBRANCH   5  11
BRANCH   3  15
ATOM     15  C   UNL     1       2.269   7.986  17.762  0.00  0.00    +0.000 C 
ATOM     16  C   UNL     1       1.661   8.726  18.706  0.00  0.00    +0.000 C 
BRANCH  16  17
ATOM     17  C   UNL     1       0.840   9.925  18.344  0.00  0.00    +0.000 C 
ATOM     18  O   UNL     1      -0.233   9.784  17.759  0.00  0.00    +0.000 OA
BRANCH  17  19
ATOM     19  C   UNL     1       1.417  11.289  18.729  0.00  0.00    +0.000 C 
ATOM     20  F   UNL     1       1.601  11.435  20.073  0.00  0.00    +0.000 F 
ATOM     21  F   UNL     1       2.634  11.515  18.160  0.00  0.00    +0.000 F 
ATOM     22  F   UNL     1       0.614  12.318  18.346  0.00  0.00    +0.000 F 
ENDBRANCH  17  19
ENDBRANCH  16  17
ENDBRANCH   3  15
BRANCH   6  23
ATOM     23  O   UNL     1       5.308   3.428  19.060  0.00  0.00    +0.000 OA
ATOM     24  H   UNL     1       5.961   3.303  18.353  0.00  0.00    +0.000 HD
ENDBRANCH   6  23
TORSDOF 6
ENDMDL
MODEL 6
REMARK VINA RESULT:      -8.0      0.161      3.922
REMARK  Name = 
REMARK  12 active torsions:
REMARK  status: ('A' for Active; 'I' for Inactive)
REMARK    1  A    between atoms: C_1  and  C_2
REMARK    2  A    between atoms: C_2  and  C_3
REMARK    3  A    between atoms: C_2  and  C_4
REMARK    4  A    between atoms: C_2  and  C_5
REMARK    5  A    between atoms: C_7  and  C_8
REMARK    6  A    between atoms: C_9  and  C_10
REMARK    7  A    between atoms: C_10  and  C_12
REMARK    8  A    between atoms: C_17  and  C_18
REMARK    9  A    between atoms: C_18  and  C_19
REMARK   10  A    between atoms: C_18  and  C_20
REMARK   11  A    between atoms: C_18  and  C_21
REMARK   12  A    between atoms: C_22  and  O_23
REMARK                            x       y       z     vdW  Elec       q    Type
REMARK                         _______ _______ _______ _____ _____    ______ ____
ROOT
ATOM      1  C   UNL     1       5.347   5.741  18.142  0.00  0.00    +0.000 A 
ATOM      2  C   UNL     1       4.587   6.903  17.903  0.00  0.00    +0.000 A 
ATOM      3  C   UNL     1       3.201   6.934  18.086  0.00  0.00    +0.000 A 
ATOM      4  C   UNL     1       2.558   5.789  18.568  0.00  0.00    +0.000 A 
ATOM      5  C   UNL     1       3.237   4.581  18.812  0.00  0.00    +0.000 A 
ATOM      6  C   UNL     1       4.637   4.599  18.596  0.00  0.00    +0.000 A 
ENDROOT
BRANCH   1   8
ATOM      7  C   UNL     1       7.409   7.055  17.266  0.00  0.00    +0.000 C 
ATOM      8  C   UNL     1       6.878   5.734  17.888  0.00  0.00    +0.000 C 
ATOM      9  C   UNL     1       7.266   4.615  16.897  0.00  0.00    +0.000 C 
ATOM     10  C   UNL     1       7.657   5.548  19.209  0.00  0.00    +0.000 C 
ENDBRANCH   1   8
BRANCH   5  11
ATOM     11  C   UNL     1       2.435   3.315  19.215  0.00  0.00    +0.000 C 
ATOM     12  C   UNL     1       0.945   3.610  19.549  0.00  0.00    +0.000 C 
ATOM     13  C   UNL     1       2.413   2.304  18.047  0.00  0.00    +0.000 C 
ATOM     14  C   UNL     1       3.013   2.640  20.477  0.00  0.00    +0.000 C 
ENDBRANCH   5  11
BRANCH   3  15
ATOM     15  C   UNL     1       2.456   8.169  17.782  0.00  0.00    +0.000 C 
ATOM     16  C   UNL     1       2.049   9.034  18.729  0.00  0.00    +0.000 C 
BRANCH  16  17
ATOM     17  C   UNL     1       1.285  10.273  18.372  0.00  0.00    +0.000 C 
ATOM     18  O   UNL     1       1.887  11.314  18.111  0.00  0.00    +0.000 OA
BRANCH  17  19
ATOM     19  C   UNL     1      -0.241  10.157  18.371  0.00  0.00    +0.000 C 
ATOM     20  F   UNL     1      -0.738   9.593  19.509  0.00  0.00    +0.000 F 
ATOM     21  F   UNL     1      -0.851  11.370  18.258  0.00  0.00    +0.000 F 
ATOM     22  F   UNL     1      -0.700   9.395  17.341  0.00  0.00    +0.000 F 
ENDBRANCH  17  19
ENDBRANCH  16  17
ENDBRANCH   3  15
BRANCH   6  23
ATOM     23  O   UNL     1       5.353   3.454  18.816  0.00  0.00    +0.000 OA
ATOM     24  H   UNL     1       5.370   2.980  17.969  0.00  0.00    +0.000 HD
ENDBRANCH   6  23
TORSDOF 6
ENDMDL
MODEL 7
REMARK VINA RESULT:      -8.0      1.255      1.751
REMARK  Name = 
REMARK  12 active torsions:
REMARK  status: ('A' for Active; 'I' for Inactive)
REMARK    1  A    between atoms: C_1  and  C_2
REMARK    2  A    between atoms: C_2  and  C_3
REMARK    3  A    between atoms: C_2  and  C_4
REMARK    4  A    between atoms: C_2  and  C_5
REMARK    5  A    between atoms: C_7  and  C_8
REMARK    6  A    between atoms: C_9  and  C_10
REMARK    7  A    between atoms: C_10  and  C_12
REMARK    8  A    between atoms: C_17  and  C_18
REMARK    9  A    between atoms: C_18  and  C_19
REMARK   10  A    between atoms: C_18  and  C_20
REMARK   11  A    between atoms: C_18  and  C_21
REMARK   12  A    between atoms: C_22  and  O_23
REMARK                            x       y       z     vdW  Elec       q    Type
REMARK                         _______ _______ _______ _____ _____    ______ ____
ROOT
ATOM      1  C   UNL     1       3.191   4.379  18.896  0.00  0.00    +0.000 A 
ATOM      2  C   UNL     1       2.431   5.515  18.556  0.00  0.00    +0.000 A 
ATOM      3  C   UNL     1       3.023   6.684  18.066  0.00  0.00    +0.000 A 
ATOM      4  C   UNL     1       4.406   6.705  17.861  0.00  0.00    +0.000 A 
ATOM      5  C   UNL     1       5.241   5.623  18.193  0.00  0.00    +0.000 A 
ATOM      6  C   UNL     1       4.594   4.470  18.700  0.00  0.00    +0.000 A 
ENDROOT
BRANCH   1   8
ATOM      7  C   UNL     1       2.956   2.770  20.922  0.00  0.00    +0.000 C 
ATOM      8  C   UNL     1       2.502   3.114  19.476  0.00  0.00    +0.000 C 
ATOM      9  C   UNL     1       2.830   1.869  18.623  0.00  0.00    +0.000 C 
ATOM     10  C   UNL     1       0.971   3.302  19.548  0.00  0.00    +0.000 C 
ENDBRANCH   1   8
BRANCH   5  11
ATOM     11  C   UNL     1       6.780   5.771  18.065  0.00  0.00    +0.000 C 
ATOM     12  C   UNL     1       7.436   4.659  17.196  0.00  0.00    +0.000 C 
ATOM     13  C   UNL     1       7.131   7.106  17.373  0.00  0.00    +0.000 C 
ATOM     14  C   UNL     1       7.488   5.693  19.434  0.00  0.00    +0.000 C 
ENDBRANCH   5  11
BRANCH   3  15
ATOM     15  C   UNL     1       2.177   7.853  17.764  0.00  0.00    +0.000 C 
ATOM     16  C   UNL     1       1.802   8.750  18.694  0.00  0.00    +0.000 C 
BRANCH  16  17
ATOM     17  C   UNL     1       0.934   9.918  18.341  0.00  0.00    +0.000 C 
ATOM     18  O   UNL     1      -0.131   9.738  17.749  0.00  0.00    +0.000 OA
BRANCH  17  19
ATOM     19  C   UNL     1       1.453  11.301  18.741  0.00  0.00    +0.000 C 
ATOM     20  F   UNL     1       2.658  11.606  18.179  0.00  0.00    +0.000 F 
ATOM     21  F   UNL     1       0.604  12.299  18.370  0.00  0.00    +0.000 F 
ATOM     22  F   UNL     1       1.625  11.419  20.085  0.00  0.00    +0.000 F 
ENDBRANCH  17  19
ENDBRANCH  16  17
ENDBRANCH   3  15
BRANCH   6  23
ATOM     23  O   UNL     1       5.353   3.384  19.042  0.00  0.00    +0.000 OA
ATOM     24  H   UNL     1       4.929   2.994  19.824  0.00  0.00    +0.000 HD
ENDBRANCH   6  23
TORSDOF 6
ENDMDL
MODEL 8
REMARK VINA RESULT:      -8.0      1.253      1.948
REMARK  Name = 
REMARK  12 active torsions:
REMARK  status: ('A' for Active; 'I' for Inactive)
REMARK    1  A    between atoms: C_1  and  C_2
REMARK    2  A    between atoms: C_2  and  C_3
REMARK    3  A    between atoms: C_2  and  C_4
REMARK    4  A    between atoms: C_2  and  C_5
REMARK    5  A    between atoms: C_7  and  C_8
REMARK    6  A    between atoms: C_9  and  C_10
REMARK    7  A    between atoms: C_10  and  C_12
REMARK    8  A    between atoms: C_17  and  C_18
REMARK    9  A    between atoms: C_18  and  C_19
REMARK   10  A    between atoms: C_18  and  C_20
REMARK   11  A    between atoms: C_18  and  C_21
REMARK   12  A    between atoms: C_22  and  O_23
REMARK                            x       y       z     vdW  Elec       q    Type
REMARK                         _______ _______ _______ _____ _____    ______ ____
ROOT
ATOM      1  C   UNL     1       3.218   4.382  18.834  0.00  0.00    +0.000 A 
ATOM      2  C   UNL     1       2.458   5.520  18.500  0.00  0.00    +0.000 A 
ATOM      3  C   UNL     1       3.050   6.696  18.028  0.00  0.00    +0.000 A 
ATOM      4  C   UNL     1       4.435   6.724  17.836  0.00  0.00    +0.000 A 
ATOM      5  C   UNL     1       5.271   5.641  18.165  0.00  0.00    +0.000 A 
ATOM      6  C   UNL     1       4.622   4.480  18.653  0.00  0.00    +0.000 A 
ENDROOT
BRANCH   1   8
ATOM      7  C   UNL     1       0.977   3.198  19.402  0.00  0.00    +0.000 C 
ATOM      8  C   UNL     1       2.528   3.109  19.394  0.00  0.00    +0.000 C 
ATOM      9  C   UNL     1       2.944   2.858  20.860  0.00  0.00    +0.000 C 
ATOM     10  C   UNL     1       2.875   1.871  18.539  0.00  0.00    +0.000 C 
ENDBRANCH   1   8
BRANCH   5  11
ATOM     11  C   UNL     1       6.810   5.795  18.053  0.00  0.00    +0.000 C 
ATOM     12  C   UNL     1       7.541   5.707  19.424  0.00  0.00    +0.000 C 
ATOM     13  C   UNL     1       7.399   4.657  17.190  0.00  0.00    +0.000 C 
ATOM     14  C   UNL     1       7.216   7.161  17.460  0.00  0.00    +0.000 C 
ENDBRANCH   5  11
BRANCH   3  15
ATOM     15  C   UNL     1       2.204   7.866  17.731  0.00  0.00    +0.000 C 
ATOM     16  C   UNL     1       1.768   8.718  18.676  0.00  0.00    +0.000 C 
BRANCH  16  17
ATOM     17  C   UNL     1       0.901   9.889  18.327  0.00  0.00    +0.000 C 
ATOM     18  O   UNL     1      -0.169   9.711  17.745  0.00  0.00    +0.000 OA
BRANCH  17  19
ATOM     19  C   UNL     1       1.429  11.270  18.719  0.00  0.00    +0.000 C 
ATOM     20  F   UNL     1       0.596  12.287  18.355  0.00  0.00    +0.000 F 
ATOM     21  F   UNL     1       1.604  11.394  20.064  0.00  0.00    +0.000 F 
ATOM     22  F   UNL     1       2.631  11.546  18.145  0.00  0.00    +0.000 F 
ENDBRANCH  17  19
ENDBRANCH  16  17
ENDBRANCH   3  15
BRANCH   6  23
ATOM     23  O   UNL     1       5.381   3.393  18.990  0.00  0.00    +0.000 OA
ATOM     24  H   UNL     1       5.726   3.036  18.156  0.00  0.00    +0.000 HD
ENDBRANCH   6  23
TORSDOF 6
ENDMDL
MODEL 9
REMARK VINA RESULT:      -8.0      0.632      1.455
REMARK  Name = 
REMARK  12 active torsions:
REMARK  status: ('A' for Active; 'I' for Inactive)
REMARK    1  A    between atoms: C_1  and  C_2
REMARK    2  A    between atoms: C_2  and  C_3
REMARK    3  A    between atoms: C_2  and  C_4
REMARK    4  A    between atoms: C_2  and  C_5
REMARK    5  A    between atoms: C_7  and  C_8
REMARK    6  A    between atoms: C_9  and  C_10
REMARK    7  A    between atoms: C_10  and  C_12
REMARK    8  A    between atoms: C_17  and  C_18
REMARK    9  A    between atoms: C_18  and  C_19
REMARK   10  A    between atoms: C_18  and  C_20
REMARK   11  A    between atoms: C_18  and  C_21
REMARK   12  A    between atoms: C_22  and  O_23
REMARK                            x       y       z     vdW  Elec       q    Type
REMARK                         _______ _______ _______ _____ _____    ______ ____
ROOT
ATOM      1  C   UNL     1       3.253   4.513  18.764  0.00  0.00    +0.000 A 
ATOM      2  C   UNL     1       2.550   5.716  18.556  0.00  0.00    +0.000 A 
ATOM      3  C   UNL     1       3.193   6.892  18.158  0.00  0.00    +0.000 A 
ATOM      4  C   UNL     1       4.570   6.858  17.911  0.00  0.00    +0.000 A 
ATOM      5  C   UNL     1       5.351   5.706  18.115  0.00  0.00    +0.000 A 
ATOM      6  C   UNL     1       4.653   4.546  18.533  0.00  0.00    +0.000 A 
ENDROOT
BRANCH   1   8
ATOM      7  C   UNL     1       1.016   3.486  19.593  0.00  0.00    +0.000 C 
ATOM      8  C   UNL     1       2.509   3.238  19.245  0.00  0.00    +0.000 C 
ATOM      9  C   UNL     1       3.155   2.678  20.532  0.00  0.00    +0.000 C 
ATOM     10  C   UNL     1       2.511   2.150  18.150  0.00  0.00    +0.000 C 
ENDBRANCH   1   8
BRANCH   5  11
ATOM     11  C   UNL     1       6.892   5.782  17.951  0.00  0.00    +0.000 C 
ATOM     12  C   UNL     1       7.662   5.632  19.295  0.00  0.00    +0.000 C 
ATOM     13  C   UNL     1       7.390   4.630  17.051  0.00  0.00    +0.000 C 
ATOM     14  C   UNL     1       7.348   7.135  17.365  0.00  0.00    +0.000 C 
ENDBRANCH   5  11
BRANCH   3  15
ATOM     15  C   UNL     1       2.408   8.129  17.994  0.00  0.00    +0.000 C 
ATOM     16  C   UNL     1       1.779   8.742  19.012  0.00  0.00    +0.000 C 
BRANCH  16  17
ATOM     17  C   UNL     1       0.984   9.993  18.794  0.00  0.00    +0.000 C 
ATOM     18  O   UNL     1       1.426  10.886  18.073  0.00  0.00    +0.000 OA
BRANCH  17  19
ATOM     19  C   UNL     1      -0.362  10.081  19.518  0.00  0.00    +0.000 C 
ATOM     20  F   UNL     1      -1.428   9.843  18.701  0.00  0.00    +0.000 F 
ATOM     21  F   UNL     1      -0.462   9.179  20.534  0.00  0.00    +0.000 F 
ATOM     22  F   UNL     1      -0.574  11.308  20.066  0.00  0.00    +0.000 F 
ENDBRANCH  17  19
ENDBRANCH  16  17
ENDBRANCH   3  15
BRANCH   6  23
ATOM     23  O   UNL     1       5.357   3.393  18.747  0.00  0.00    +0.000 OA
ATOM     24  H   UNL     1       4.923   2.709  18.212  0.00  0.00    +0.000 HD
ENDBRANCH   6  23
TORSDOF 6
ENDMDL
