MODEL 1
REMARK VINA RESULT:      -7.9      0.000      0.000
REMARK  Name = 
REMARK  3 active torsions:
REMARK  status: ('A' for Active; 'I' for Inactive)
REMARK    1  A    between atoms: O_1  and  C_2
REMARK    2  A    between atoms: N_8  and  C_9
REMARK    3  A    between atoms: C_15  and  C_16
REMARK                            x       y       z     vdW  Elec       q    Type
REMARK                         _______ _______ _______ _____ _____    ______ ____
ROOT
ATOM      1  C   UNL     1       7.572   5.748  19.325  0.00  0.00    +0.000 A 
ATOM      2  C   UNL     1       7.940   6.527  18.228  0.00  0.00    +0.000 A 
ATOM      3  C   UNL     1       6.962   6.868  17.292  0.00  0.00    +0.000 A 
ATOM      4  C   UNL     1       5.658   6.415  17.526  0.00  0.00    +0.000 A 
ATOM      5  N   UNL     1       4.507   6.628  16.824  0.00  0.00    +0.000 NA
ATOM      6  C   UNL     1       3.585   5.970  17.492  0.00  0.00    +0.000 A 
ATOM      7  N   UNL     1       4.087   5.257  18.563  0.00  0.00    +0.000 N 
ATOM      8  C   UNL     1       5.427   5.621  18.645  0.00  0.00    +0.000 A 
ATOM      9  N   UNL     1       6.347   5.252  19.566  0.00  0.00    +0.000 NA
ENDROOT
BRANCH   7  10
ATOM     10  C   UNL     1       3.351   4.405  19.449  0.00  0.00    +0.000 A 
ATOM     11  C   UNL     1       2.951   4.948  20.690  0.00  0.00    +0.000 A 
ATOM     12  C   UNL     1       2.168   4.219  21.588  0.00  0.00    +0.000 A 
ATOM     13  C   UNL     1       1.773   2.931  21.267  0.00  0.00    +0.000 A 
ATOM     14 CL   UNL     1       0.796   2.029  22.356  0.00  0.00    +0.000 Cl
ATOM     15  C   UNL     1       2.178   2.363  20.064  0.00  0.00    +0.000 A 
ATOM     16  C   UNL     1       2.989   3.071  19.139  0.00  0.00    +0.000 A 
BRANCH  16  17
ATOM     17  C   UNL     1       3.436   2.252  17.947  0.00  0.00    +0.000 C 
ATOM     18  F   UNL     1       4.445   2.784  17.214  0.00  0.00    +0.000 F 
ATOM     19  F   UNL     1       3.886   1.017  18.313  0.00  0.00    +0.000 F 
ATOM     20  F   UNL     1       2.411   2.029  17.079  0.00  0.00    +0.000 F 
ENDBRANCH  16  17
ENDBRANCH   7  10
BRANCH   1  21
ATOM     21  O   UNL     1       8.505   5.428  20.272  0.00  0.00    +0.000 OA
ATOM     22  H   UNL     1       9.273   5.040  19.827  0.00  0.00    +0.000 HD
ENDBRANCH   1  21
TORSDOF 3
ENDMDL
MODEL 2
REMARK VINA RESULT:      -7.9      3.908      5.923
REMARK  Name = 
REMARK  3 active torsions:
REMARK  status: ('A' for Active; 'I' for Inactive)
REMARK    1  A    between atoms: O_1  and  C_2
REMARK    2  A    between atoms: N_8  and  C_9
REMARK    3  A    between atoms: C_15  and  C_16
REMARK                            x       y       z     vdW  Elec       q    Type
REMARK                         _______ _______ _______ _____ _____    ______ ____
ROOT
ATOM      1  C   UNL     1       2.378   6.893  19.467  0.00  0.00    +0.000 A 
ATOM      2  C   UNL     1       1.703   6.267  20.514  0.00  0.00    +0.000 A 
ATOM      3  C   UNL     1       2.042   4.953  20.839  0.00  0.00    +0.000 A 
ATOM      4  C   UNL     1       3.060   4.346  20.095  0.00  0.00    +0.000 A 
ATOM      5  N   UNL     1       3.629   3.111  20.213  0.00  0.00    +0.000 NA
ATOM      6  C   UNL     1       4.533   3.069  19.259  0.00  0.00    +0.000 A 
ATOM      7  N   UNL     1       4.534   4.191  18.455  0.00  0.00    +0.000 N 
ATOM      8  C   UNL     1       3.638   5.069  19.055  0.00  0.00    +0.000 A 
ATOM      9  N   UNL     1       3.327   6.335  18.696  0.00  0.00    +0.000 NA
ENDROOT
BRANCH   7  10
ATOM     10  C   UNL     1       5.358   4.425  17.306  0.00  0.00    +0.000 A 
ATOM     11  C   UNL     1       4.890   3.946  16.063  0.00  0.00    +0.000 A 
ATOM     12  C   UNL     1       5.587   4.189  14.877  0.00  0.00    +0.000 A 
ATOM     13  C   UNL     1       6.768   4.911  14.909  0.00  0.00    +0.000 A 
ATOM     14 CL   UNL     1       7.627   5.232  13.456  0.00  0.00    +0.000 Cl
ATOM     15  C   UNL     1       7.265   5.370  16.125  0.00  0.00    +0.000 A 
ATOM     16  C   UNL     1       6.590   5.123  17.348  0.00  0.00    +0.000 A 
BRANCH  16  17
ATOM     17  C   UNL     1       7.341   5.583  18.579  0.00  0.00    +0.000 C 
ATOM     18  F   UNL     1       6.619   5.628  19.727  0.00  0.00    +0.000 F 
ATOM     19  F   UNL     1       8.402   4.774  18.866  0.00  0.00    +0.000 F 
ATOM     20  F   UNL     1       7.864   6.829  18.410  0.00  0.00    +0.000 F 
ENDBRANCH  16  17
ENDBRANCH   7  10
BRANCH   1  21
ATOM     21  O   UNL     1       2.085   8.190  19.151  0.00  0.00    +0.000 OA
ATOM     22  H   UNL     1       1.537   8.196  18.353  0.00  0.00    +0.000 HD
ENDBRANCH   1  21
TORSDOF 3
ENDMDL
MODEL 3
REMARK VINA RESULT:      -7.9      2.599      3.112
REMARK  Name = 
REMARK  3 active torsions:
REMARK  status: ('A' for Active; 'I' for Inactive)
REMARK    1  A    between atoms: O_1  and  C_2
REMARK    2  A    between atoms: N_8  and  C_9
REMARK    3  A    between atoms: C_15  and  C_16
REMARK                            x       y       z     vdW  Elec       q    Type
REMARK                         _______ _______ _______ _____ _____    ______ ____
ROOT
ATOM      1  C   UNL     1       7.485   5.823  19.512  0.00  0.00    +0.000 A 
ATOM      2  C   UNL     1       8.302   6.681  18.777  0.00  0.00    +0.000 A 
ATOM      3  C   UNL     1       7.817   7.204  17.577  0.00  0.00    +0.000 A 
ATOM      4  C   UNL     1       6.520   6.841  17.193  0.00  0.00    +0.000 A 
ATOM      5  N   UNL     1       5.775   7.226  16.117  0.00  0.00    +0.000 NA
ATOM      6  C   UNL     1       4.637   6.582  16.253  0.00  0.00    +0.000 A 
ATOM      7  N   UNL     1       4.622   5.718  17.330  0.00  0.00    +0.000 N 
ATOM      8  C   UNL     1       5.817   5.954  18.002  0.00  0.00    +0.000 A 
ATOM      9  N   UNL     1       6.255   5.411  19.161  0.00  0.00    +0.000 NA
ENDROOT
BRANCH   7  10
ATOM     10  C   UNL     1       3.556   4.840  17.714  0.00  0.00    +0.000 A 
ATOM     11  C   UNL     1       3.525   3.559  17.120  0.00  0.00    +0.000 A 
ATOM     12  C   UNL     1       2.568   2.608  17.485  0.00  0.00    +0.000 A 
ATOM     13  C   UNL     1       1.620   2.921  18.446  0.00  0.00    +0.000 A 
ATOM     14 CL   UNL     1       0.447   1.756  18.916  0.00  0.00    +0.000 Cl
ATOM     15  C   UNL     1       1.613   4.186  19.024  0.00  0.00    +0.000 A 
ATOM     16  C   UNL     1       2.559   5.178  18.661  0.00  0.00    +0.000 A 
BRANCH  16  17
ATOM     17  C   UNL     1       2.319   6.531  19.297  0.00  0.00    +0.000 C 
ATOM     18  F   UNL     1       1.407   6.556  20.299  0.00  0.00    +0.000 F 
ATOM     19  F   UNL     1       3.456   7.049  19.847  0.00  0.00    +0.000 F 
ATOM     20  F   UNL     1       1.903   7.449  18.380  0.00  0.00    +0.000 F 
ENDBRANCH  16  17
ENDBRANCH   7  10
BRANCH   1  21
ATOM     21  O   UNL     1       7.926   5.325  20.706  0.00  0.00    +0.000 OA
ATOM     22  H   UNL     1       8.816   5.670  20.873  0.00  0.00    +0.000 HD
ENDBRANCH   1  21
TORSDOF 3
ENDMDL
MODEL 4
REMARK VINA RESULT:      -7.5      3.820      5.830
REMARK  Name = 
REMARK  3 active torsions:
REMARK  status: ('A' for Active; 'I' for Inactive)
REMARK    1  A    between atoms: O_1  and  C_2
REMARK    2  A    between atoms: N_8  and  C_9
REMARK    3  A    between atoms: C_15  and  C_16
REMARK                            x       y       z     vdW  Elec       q    Type
REMARK                         _______ _______ _______ _____ _____    ______ ____
ROOT
ATOM      1  C   UNL     1       4.506   2.183  20.189  0.00  0.00    +0.000 A 
ATOM      2  C   UNL     1       3.465   2.527  21.052  0.00  0.00    +0.000 A 
ATOM      3  C   UNL     1       2.681   3.639  20.744  0.00  0.00    +0.000 A 
ATOM      4  C   UNL     1       2.982   4.337  19.568  0.00  0.00    +0.000 A 
ATOM      5  N   UNL     1       2.371   5.414  18.995  0.00  0.00    +0.000 NA
ATOM      6  C   UNL     1       3.068   5.651  17.907  0.00  0.00    +0.000 A 
ATOM      7  N   UNL     1       4.171   4.831  17.772  0.00  0.00    +0.000 N 
ATOM      8  C   UNL     1       4.065   3.908  18.807  0.00  0.00    +0.000 A 
ATOM      9  N   UNL     1       4.861   2.849  19.077  0.00  0.00    +0.000 NA
ENDROOT
BRANCH   7  10
ATOM     10  C   UNL     1       5.153   4.875  16.729  0.00  0.00    +0.000 A 
ATOM     11  C   UNL     1       4.773   4.384  15.460  0.00  0.00    +0.000 A 
ATOM     12  C   UNL     1       5.636   4.452  14.363  0.00  0.00    +0.000 A 
ATOM     13  C   UNL     1       6.896   5.006  14.512  0.00  0.00    +0.000 A 
ATOM     14 CL   UNL     1       7.961   5.110  13.168  0.00  0.00    +0.000 Cl
ATOM     15  C   UNL     1       7.304   5.470  15.759  0.00  0.00    +0.000 A 
ATOM     16  C   UNL     1       6.458   5.398  16.896  0.00  0.00    +0.000 A 
BRANCH  16  17
ATOM     17  C   UNL     1       7.114   5.830  18.190  0.00  0.00    +0.000 C 
ATOM     18  F   UNL     1       6.287   5.945  19.259  0.00  0.00    +0.000 F 
ATOM     19  F   UNL     1       8.083   4.957  18.591  0.00  0.00    +0.000 F 
ATOM     20  F   UNL     1       7.736   7.034  18.058  0.00  0.00    +0.000 F 
ENDBRANCH  16  17
ENDBRANCH   7  10
BRANCH   1  21
ATOM     21  O   UNL     1       5.267   1.079  20.453  0.00  0.00    +0.000 OA
ATOM     22  H   UNL     1       6.109   1.167  19.982  0.00  0.00    +0.000 HD
ENDBRANCH   1  21
TORSDOF 3
ENDMDL
MODEL 5
REMARK VINA RESULT:      -7.4      3.626      5.811
REMARK  Name = 
REMARK  3 active torsions:
REMARK  status: ('A' for Active; 'I' for Inactive)
REMARK    1  A    between atoms: O_1  and  C_2
REMARK    2  A    between atoms: N_8  and  C_9
REMARK    3  A    between atoms: C_15  and  C_16
REMARK                            x       y       z     vdW  Elec       q    Type
REMARK                         _______ _______ _______ _____ _____    ______ ____
ROOT
ATOM      1  C   UNL     1       2.303   3.302  21.143  0.00  0.00    +0.000 A 
ATOM      2  C   UNL     1       1.334   2.364  20.784  0.00  0.00    +0.000 A 
ATOM      3  C   UNL     1       1.209   2.011  19.440  0.00  0.00    +0.000 A 
ATOM      4  C   UNL     1       2.084   2.615  18.529  0.00  0.00    +0.000 A 
ATOM      5  N   UNL     1       2.228   2.434  17.185  0.00  0.00    +0.000 NA
ATOM      6  C   UNL     1       3.195   3.255  16.841  0.00  0.00    +0.000 A 
ATOM      7  N   UNL     1       3.647   4.038  17.884  0.00  0.00    +0.000 N 
ATOM      8  C   UNL     1       2.989   3.557  19.011  0.00  0.00    +0.000 A 
ATOM      9  N   UNL     1       3.131   3.941  20.300  0.00  0.00    +0.000 NA
ENDROOT
BRANCH   7  10
ATOM     10  C   UNL     1       4.650   5.060  17.820  0.00  0.00    +0.000 A 
ATOM     11  C   UNL     1       5.996   4.643  17.727  0.00  0.00    +0.000 A 
ATOM     12  C   UNL     1       7.038   5.564  17.586  0.00  0.00    +0.000 A 
ATOM     13  C   UNL     1       6.756   6.919  17.541  0.00  0.00    +0.000 A 
ATOM     14 CL   UNL     1       8.026   8.061  17.353  0.00  0.00    +0.000 Cl
ATOM     15  C   UNL     1       5.441   7.356  17.660  0.00  0.00    +0.000 A 
ATOM     16  C   UNL     1       4.364   6.447  17.822  0.00  0.00    +0.000 A 
BRANCH  16  17
ATOM     17  C   UNL     1       3.022   7.106  18.064  0.00  0.00    +0.000 C 
ATOM     18  F   UNL     1       1.941   6.420  17.616  0.00  0.00    +0.000 F 
ATOM     19  F   UNL     1       2.781   7.309  19.391  0.00  0.00    +0.000 F 
ATOM     20  F   UNL     1       2.958   8.338  17.486  0.00  0.00    +0.000 F 
ENDBRANCH  16  17
ENDBRANCH   7  10
BRANCH   1  21
ATOM     21  O   UNL     1       2.465   3.640  22.457  0.00  0.00    +0.000 OA
ATOM     22  H   UNL     1       2.450   4.605  22.530  0.00  0.00    +0.000 HD
ENDBRANCH   1  21
TORSDOF 3
ENDMDL
MODEL 6
REMARK VINA RESULT:      -7.4      3.787      5.286
REMARK  Name = 
REMARK  3 active torsions:
REMARK  status: ('A' for Active; 'I' for Inactive)
REMARK    1  A    between atoms: O_1  and  C_2
REMARK    2  A    between atoms: N_8  and  C_9
REMARK    3  A    between atoms: C_15  and  C_16
REMARK                            x       y       z     vdW  Elec       q    Type
REMARK                         _______ _______ _______ _____ _____    ______ ____
ROOT
ATOM      1  C   UNL     1       1.785   9.561  18.369  0.00  0.00    +0.000 A 
ATOM      2  C   UNL     1       1.058   9.749  19.544  0.00  0.00    +0.000 A 
ATOM      3  C   UNL     1       1.020   8.715  20.481  0.00  0.00    +0.000 A 
ATOM      4  C   UNL     1       1.735   7.548  20.185  0.00  0.00    +0.000 A 
ATOM      5  N   UNL     1       1.919   6.412  20.917  0.00  0.00    +0.000 NA
ATOM      6  C   UNL     1       2.673   5.647  20.159  0.00  0.00    +0.000 A 
ATOM      7  N   UNL     1       2.931   6.190  18.916  0.00  0.00    +0.000 N 
ATOM      8  C   UNL     1       2.399   7.475  18.964  0.00  0.00    +0.000 A 
ATOM      9  N   UNL     1       2.446   8.444  18.022  0.00  0.00    +0.000 NA
ENDROOT
BRANCH   7  10
ATOM     10  C   UNL     1       3.673   5.585  17.850  0.00  0.00    +0.000 A 
ATOM     11  C   UNL     1       4.665   6.370  17.223  0.00  0.00    +0.000 A 
ATOM     12  C   UNL     1       5.490   5.844  16.225  0.00  0.00    +0.000 A 
ATOM     13  C   UNL     1       5.335   4.526  15.829  0.00  0.00    +0.000 A 
ATOM     14 CL   UNL     1       6.353   3.862  14.614  0.00  0.00    +0.000 Cl
ATOM     15  C   UNL     1       4.346   3.741  16.412  0.00  0.00    +0.000 A 
ATOM     16  C   UNL     1       3.481   4.251  17.415  0.00  0.00    +0.000 A 
BRANCH  16  17
ATOM     17  C   UNL     1       2.386   3.296  17.840  0.00  0.00    +0.000 C 
ATOM     18  F   UNL     1       2.456   2.854  19.120  0.00  0.00    +0.000 F 
ATOM     19  F   UNL     1       1.146   3.856  17.731  0.00  0.00    +0.000 F 
ATOM     20  F   UNL     1       2.358   2.185  17.053  0.00  0.00    +0.000 F 
ENDBRANCH  16  17
ENDBRANCH   7  10
BRANCH   1  21
ATOM     21  O   UNL     1       1.863  10.571  17.452  0.00  0.00    +0.000 OA
ATOM     22  H   UNL     1       1.015  10.631  16.989  0.00  0.00    +0.000 HD
ENDBRANCH   1  21
TORSDOF 3
ENDMDL
MODEL 7
REMARK VINA RESULT:      -7.3      3.913      5.924
REMARK  Name = 
REMARK  3 active torsions:
REMARK  status: ('A' for Active; 'I' for Inactive)
REMARK    1  A    between atoms: O_1  and  C_2
REMARK    2  A    between atoms: N_8  and  C_9
REMARK    3  A    between atoms: C_15  and  C_16
REMARK                            x       y       z     vdW  Elec       q    Type
REMARK                         _______ _______ _______ _____ _____    ______ ____
ROOT
ATOM      1  C   UNL     1       4.491   2.324  20.062  0.00  0.00    +0.000 A 
ATOM      2  C   UNL     1       3.464   2.692  20.930  0.00  0.00    +0.000 A 
ATOM      3  C   UNL     1       2.681   3.802  20.609  0.00  0.00    +0.000 A 
ATOM      4  C   UNL     1       2.971   4.473  19.416  0.00  0.00    +0.000 A 
ATOM      5  N   UNL     1       2.357   5.541  18.828  0.00  0.00    +0.000 NA
ATOM      6  C   UNL     1       3.042   5.752  17.726  0.00  0.00    +0.000 A 
ATOM      7  N   UNL     1       4.139   4.923  17.594  0.00  0.00    +0.000 N 
ATOM      8  C   UNL     1       4.042   4.023  18.649  0.00  0.00    +0.000 A 
ATOM      9  N   UNL     1       4.836   2.965  18.932  0.00  0.00    +0.000 NA
ENDROOT
BRANCH   7  10
ATOM     10  C   UNL     1       5.107   4.939  16.538  0.00  0.00    +0.000 A 
ATOM     11  C   UNL     1       4.900   4.058  15.454  0.00  0.00    +0.000 A 
ATOM     12  C   UNL     1       5.748   4.053  14.343  0.00  0.00    +0.000 A 
ATOM     13  C   UNL     1       6.823   4.925  14.296  0.00  0.00    +0.000 A 
ATOM     14 CL   UNL     1       7.865   4.941  12.930  0.00  0.00    +0.000 Cl
ATOM     15  C   UNL     1       7.065   5.783  15.364  0.00  0.00    +0.000 A 
ATOM     16  C   UNL     1       6.232   5.798  16.513  0.00  0.00    +0.000 A 
BRANCH  16  17
ATOM     17  C   UNL     1       6.721   6.702  17.625  0.00  0.00    +0.000 C 
ATOM     18  F   UNL     1       7.966   7.214  17.462  0.00  0.00    +0.000 F 
ATOM     19  F   UNL     1       5.916   7.790  17.794  0.00  0.00    +0.000 F 
ATOM     20  F   UNL     1       6.729   6.059  18.826  0.00  0.00    +0.000 F 
ENDBRANCH  16  17
ENDBRANCH   7  10
BRANCH   1  21
ATOM     21  O   UNL     1       5.250   1.222  20.339  0.00  0.00    +0.000 OA
ATOM     22  H   UNL     1       5.861   1.442  21.057  0.00  0.00    +0.000 HD
ENDBRANCH   1  21
TORSDOF 3
ENDMDL
MODEL 8
REMARK VINA RESULT:      -7.3      2.964      3.594
REMARK  Name = 
REMARK  3 active torsions:
REMARK  status: ('A' for Active; 'I' for Inactive)
REMARK    1  A    between atoms: O_1  and  C_2
REMARK    2  A    between atoms: N_8  and  C_9
REMARK    3  A    between atoms: C_15  and  C_16
REMARK                            x       y       z     vdW  Elec       q    Type
REMARK                         _______ _______ _______ _____ _____    ______ ____
ROOT
ATOM      1  C   UNL     1       6.694   6.089  16.714  0.00  0.00    +0.000 A 
ATOM      2  C   UNL     1       6.996   4.993  15.907  0.00  0.00    +0.000 A 
ATOM      3  C   UNL     1       6.047   3.978  15.774  0.00  0.00    +0.000 A 
ATOM      4  C   UNL     1       4.834   4.134  16.455  0.00  0.00    +0.000 A 
ATOM      5  N   UNL     1       3.721   3.346  16.474  0.00  0.00    +0.000 NA
ATOM      6  C   UNL     1       2.886   3.970  17.275  0.00  0.00    +0.000 A 
ATOM      7  N   UNL     1       3.425   5.100  17.858  0.00  0.00    +0.000 N 
ATOM      8  C   UNL     1       4.666   5.263  17.251  0.00  0.00    +0.000 A 
ATOM      9  N   UNL     1       5.564   6.260  17.422  0.00  0.00    +0.000 NA
ENDROOT
BRANCH   7  10
ATOM     10  C   UNL     1       2.792   5.962  18.811  0.00  0.00    +0.000 A 
ATOM     11  C   UNL     1       2.658   7.325  18.465  0.00  0.00    +0.000 A 
ATOM     12  C   UNL     1       1.990   8.227  19.296  0.00  0.00    +0.000 A 
ATOM     13  C   UNL     1       1.446   7.788  20.491  0.00  0.00    +0.000 A 
ATOM     14 CL   UNL     1       0.608   8.884  21.516  0.00  0.00    +0.000 Cl
ATOM     15  C   UNL     1       1.589   6.456  20.868  0.00  0.00    +0.000 A 
ATOM     16  C   UNL     1       2.278   5.520  20.054  0.00  0.00    +0.000 A 
BRANCH  16  17
ATOM     17  C   UNL     1       2.446   4.153  20.682  0.00  0.00    +0.000 C 
ATOM     18  F   UNL     1       3.635   3.543  20.454  0.00  0.00    +0.000 F 
ATOM     19  F   UNL     1       2.330   4.194  22.041  0.00  0.00    +0.000 F 
ATOM     20  F   UNL     1       1.485   3.286  20.257  0.00  0.00    +0.000 F 
ENDBRANCH  16  17
ENDBRANCH   7  10
BRANCH   1  21
ATOM     21  O   UNL     1       7.594   7.111  16.834  0.00  0.00    +0.000 OA
ATOM     22  H   UNL     1       7.954   7.099  17.733  0.00  0.00    +0.000 HD
ENDBRANCH   1  21
TORSDOF 3
ENDMDL
MODEL 9
REMARK VINA RESULT:      -7.2      3.875      5.991
REMARK  Name = 
REMARK  3 active torsions:
REMARK  status: ('A' for Active; 'I' for Inactive)
REMARK    1  A    between atoms: O_1  and  C_2
REMARK    2  A    between atoms: N_8  and  C_9
REMARK    3  A    between atoms: C_15  and  C_16
REMARK                            x       y       z     vdW  Elec       q    Type
REMARK                         _______ _______ _______ _____ _____    ______ ____
ROOT
ATOM      1  C   UNL     1       2.126   2.569  19.146  0.00  0.00    +0.000 A 
ATOM      2  C   UNL     1       1.381   3.143  20.176  0.00  0.00    +0.000 A 
ATOM      3  C   UNL     1       1.539   4.504  20.439  0.00  0.00    +0.000 A 
ATOM      4  C   UNL     1       2.434   5.218  19.632  0.00  0.00    +0.000 A 
ATOM      5  N   UNL     1       2.753   6.545  19.621  0.00  0.00    +0.000 NA
ATOM      6  C   UNL     1       3.644   6.664  18.662  0.00  0.00    +0.000 A 
ATOM      7  N   UNL     1       3.996   5.459  18.087  0.00  0.00    +0.000 N 
ATOM      8  C   UNL     1       3.138   4.522  18.653  0.00  0.00    +0.000 A 
ATOM      9  N   UNL     1       3.028   3.203  18.378  0.00  0.00    +0.000 NA
ENDROOT
BRANCH   7  10
ATOM     10  C   UNL     1       4.972   5.249  17.059  0.00  0.00    +0.000 A 
ATOM     11  C   UNL     1       4.500   4.868  15.784  0.00  0.00    +0.000 A 
ATOM     12  C   UNL     1       5.368   4.713  14.700  0.00  0.00    +0.000 A 
ATOM     13  C   UNL     1       6.725   4.929  14.870  0.00  0.00    +0.000 A 
ATOM     14 CL   UNL     1       7.802   4.756  13.542  0.00  0.00    +0.000 Cl
ATOM     15  C   UNL     1       7.218   5.277  16.123  0.00  0.00    +0.000 A 
ATOM     16  C   UNL     1       6.364   5.424  17.247  0.00  0.00    +0.000 A 
BRANCH  16  17
ATOM     17  C   UNL     1       7.089   5.679  18.552  0.00  0.00    +0.000 C 
ATOM     18  F   UNL     1       6.369   5.453  19.678  0.00  0.00    +0.000 F 
ATOM     19  F   UNL     1       8.198   4.894  18.684  0.00  0.00    +0.000 F 
ATOM     20  F   UNL     1       7.535   6.963  18.635  0.00  0.00    +0.000 F 
ENDBRANCH  16  17
ENDBRANCH   7  10
BRANCH   1  21
ATOM     21  O   UNL     1       1.964   1.245  18.849  0.00  0.00    +0.000 OA
ATOM     22  H   UNL     1       2.485   0.724  19.477  0.00  0.00    +0.000 HD
ENDBRANCH   1  21
TORSDOF 3
ENDMDL
