MODEL 1
REMARK VINA RESULT:      -8.0      0.000      0.000
REMARK  Name = 
REMARK  8 active torsions:
REMARK  status: ('A' for Active; 'I' for Inactive)
REMARK    1  A    between atoms: C_2  and  C_3
REMARK    2  A    between atoms: C_3  and  O_4
REMARK    3  A    between atoms: O_4  and  C_5
REMARK    4  A    between atoms: C_5  and  C_7
REMARK    5  A    between atoms: C_12  and  O_13
REMARK    6  A    between atoms: O_13  and  C_14
REMARK    7  A    between atoms: N_17  and  C_18
REMARK    8  A    between atoms: C_21  and  N_22
REMARK                            x       y       z     vdW  Elec       q    Type
REMARK                         _______ _______ _______ _____ _____    ______ ____
ROOT
ATOM      1  O   UNL     1       2.076   4.888  18.088  0.00  0.00    +0.000 OA
ATOM      2  C   UNL     1       2.729   5.002  19.124  0.00  0.00    +0.000 C 
ATOM      3  N   UNL     1       2.909   6.169  19.849  0.00  0.00    +0.000 N 
ATOM      4  H   UNL     1       3.585   6.157  20.603  0.00  0.00    +0.000 HD
ENDROOT
BRANCH   3   5
ATOM      5  C   UNL     1       2.248   7.393  19.629  0.00  0.00    +0.000 A 
ATOM      6  C   UNL     1       1.457   8.017  20.591  0.00  0.00    +0.000 A 
ATOM      7  C   UNL     1       0.864   9.261  20.328  0.00  0.00    +0.000 A 
ATOM      8  C   UNL     1       1.025   9.924  19.104  0.00  0.00    +0.000 A 
ATOM      9  C   UNL     1       1.812   9.267  18.146  0.00  0.00    +0.000 A 
ATOM     10  C   UNL     1       2.423   8.032  18.403  0.00  0.00    +0.000 A 
BRANCH   8  11
ATOM     11  N   UNL     1       0.446  11.154  18.861  0.00  0.00    +0.000 N 
ATOM     12  C   UNL     1       1.243  12.317  18.469  0.00  0.00    +0.000 C 
ATOM     13  C   UNL     1       1.061  13.434  19.499  0.00  0.00    +0.000 C 
ATOM     14  C   UNL     1      -0.414  13.752  19.735  0.00  0.00    +0.000 C 
ATOM     15  C   UNL     1      -1.196  12.490  20.096  0.00  0.00    +0.000 C 
ATOM     16  C   UNL     1      -0.986  11.397  19.051  0.00  0.00    +0.000 C 
ENDBRANCH   8  11
ENDBRANCH   3   5
BRANCH   2  17
ATOM     17  C   UNL     1       3.445   3.791  19.717  0.00  0.00    +0.000 C 
BRANCH  17  18
ATOM     18  O   UNL     1       4.540   3.394  18.893  0.00  0.00    +0.000 OA
BRANCH  18  19
ATOM     19  C   UNL     1       5.540   4.304  18.773  0.00  0.00    +0.000 C 
ATOM     20  O   UNL     1       6.083   4.887  19.694  0.00  0.00    +0.000 OA
BRANCH  19  21
ATOM     21  C   UNL     1       5.891   4.452  17.336  0.00  0.00    +0.000 A 
ATOM     22  C   UNL     1       5.050   3.821  16.395  0.00  0.00    +0.000 A 
ATOM     23  C   UNL     1       5.285   3.930  15.025  0.00  0.00    +0.000 A 
ATOM     24  C   UNL     1       6.358   4.685  14.572  0.00  0.00    +0.000 A 
ATOM     25  C   UNL     1       7.185   5.334  15.490  0.00  0.00    +0.000 A 
ATOM     26  C   UNL     1       6.974   5.221  16.877  0.00  0.00    +0.000 A 
BRANCH  26  27
ATOM     27  O   UNL     1       7.855   5.970  17.604  0.00  0.00    +0.000 OA
BRANCH  27  28
ATOM     28  C   UNL     1       7.561   7.342  17.844  0.00  0.00    +0.000 C 
ATOM     29  F   UNL     1       8.295   8.149  17.042  0.00  0.00    +0.000 F 
ATOM     30  F   UNL     1       6.261   7.532  17.491  0.00  0.00    +0.000 F 
ENDBRANCH  27  28
ENDBRANCH  26  27
ENDBRANCH  19  21
ENDBRANCH  18  19
ENDBRANCH  17  18
ENDBRANCH   2  17
TORSDOF 8
ENDMDL
MODEL 2
REMARK VINA RESULT:      -8.0      1.713      2.402
REMARK  Name = 
REMARK  8 active torsions:
REMARK  status: ('A' for Active; 'I' for Inactive)
REMARK    1  A    between atoms: C_2  and  C_3
REMARK    2  A    between atoms: C_3  and  O_4
REMARK    3  A    between atoms: O_4  and  C_5
REMARK    4  A    between atoms: C_5  and  C_7
REMARK    5  A    between atoms: C_12  and  O_13
REMARK    6  A    between atoms: O_13  and  C_14
REMARK    7  A    between atoms: N_17  and  C_18
REMARK    8  A    between atoms: C_21  and  N_22
REMARK                            x       y       z     vdW  Elec       q    Type
REMARK                         _______ _______ _______ _____ _____    ______ ____
ROOT
ATOM      1  O   UNL     1       1.474   4.498  18.699  0.00  0.00    +0.000 OA
ATOM      2  C   UNL     1       2.421   4.689  19.460  0.00  0.00    +0.000 C 
ATOM      3  N   UNL     1       2.885   5.922  19.890  0.00  0.00    +0.000 N 
ATOM      4  H   UNL     1       3.759   5.946  20.400  0.00  0.00    +0.000 HD
ENDROOT
BRANCH   3   5
ATOM      5  C   UNL     1       2.261   7.165  19.672  0.00  0.00    +0.000 A 
ATOM      6  C   UNL     1       1.540   7.841  20.654  0.00  0.00    +0.000 A 
ATOM      7  C   UNL     1       0.983   9.101  20.389  0.00  0.00    +0.000 A 
ATOM      8  C   UNL     1       1.111   9.730  19.144  0.00  0.00    +0.000 A 
ATOM      9  C   UNL     1       1.827   9.023  18.167  0.00  0.00    +0.000 A 
ATOM     10  C   UNL     1       2.402   7.770  18.424  0.00  0.00    +0.000 A 
BRANCH   8  11
ATOM     11  N   UNL     1       0.568  10.976  18.899  0.00  0.00    +0.000 N 
ATOM     12  C   UNL     1       1.338  12.205  19.095  0.00  0.00    +0.000 C 
ATOM     13  C   UNL     1       0.639  13.089  20.130  0.00  0.00    +0.000 C 
ATOM     14  C   UNL     1      -0.825  13.333  19.769  0.00  0.00    +0.000 C 
ATOM     15  C   UNL     1      -1.560  12.014  19.534  0.00  0.00    +0.000 C 
ATOM     16  C   UNL     1      -0.831  11.157  18.503  0.00  0.00    +0.000 C 
ENDBRANCH   8  11
ENDBRANCH   3   5
BRANCH   2  17
ATOM     17  C   UNL     1       3.214   3.506  20.009  0.00  0.00    +0.000 C 
BRANCH  17  18
ATOM     18  O   UNL     1       4.589   3.599  19.639  0.00  0.00    +0.000 OA
BRANCH  18  19
ATOM     19  C   UNL     1       4.829   3.691  18.306  0.00  0.00    +0.000 C 
ATOM     20  O   UNL     1       4.318   3.000  17.443  0.00  0.00    +0.000 OA
BRANCH  19  21
ATOM     21  C   UNL     1       5.791   4.798  18.063  0.00  0.00    +0.000 A 
ATOM     22  C   UNL     1       6.658   5.147  19.120  0.00  0.00    +0.000 A 
ATOM     23  C   UNL     1       7.613   6.153  18.972  0.00  0.00    +0.000 A 
ATOM     24  C   UNL     1       7.725   6.817  17.758  0.00  0.00    +0.000 A 
ATOM     25  C   UNL     1       6.889   6.467  16.697  0.00  0.00    +0.000 A 
ATOM     26  C   UNL     1       5.909   5.467  16.833  0.00  0.00    +0.000 A 
BRANCH  26  27
ATOM     27  O   UNL     1       5.232   5.236  15.669  0.00  0.00    +0.000 OA
BRANCH  27  28
ATOM     28  C   UNL     1       5.873   4.505  14.631  0.00  0.00    +0.000 C 
ATOM     29  F   UNL     1       6.341   3.318  15.084  0.00  0.00    +0.000 F 
ATOM     30  F   UNL     1       4.916   4.212  13.709  0.00  0.00    +0.000 F 
ENDBRANCH  27  28
ENDBRANCH  26  27
ENDBRANCH  19  21
ENDBRANCH  18  19
ENDBRANCH  17  18
ENDBRANCH   2  17
TORSDOF 8
ENDMDL
MODEL 3
REMARK VINA RESULT:      -7.9      5.375      7.356
REMARK  Name = 
REMARK  8 active torsions:
REMARK  status: ('A' for Active; 'I' for Inactive)
REMARK    1  A    between atoms: C_2  and  C_3
REMARK    2  A    between atoms: C_3  and  O_4
REMARK    3  A    between atoms: O_4  and  C_5
REMARK    4  A    between atoms: C_5  and  C_7
REMARK    5  A    between atoms: C_12  and  O_13
REMARK    6  A    between atoms: O_13  and  C_14
REMARK    7  A    between atoms: N_17  and  C_18
REMARK    8  A    between atoms: C_21  and  N_22
REMARK                            x       y       z     vdW  Elec       q    Type
REMARK                         _______ _______ _______ _____ _____    ______ ____
ROOT
ATOM      1  O   UNL     1       7.579   8.914  17.328  0.00  0.00    +0.000 OA
ATOM      2  C   UNL     1       8.232   8.451  18.262  0.00  0.00    +0.000 C 
ATOM      3  N   UNL     1       9.150   9.143  19.035  0.00  0.00    +0.000 N 
ATOM      4  H   UNL     1       9.723   8.610  19.678  0.00  0.00    +0.000 HD
ENDROOT
BRANCH   3   5
ATOM      5  C   UNL     1       9.382  10.531  19.006  0.00  0.00    +0.000 A 
ATOM      6  C   UNL     1       9.152  11.368  20.096  0.00  0.00    +0.000 A 
ATOM      7  C   UNL     1       9.448  12.736  20.019  0.00  0.00    +0.000 A 
ATOM      8  C   UNL     1       9.973  13.326  18.862  0.00  0.00    +0.000 A 
ATOM      9  C   UNL     1      10.180  12.466  17.772  0.00  0.00    +0.000 A 
ATOM     10  C   UNL     1       9.903  11.094  17.842  0.00  0.00    +0.000 A 
BRANCH   8  11
ATOM     11  N   UNL     1      10.271  14.673  18.802  0.00  0.00    +0.000 N 
ATOM     12  C   UNL     1       9.300  15.695  19.194  0.00  0.00    +0.000 C 
ATOM     13  C   UNL     1       9.018  16.617  18.004  0.00  0.00    +0.000 C 
ATOM     14  C   UNL     1      10.306  17.187  17.412  0.00  0.00    +0.000 C 
ATOM     15  C   UNL     1      11.292  16.073  17.068  0.00  0.00    +0.000 C 
ATOM     16  C   UNL     1      11.544  15.171  18.274  0.00  0.00    +0.000 C 
ENDBRANCH   8  11
ENDBRANCH   3   5
BRANCH   2  17
ATOM     17  C   UNL     1       8.079   6.984  18.652  0.00  0.00    +0.000 C 
BRANCH  17  18
ATOM     18  O   UNL     1       7.068   6.352  17.867  0.00  0.00    +0.000 OA
BRANCH  18  19
ATOM     19  C   UNL     1       7.120   4.996  17.832  0.00  0.00    +0.000 C 
ATOM     20  O   UNL     1       8.137   4.325  17.823  0.00  0.00    +0.000 OA
BRANCH  19  21
ATOM     21  C   UNL     1       5.735   4.457  17.841  0.00  0.00    +0.000 A 
ATOM     22  C   UNL     1       5.195   4.078  19.089  0.00  0.00    +0.000 A 
ATOM     23  C   UNL     1       3.894   3.590  19.198  0.00  0.00    +0.000 A 
ATOM     24  C   UNL     1       3.104   3.486  18.061  0.00  0.00    +0.000 A 
ATOM     25  C   UNL     1       3.616   3.879  16.823  0.00  0.00    +0.000 A 
ATOM     26  C   UNL     1       4.933   4.357  16.692  0.00  0.00    +0.000 A 
BRANCH  26  27
ATOM     27  O   UNL     1       5.226   4.738  15.413  0.00  0.00    +0.000 OA
BRANCH  27  28
ATOM     28  C   UNL     1       6.033   3.888  14.606  0.00  0.00    +0.000 C 
ATOM     29  F   UNL     1       5.502   3.735  13.371  0.00  0.00    +0.000 F 
ATOM     30  F   UNL     1       7.224   4.524  14.436  0.00  0.00    +0.000 F 
ENDBRANCH  27  28
ENDBRANCH  26  27
ENDBRANCH  19  21
ENDBRANCH  18  19
ENDBRANCH  17  18
ENDBRANCH   2  17
TORSDOF 8
ENDMDL
MODEL 4
REMARK VINA RESULT:      -7.8      1.655      2.618
REMARK  Name = 
REMARK  8 active torsions:
REMARK  status: ('A' for Active; 'I' for Inactive)
REMARK    1  A    between atoms: C_2  and  C_3
REMARK    2  A    between atoms: C_3  and  O_4
REMARK    3  A    between atoms: O_4  and  C_5
REMARK    4  A    between atoms: C_5  and  C_7
REMARK    5  A    between atoms: C_12  and  O_13
REMARK    6  A    between atoms: O_13  and  C_14
REMARK    7  A    between atoms: N_17  and  C_18
REMARK    8  A    between atoms: C_21  and  N_22
REMARK                            x       y       z     vdW  Elec       q    Type
REMARK                         _______ _______ _______ _____ _____    ______ ____
ROOT
ATOM      1  O   UNL     1       1.744   4.405  18.645  0.00  0.00    +0.000 OA
ATOM      2  C   UNL     1       2.672   4.606  19.427  0.00  0.00    +0.000 C 
ATOM      3  N   UNL     1       3.094   5.842  19.889  0.00  0.00    +0.000 N 
ATOM      4  H   UNL     1       3.958   5.880  20.416  0.00  0.00    +0.000 HD
ENDROOT
BRANCH   3   5
ATOM      5  C   UNL     1       2.440   7.072  19.684  0.00  0.00    +0.000 A 
ATOM      6  C   UNL     1       2.467   7.758  18.471  0.00  0.00    +0.000 A 
ATOM      7  C   UNL     1       1.755   8.957  18.315  0.00  0.00    +0.000 A 
ATOM      8  C   UNL     1       1.001   9.522  19.352  0.00  0.00    +0.000 A 
ATOM      9  C   UNL     1       1.004   8.821  20.568  0.00  0.00    +0.000 A 
ATOM     10  C   UNL     1       1.698   7.614  20.731  0.00  0.00    +0.000 A 
BRANCH   8  11
ATOM     11  N   UNL     1       0.295  10.696  19.183  0.00  0.00    +0.000 N 
ATOM     12  C   UNL     1       0.477  11.840  20.078  0.00  0.00    +0.000 C 
ATOM     13  C   UNL     1      -0.856  12.181  20.750  0.00  0.00    +0.000 C 
ATOM     14  C   UNL     1      -1.973  12.373  19.726  0.00  0.00    +0.000 C 
ATOM     15  C   UNL     1      -2.079  11.166  18.797  0.00  0.00    +0.000 C 
ATOM     16  C   UNL     1      -0.732  10.852  18.150  0.00  0.00    +0.000 C 
ENDBRANCH   8  11
ENDBRANCH   3   5
BRANCH   2  17
ATOM     17  C   UNL     1       3.487   3.434  19.968  0.00  0.00    +0.000 C 
BRANCH  17  18
ATOM     18  O   UNL     1       4.853   3.536  19.567  0.00  0.00    +0.000 OA
BRANCH  18  19
ATOM     19  C   UNL     1       5.056   3.782  18.248  0.00  0.00    +0.000 C 
ATOM     20  O   UNL     1       4.550   3.168  17.325  0.00  0.00    +0.000 OA
BRANCH  19  21
ATOM     21  C   UNL     1       5.971   4.945  18.108  0.00  0.00    +0.000 A 
ATOM     22  C   UNL     1       6.877   5.189  19.162  0.00  0.00    +0.000 A 
ATOM     23  C   UNL     1       7.792   6.239  19.104  0.00  0.00    +0.000 A 
ATOM     24  C   UNL     1       7.826   7.056  17.982  0.00  0.00    +0.000 A 
ATOM     25  C   UNL     1       6.952   6.814  16.922  0.00  0.00    +0.000 A 
ATOM     26  C   UNL     1       6.010   5.769  16.971  0.00  0.00    +0.000 A 
BRANCH  26  27
ATOM     27  O   UNL     1       5.285   5.663  15.817  0.00  0.00    +0.000 OA
BRANCH  27  28
ATOM     28  C   UNL     1       5.855   4.983  14.704  0.00  0.00    +0.000 C 
ATOM     29  F   UNL     1       6.819   4.118  15.098  0.00  0.00    +0.000 F 
ATOM     30  F   UNL     1       4.864   4.228  14.157  0.00  0.00    +0.000 F 
ENDBRANCH  27  28
ENDBRANCH  26  27
ENDBRANCH  19  21
ENDBRANCH  18  19
ENDBRANCH  17  18
ENDBRANCH   2  17
TORSDOF 8
ENDMDL
MODEL 5
REMARK VINA RESULT:      -7.8      1.537      2.056
REMARK  Name = 
REMARK  8 active torsions:
REMARK  status: ('A' for Active; 'I' for Inactive)
REMARK    1  A    between atoms: C_2  and  C_3
REMARK    2  A    between atoms: C_3  and  O_4
REMARK    3  A    between atoms: O_4  and  C_5
REMARK    4  A    between atoms: C_5  and  C_7
REMARK    5  A    between atoms: C_12  and  O_13
REMARK    6  A    between atoms: O_13  and  C_14
REMARK    7  A    between atoms: N_17  and  C_18
REMARK    8  A    between atoms: C_21  and  N_22
REMARK                            x       y       z     vdW  Elec       q    Type
REMARK                         _______ _______ _______ _____ _____    ______ ____
ROOT
ATOM      1  O   UNL     1       0.875   5.174  20.328  0.00  0.00    +0.000 OA
ATOM      2  C   UNL     1       2.043   5.557  20.308  0.00  0.00    +0.000 C 
ATOM      3  N   UNL     1       2.467   6.875  20.264  0.00  0.00    +0.000 N 
ATOM      4  H   UNL     1       3.453   7.049  20.108  0.00  0.00    +0.000 HD
ENDROOT
BRANCH   3   5
ATOM      5  C   UNL     1       1.652   8.015  20.401  0.00  0.00    +0.000 A 
ATOM      6  C   UNL     1       1.402   8.905  19.358  0.00  0.00    +0.000 A 
ATOM      7  C   UNL     1       0.541   9.996  19.544  0.00  0.00    +0.000 A 
ATOM      8  C   UNL     1      -0.095  10.250  20.767  0.00  0.00    +0.000 A 
ATOM      9  C   UNL     1       0.186   9.349  21.806  0.00  0.00    +0.000 A 
ATOM     10  C   UNL     1       1.032   8.246  21.627  0.00  0.00    +0.000 A 
BRANCH   8  11
ATOM     11  N   UNL     1      -0.949  11.321  20.935  0.00  0.00    +0.000 N 
ATOM     12  C   UNL     1      -1.511  12.045  19.793  0.00  0.00    +0.000 C 
ATOM     13  C   UNL     1      -1.092  13.515  19.861  0.00  0.00    +0.000 C 
ATOM     14  C   UNL     1      -1.434  14.140  21.212  0.00  0.00    +0.000 C 
ATOM     15  C   UNL     1      -0.857  13.313  22.360  0.00  0.00    +0.000 C 
ATOM     16  C   UNL     1      -1.290  11.853  22.257  0.00  0.00    +0.000 C 
ENDBRANCH   8  11
ENDBRANCH   3   5
BRANCH   2  17
ATOM     17  C   UNL     1       3.183   4.542  20.318  0.00  0.00    +0.000 C 
BRANCH  17  18
ATOM     18  O   UNL     1       4.176   4.883  19.352  0.00  0.00    +0.000 OA
BRANCH  18  19
ATOM     19  C   UNL     1       4.995   3.868  18.974  0.00  0.00    +0.000 C 
ATOM     20  O   UNL     1       5.218   2.859  19.619  0.00  0.00    +0.000 OA
BRANCH  19  21
ATOM     21  C   UNL     1       5.550   4.168  17.629  0.00  0.00    +0.000 A 
ATOM     22  C   UNL     1       4.648   4.181  16.543  0.00  0.00    +0.000 A 
ATOM     23  C   UNL     1       5.073   4.482  15.250  0.00  0.00    +0.000 A 
ATOM     24  C   UNL     1       6.408   4.789  15.023  0.00  0.00    +0.000 A 
ATOM     25  C   UNL     1       7.307   4.802  16.090  0.00  0.00    +0.000 A 
ATOM     26  C   UNL     1       6.899   4.485  17.398  0.00  0.00    +0.000 A 
BRANCH  26  27
ATOM     27  O   UNL     1       7.912   4.606  18.307  0.00  0.00    +0.000 OA
BRANCH  27  28
ATOM     28  C   UNL     1       8.073   5.838  19.001  0.00  0.00    +0.000 C 
ATOM     29  F   UNL     1       7.348   6.825  18.424  0.00  0.00    +0.000 F 
ATOM     30  F   UNL     1       7.554   5.658  20.245  0.00  0.00    +0.000 F 
ENDBRANCH  27  28
ENDBRANCH  26  27
ENDBRANCH  19  21
ENDBRANCH  18  19
ENDBRANCH  17  18
ENDBRANCH   2  17
TORSDOF 8
ENDMDL
MODEL 6
REMARK VINA RESULT:      -7.8      3.725      5.507
REMARK  Name = 
REMARK  8 active torsions:
REMARK  status: ('A' for Active; 'I' for Inactive)
REMARK    1  A    between atoms: C_2  and  C_3
REMARK    2  A    between atoms: C_3  and  O_4
REMARK    3  A    between atoms: O_4  and  C_5
REMARK    4  A    between atoms: C_5  and  C_7
REMARK    5  A    between atoms: C_12  and  O_13
REMARK    6  A    between atoms: O_13  and  C_14
REMARK    7  A    between atoms: N_17  and  C_18
REMARK    8  A    between atoms: C_21  and  N_22
REMARK                            x       y       z     vdW  Elec       q    Type
REMARK                         _______ _______ _______ _____ _____    ______ ____
ROOT
ATOM      1  O   UNL     1       0.442   9.436  19.886  0.00  0.00    +0.000 OA
ATOM      2  C   UNL     1       0.702   9.621  18.698  0.00  0.00    +0.000 C 
ATOM      3  N   UNL     1      -0.188  10.048  17.726  0.00  0.00    +0.000 N 
ATOM      4  H   UNL     1       0.119  10.022  16.761  0.00  0.00    +0.000 HD
ENDROOT
BRANCH   3   5
ATOM      5  C   UNL     1      -1.500  10.506  17.946  0.00  0.00    +0.000 A 
ATOM      6  C   UNL     1      -2.630   9.844  17.471  0.00  0.00    +0.000 A 
ATOM      7  C   UNL     1      -3.915  10.325  17.765  0.00  0.00    +0.000 A 
ATOM      8  C   UNL     1      -4.126  11.480  18.530  0.00  0.00    +0.000 A 
ATOM      9  C   UNL     1      -2.972  12.138  18.983  0.00  0.00    +0.000 A 
ATOM     10  C   UNL     1      -1.684  11.658  18.709  0.00  0.00    +0.000 A 
BRANCH   8  11
ATOM     11  N   UNL     1      -5.395  11.938  18.823  0.00  0.00    +0.000 N 
ATOM     12  C   UNL     1      -6.557  11.549  18.022  0.00  0.00    +0.000 C 
ATOM     13  C   UNL     1      -7.211  12.799  17.428  0.00  0.00    +0.000 C 
ATOM     14  C   UNL     1      -7.524  13.839  18.502  0.00  0.00    +0.000 C 
ATOM     15  C   UNL     1      -6.282  14.166  19.328  0.00  0.00    +0.000 C 
ATOM     16  C   UNL     1      -5.654  12.897  19.899  0.00  0.00    +0.000 C 
ENDBRANCH   8  11
ENDBRANCH   3   5
BRANCH   2  17
ATOM     17  C   UNL     1       2.112   9.363  18.174  0.00  0.00    +0.000 C 
BRANCH  17  18
ATOM     18  O   UNL     1       2.223   8.045  17.637  0.00  0.00    +0.000 OA
BRANCH  18  19
ATOM     19  C   UNL     1       2.813   7.132  18.450  0.00  0.00    +0.000 C 
ATOM     20  O   UNL     1       2.693   7.078  19.662  0.00  0.00    +0.000 OA
BRANCH  19  21
ATOM     21  C   UNL     1       3.602   6.184  17.622  0.00  0.00    +0.000 A 
ATOM     22  C   UNL     1       4.517   6.735  16.699  0.00  0.00    +0.000 A 
ATOM     23  C   UNL     1       5.321   5.922  15.901  0.00  0.00    +0.000 A 
ATOM     24  C   UNL     1       5.234   4.542  16.024  0.00  0.00    +0.000 A 
ATOM     25  C   UNL     1       4.351   3.983  16.948  0.00  0.00    +0.000 A 
ATOM     26  C   UNL     1       3.520   4.787  17.749  0.00  0.00    +0.000 A 
BRANCH  26  27
ATOM     27  O   UNL     1       2.769   4.055  18.625  0.00  0.00    +0.000 OA
BRANCH  27  28
ATOM     28  C   UNL     1       1.384   3.867  18.358  0.00  0.00    +0.000 C 
ATOM     29  F   UNL     1       1.019   4.476  17.205  0.00  0.00    +0.000 F 
ATOM     30  F   UNL     1       1.200   2.533  18.161  0.00  0.00    +0.000 F 
ENDBRANCH  27  28
ENDBRANCH  26  27
ENDBRANCH  19  21
ENDBRANCH  18  19
ENDBRANCH  17  18
ENDBRANCH   2  17
TORSDOF 8
ENDMDL
MODEL 7
REMARK VINA RESULT:      -7.7      3.675      5.399
REMARK  Name = 
REMARK  8 active torsions:
REMARK  status: ('A' for Active; 'I' for Inactive)
REMARK    1  A    between atoms: C_2  and  C_3
REMARK    2  A    between atoms: C_3  and  O_4
REMARK    3  A    between atoms: O_4  and  C_5
REMARK    4  A    between atoms: C_5  and  C_7
REMARK    5  A    between atoms: C_12  and  O_13
REMARK    6  A    between atoms: O_13  and  C_14
REMARK    7  A    between atoms: N_17  and  C_18
REMARK    8  A    between atoms: C_21  and  N_22
REMARK                            x       y       z     vdW  Elec       q    Type
REMARK                         _______ _______ _______ _____ _____    ______ ____
ROOT
ATOM      1  O   UNL     1       0.528   9.218  19.791  0.00  0.00    +0.000 OA
ATOM      2  C   UNL     1       0.810   9.483  18.624  0.00  0.00    +0.000 C 
ATOM      3  N   UNL     1      -0.057   9.997  17.673  0.00  0.00    +0.000 N 
ATOM      4  H   UNL     1       0.264  10.035  16.713  0.00  0.00    +0.000 HD
ENDROOT
BRANCH   3   5
ATOM      5  C   UNL     1      -1.365  10.463  17.908  0.00  0.00    +0.000 A 
ATOM      6  C   UNL     1      -2.502   9.829  17.414  0.00  0.00    +0.000 A 
ATOM      7  C   UNL     1      -3.781  10.315  17.724  0.00  0.00    +0.000 A 
ATOM      8  C   UNL     1      -3.978  11.449  18.523  0.00  0.00    +0.000 A 
ATOM      9  C   UNL     1      -2.817  12.080  18.994  0.00  0.00    +0.000 A 
ATOM     10  C   UNL     1      -1.534  11.594  18.705  0.00  0.00    +0.000 A 
BRANCH   8  11
ATOM     11  N   UNL     1      -5.242  11.912  18.830  0.00  0.00    +0.000 N 
ATOM     12  C   UNL     1      -5.446  13.130  19.616  0.00  0.00    +0.000 C 
ATOM     13  C   UNL     1      -6.231  12.795  20.887  0.00  0.00    +0.000 C 
ATOM     14  C   UNL     1      -7.523  12.043  20.572  0.00  0.00    +0.000 C 
ATOM     15  C   UNL     1      -7.246  10.811  19.714  0.00  0.00    +0.000 C 
ATOM     16  C   UNL     1      -6.456  11.181  18.461  0.00  0.00    +0.000 C 
ENDBRANCH   8  11
ENDBRANCH   3   5
BRANCH   2  17
ATOM     17  C   UNL     1       2.223   9.236  18.101  0.00  0.00    +0.000 C 
BRANCH  17  18
ATOM     18  O   UNL     1       2.335   7.932  17.534  0.00  0.00    +0.000 OA
BRANCH  18  19
ATOM     19  C   UNL     1       2.917   6.998  18.329  0.00  0.00    +0.000 C 
ATOM     20  O   UNL     1       2.763   6.896  19.533  0.00  0.00    +0.000 OA
BRANCH  19  21
ATOM     21  C   UNL     1       3.748   6.096  17.489  0.00  0.00    +0.000 A 
ATOM     22  C   UNL     1       4.643   6.699  16.579  0.00  0.00    +0.000 A 
ATOM     23  C   UNL     1       5.483   5.932  15.773  0.00  0.00    +0.000 A 
ATOM     24  C   UNL     1       5.451   4.547  15.873  0.00  0.00    +0.000 A 
ATOM     25  C   UNL     1       4.587   3.938  16.784  0.00  0.00    +0.000 A 
ATOM     26  C   UNL     1       3.720   4.695  17.593  0.00  0.00    +0.000 A 
BRANCH  26  27
ATOM     27  O   UNL     1       2.996   3.919  18.454  0.00  0.00    +0.000 OA
BRANCH  27  28
ATOM     28  C   UNL     1       1.780   3.336  18.001  0.00  0.00    +0.000 C 
ATOM     29  F   UNL     1       1.952   2.032  17.678  0.00  0.00    +0.000 F 
ATOM     30  F   UNL     1       0.918   3.359  19.053  0.00  0.00    +0.000 F 
ENDBRANCH  27  28
ENDBRANCH  26  27
ENDBRANCH  19  21
ENDBRANCH  18  19
ENDBRANCH  17  18
ENDBRANCH   2  17
TORSDOF 8
ENDMDL
MODEL 8
REMARK VINA RESULT:      -7.7      1.639      2.618
REMARK  Name = 
REMARK  8 active torsions:
REMARK  status: ('A' for Active; 'I' for Inactive)
REMARK    1  A    between atoms: C_2  and  C_3
REMARK    2  A    between atoms: C_3  and  O_4
REMARK    3  A    between atoms: O_4  and  C_5
REMARK    4  A    between atoms: C_5  and  C_7
REMARK    5  A    between atoms: C_12  and  O_13
REMARK    6  A    between atoms: O_13  and  C_14
REMARK    7  A    between atoms: N_17  and  C_18
REMARK    8  A    between atoms: C_21  and  N_22
REMARK                            x       y       z     vdW  Elec       q    Type
REMARK                         _______ _______ _______ _____ _____    ______ ____
ROOT
ATOM      1  O   UNL     1       1.303   4.615  18.048  0.00  0.00    +0.000 OA
ATOM      2  C   UNL     1       2.361   4.681  18.670  0.00  0.00    +0.000 C 
ATOM      3  N   UNL     1       2.902   5.823  19.239  0.00  0.00    +0.000 N 
ATOM      4  H   UNL     1       3.847   5.769  19.599  0.00  0.00    +0.000 HD
ENDROOT
BRANCH   3   5
ATOM      5  C   UNL     1       2.266   7.073  19.355  0.00  0.00    +0.000 A 
ATOM      6  C   UNL     1       1.654   7.513  20.527  0.00  0.00    +0.000 A 
ATOM      7  C   UNL     1       1.079   8.791  20.594  0.00  0.00    +0.000 A 
ATOM      8  C   UNL     1       1.081   9.672  19.505  0.00  0.00    +0.000 A 
ATOM      9  C   UNL     1       1.689   9.200  18.332  0.00  0.00    +0.000 A 
ATOM     10  C   UNL     1       2.281   7.931  18.257  0.00  0.00    +0.000 A 
BRANCH   8  11
ATOM     11  N   UNL     1       0.523  10.932  19.587  0.00  0.00    +0.000 N 
ATOM     12  C   UNL     1      -0.923  11.141  19.489  0.00  0.00    +0.000 C 
ATOM     13  C   UNL     1      -1.229  12.057  18.301  0.00  0.00    +0.000 C 
ATOM     14  C   UNL     1      -0.423  13.353  18.363  0.00  0.00    +0.000 C 
ATOM     15  C   UNL     1       1.069  13.065  18.510  0.00  0.00    +0.000 C 
ATOM     16  C   UNL     1       1.336  12.145  19.699  0.00  0.00    +0.000 C 
ENDBRANCH   8  11
ENDBRANCH   3   5
BRANCH   2  17
ATOM     17  C   UNL     1       3.218   3.432  18.859  0.00  0.00    +0.000 C 
BRANCH  17  18
ATOM     18  O   UNL     1       4.606   3.761  18.857  0.00  0.00    +0.000 OA
BRANCH  18  19
ATOM     19  C   UNL     1       5.154   3.971  17.633  0.00  0.00    +0.000 C 
ATOM     20  O   UNL     1       4.873   3.361  16.616  0.00  0.00    +0.000 OA
BRANCH  19  21
ATOM     21  C   UNL     1       6.129   5.089  17.722  0.00  0.00    +0.000 A 
ATOM     22  C   UNL     1       6.720   5.335  18.980  0.00  0.00    +0.000 A 
ATOM     23  C   UNL     1       7.667   6.343  19.152  0.00  0.00    +0.000 A 
ATOM     24  C   UNL     1       8.050   7.115  18.063  0.00  0.00    +0.000 A 
ATOM     25  C   UNL     1       7.491   6.869  16.808  0.00  0.00    +0.000 A 
ATOM     26  C   UNL     1       6.521   5.867  16.620  0.00  0.00    +0.000 A 
BRANCH  26  27
ATOM     27  O   UNL     1       6.139   5.747  15.314  0.00  0.00    +0.000 OA
BRANCH  27  28
ATOM     28  C   UNL     1       6.766   4.763  14.498  0.00  0.00    +0.000 C 
ATOM     29  F   UNL     1       5.863   4.132  13.711  0.00  0.00    +0.000 F 
ATOM     30  F   UNL     1       7.607   5.428  13.660  0.00  0.00    +0.000 F 
ENDBRANCH  27  28
ENDBRANCH  26  27
ENDBRANCH  19  21
ENDBRANCH  18  19
ENDBRANCH  17  18
ENDBRANCH   2  17
TORSDOF 8
ENDMDL
MODEL 9
REMARK VINA RESULT:      -7.7      0.894      1.375
REMARK  Name = 
REMARK  8 active torsions:
REMARK  status: ('A' for Active; 'I' for Inactive)
REMARK    1  A    between atoms: C_2  and  C_3
REMARK    2  A    between atoms: C_3  and  O_4
REMARK    3  A    between atoms: O_4  and  C_5
REMARK    4  A    between atoms: C_5  and  C_7
REMARK    5  A    between atoms: C_12  and  O_13
REMARK    6  A    between atoms: O_13  and  C_14
REMARK    7  A    between atoms: N_17  and  C_18
REMARK    8  A    between atoms: C_21  and  N_22
REMARK                            x       y       z     vdW  Elec       q    Type
REMARK                         _______ _______ _______ _____ _____    ______ ____
ROOT
ATOM      1  O   UNL     1       1.312   4.922  20.764  0.00  0.00    +0.000 OA
ATOM      2  C   UNL     1       2.242   4.993  19.964  0.00  0.00    +0.000 C 
ATOM      3  N   UNL     1       2.601   6.110  19.228  0.00  0.00    +0.000 N 
ATOM      4  H   UNL     1       3.296   5.993  18.500  0.00  0.00    +0.000 HD
ENDROOT
BRANCH   3   5
ATOM      5  C   UNL     1       2.078   7.408  19.380  0.00  0.00    +0.000 A 
ATOM      6  C   UNL     1       1.529   7.875  20.573  0.00  0.00    +0.000 A 
ATOM      7  C   UNL     1       1.067   9.195  20.676  0.00  0.00    +0.000 A 
ATOM      8  C   UNL     1       1.124  10.095  19.603  0.00  0.00    +0.000 A 
ATOM      9  C   UNL     1       1.666   9.596  18.409  0.00  0.00    +0.000 A 
ATOM     10  C   UNL     1       2.145   8.284  18.298  0.00  0.00    +0.000 A 
BRANCH   8  11
ATOM     11  N   UNL     1       0.677  11.396  19.720  0.00  0.00    +0.000 N 
ATOM     12  C   UNL     1      -0.738  11.709  19.924  0.00  0.00    +0.000 C 
ATOM     13  C   UNL     1      -1.241  12.584  18.772  0.00  0.00    +0.000 C 
ATOM     14  C   UNL     1      -0.361  13.817  18.573  0.00  0.00    +0.000 C 
ATOM     15  C   UNL     1       1.106  13.424  18.412  0.00  0.00    +0.000 C 
ATOM     16  C   UNL     1       1.570  12.548  19.573  0.00  0.00    +0.000 C 
ENDBRANCH   8  11
ENDBRANCH   3   5
BRANCH   2  17
ATOM     17  C   UNL     1       3.117   3.771  19.696  0.00  0.00    +0.000 C 
BRANCH  17  18
ATOM     18  O   UNL     1       3.817   3.906  18.460  0.00  0.00    +0.000 OA
BRANCH  18  19
ATOM     19  C   UNL     1       5.157   4.091  18.566  0.00  0.00    +0.000 C 
ATOM     20  O   UNL     1       5.806   4.009  19.594  0.00  0.00    +0.000 OA
BRANCH  19  21
ATOM     21  C   UNL     1       5.715   4.378  17.219  0.00  0.00    +0.000 A 
ATOM     22  C   UNL     1       5.072   3.785  16.111  0.00  0.00    +0.000 A 
ATOM     23  C   UNL     1       5.507   4.021  14.808  0.00  0.00    +0.000 A 
ATOM     24  C   UNL     1       6.586   4.868  14.589  0.00  0.00    +0.000 A 
ATOM     25  C   UNL     1       7.218   5.479  15.673  0.00  0.00    +0.000 A 
ATOM     26  C   UNL     1       6.803   5.239  16.996  0.00  0.00    +0.000 A 
BRANCH  26  27
ATOM     27  O   UNL     1       7.511   5.970  17.907  0.00  0.00    +0.000 OA
BRANCH  27  28
ATOM     28  C   UNL     1       7.806   7.332  17.621  0.00  0.00    +0.000 C 
ATOM     29  F   UNL     1       6.677   8.078  17.564  0.00  0.00    +0.000 F 
ATOM     30  F   UNL     1       8.527   7.807  18.672  0.00  0.00    +0.000 F 
ENDBRANCH  27  28
ENDBRANCH  26  27
ENDBRANCH  19  21
ENDBRANCH  18  19
ENDBRANCH  17  18
ENDBRANCH   2  17
TORSDOF 8
ENDMDL
