MODEL 1
REMARK VINA RESULT:      -7.3      0.000      0.000
REMARK  Name = 
REMARK  4 active torsions:
REMARK  status: ('A' for Active; 'I' for Inactive)
REMARK    1  A    between atoms: C_1  and  N_2
REMARK    2  A    between atoms: N_2  and  C_3
REMARK    3  A    between atoms: N_2  and  C_4
REMARK    4  A    between atoms: C_7  and  C_8
REMARK                            x       y       z     vdW  Elec       q    Type
REMARK                         _______ _______ _______ _____ _____    ______ ____
ROOT
ATOM      1  C   UNL     1       2.647   7.117  18.566  0.00  0.00    +0.000 A 
ATOM      2  C   UNL     1       3.579   7.515  17.636  0.00  0.00    +0.000 A 
ATOM      3  N   UNL     1       4.116   6.363  17.132  0.00  0.00    +0.000 N 
ATOM      4  C   UNL     1       5.107   6.218  16.170  0.00  0.00    +0.000 A 
ATOM      5  C   UNL     1       5.490   4.983  15.806  0.00  0.00    +0.000 A 
ATOM      6 BR   UNL     1       6.814   4.681  14.536  0.00  0.00    +0.000 Br
ATOM      7  C   UNL     1       4.837   3.838  16.428  0.00  0.00    +0.000 A 
ATOM      8  C   UNL     1       3.875   3.982  17.368  0.00  0.00    +0.000 A 
ATOM      9  I   UNL     1       2.974   2.318  18.201  0.00  0.00    +0.000 I 
ATOM     10  C   UNL     1       3.480   5.301  17.768  0.00  0.00    +0.000 A 
ATOM     11  N   UNL     1       2.608   5.744  18.657  0.00  0.00    +0.000 NA
ENDROOT
BRANCH   1  15
ATOM     12  C   UNL     1       0.384   9.864  21.005  0.00  0.00    +0.000 A 
ATOM     13  C   UNL     1       0.675  10.131  19.657  0.00  0.00    +0.000 A 
ATOM     14  C   UNL     1       1.395   9.235  18.856  0.00  0.00    +0.000 A 
ATOM     15  C   UNL     1       1.842   8.018  19.371  0.00  0.00    +0.000 A 
ATOM     16  C   UNL     1       1.518   7.700  20.688  0.00  0.00    +0.000 A 
ATOM     17  C   UNL     1       0.806   8.613  21.487  0.00  0.00    +0.000 A 
BRANCH  12  19
ATOM     18  C   UNL     1      -0.123  12.212  21.606  0.00  0.00    +0.000 C 
ATOM     19  N   UNL     1      -0.300  10.778  21.806  0.00  0.00    +0.000 N 
ATOM     20  C   UNL     1      -0.838  10.348  23.092  0.00  0.00    +0.000 C 
ENDBRANCH  12  19
ENDBRANCH   1  15
TORSDOF 2
ENDMDL
MODEL 2
REMARK VINA RESULT:      -7.2      0.386      1.348
REMARK  Name = 
REMARK  4 active torsions:
REMARK  status: ('A' for Active; 'I' for Inactive)
REMARK    1  A    between atoms: C_1  and  N_2
REMARK    2  A    between atoms: N_2  and  C_3
REMARK    3  A    between atoms: N_2  and  C_4
REMARK    4  A    between atoms: C_7  and  C_8
REMARK                            x       y       z     vdW  Elec       q    Type
REMARK                         _______ _______ _______ _____ _____    ______ ____
ROOT
ATOM      1  C   UNL     1       2.595   7.256  18.629  0.00  0.00    +0.000 A 
ATOM      2  C   UNL     1       3.560   7.595  17.709  0.00  0.00    +0.000 A 
ATOM      3  N   UNL     1       4.026   6.412  17.207  0.00  0.00    +0.000 N 
ATOM      4  C   UNL     1       5.016   6.205  16.255  0.00  0.00    +0.000 A 
ATOM      5  C   UNL     1       5.321   4.950  15.890  0.00  0.00    +0.000 A 
ATOM      6 BR   UNL     1       6.635   4.565  14.633  0.00  0.00    +0.000 Br
ATOM      7  C   UNL     1       4.589   3.847  16.502  0.00  0.00    +0.000 A 
ATOM      8  C   UNL     1       3.628   4.051  17.433  0.00  0.00    +0.000 A 
ATOM      9  I   UNL     1       2.613   2.447  18.251  0.00  0.00    +0.000 I 
ATOM     10  C   UNL     1       3.316   5.392  17.834  0.00  0.00    +0.000 A 
ATOM     11  N   UNL     1       2.465   5.888  18.716  0.00  0.00    +0.000 NA
ENDROOT
BRANCH   1  15
ATOM     12  C   UNL     1       0.226  10.003  20.966  0.00  0.00    +0.000 A 
ATOM     13  C   UNL     1       0.764   8.828  21.517  0.00  0.00    +0.000 A 
ATOM     14  C   UNL     1       1.547   7.941  20.767  0.00  0.00    +0.000 A 
ATOM     15  C   UNL     1       1.841   8.205  19.429  0.00  0.00    +0.000 A 
ATOM     16  C   UNL     1       1.370   9.392  18.871  0.00  0.00    +0.000 A 
ATOM     17  C   UNL     1       0.573  10.268  19.630  0.00  0.00    +0.000 A 
BRANCH  12  19
ATOM     18  C   UNL     1      -0.983  10.509  23.067  0.00  0.00    +0.000 C 
ATOM     19  N   UNL     1      -0.585  10.861  21.708  0.00  0.00    +0.000 N 
ATOM     20  C   UNL     1      -1.384  11.871  21.022  0.00  0.00    +0.000 C 
ENDBRANCH  12  19
ENDBRANCH   1  15
TORSDOF 2
ENDMDL
MODEL 3
REMARK VINA RESULT:      -7.0      1.661      2.634
REMARK  Name = 
REMARK  4 active torsions:
REMARK  status: ('A' for Active; 'I' for Inactive)
REMARK    1  A    between atoms: C_1  and  N_2
REMARK    2  A    between atoms: N_2  and  C_3
REMARK    3  A    between atoms: N_2  and  C_4
REMARK    4  A    between atoms: C_7  and  C_8
REMARK                            x       y       z     vdW  Elec       q    Type
REMARK                         _______ _______ _______ _____ _____    ______ ____
ROOT
ATOM      1  C   UNL     1       1.589   7.838  20.274  0.00  0.00    +0.000 A 
ATOM      2  C   UNL     1       2.288   7.921  19.091  0.00  0.00    +0.000 A 
ATOM      3  N   UNL     1       2.745   6.658  18.840  0.00  0.00    +0.000 N 
ATOM      4  C   UNL     1       3.514   6.212  17.773  0.00  0.00    +0.000 A 
ATOM      5  C   UNL     1       3.854   4.915  17.708  0.00  0.00    +0.000 A 
ATOM      6 BR   UNL     1       4.887   4.220  16.328  0.00  0.00    +0.000 Br
ATOM      7  C   UNL     1       3.389   4.018  18.760  0.00  0.00    +0.000 A 
ATOM      8  C   UNL     1       2.645   4.456  19.800  0.00  0.00    +0.000 A 
ATOM      9  I   UNL     1       2.001   3.132  21.252  0.00  0.00    +0.000 I 
ATOM     10  C   UNL     1       2.297   5.845  19.877  0.00  0.00    +0.000 A 
ATOM     11  N   UNL     1       1.619   6.552  20.765  0.00  0.00    +0.000 NA
ENDROOT
BRANCH   1  15
ATOM     12  C   UNL     1      -0.469  11.114  22.184  0.00  0.00    +0.000 A 
ATOM     13  C   UNL     1      -0.281   9.878  22.824  0.00  0.00    +0.000 A 
ATOM     14  C   UNL     1       0.401   8.816  22.214  0.00  0.00    +0.000 A 
ATOM     15  C   UNL     1       0.943   8.956  20.936  0.00  0.00    +0.000 A 
ATOM     16  C   UNL     1       0.822  10.189  20.300  0.00  0.00    +0.000 A 
ATOM     17  C   UNL     1       0.125  11.243  20.916  0.00  0.00    +0.000 A 
BRANCH  12  19
ATOM     18  C   UNL     1      -2.548  11.938  23.245  0.00  0.00    +0.000 C 
ATOM     19  N   UNL     1      -1.182  12.153  22.781  0.00  0.00    +0.000 N 
ATOM     20  C   UNL     1      -0.763  13.533  22.564  0.00  0.00    +0.000 C 
ENDBRANCH  12  19
ENDBRANCH   1  15
TORSDOF 2
ENDMDL
MODEL 4
REMARK VINA RESULT:      -7.0      1.688      2.466
REMARK  Name = 
REMARK  4 active torsions:
REMARK  status: ('A' for Active; 'I' for Inactive)
REMARK    1  A    between atoms: C_1  and  N_2
REMARK    2  A    between atoms: N_2  and  C_3
REMARK    3  A    between atoms: N_2  and  C_4
REMARK    4  A    between atoms: C_7  and  C_8
REMARK                            x       y       z     vdW  Elec       q    Type
REMARK                         _______ _______ _______ _____ _____    ______ ____
ROOT
ATOM      1  C   UNL     1       1.450   7.828  20.310  0.00  0.00    +0.000 A 
ATOM      2  C   UNL     1       2.196   7.960  19.161  0.00  0.00    +0.000 A 
ATOM      3  N   UNL     1       2.736   6.727  18.925  0.00  0.00    +0.000 N 
ATOM      4  C   UNL     1       3.577   6.334  17.892  0.00  0.00    +0.000 A 
ATOM      5  C   UNL     1       3.993   5.059  17.836  0.00  0.00    +0.000 A 
ATOM      6 BR   UNL     1       5.127   4.434  16.502  0.00  0.00    +0.000 Br
ATOM      7  C   UNL     1       3.534   4.129  18.861  0.00  0.00    +0.000 A 
ATOM      8  C   UNL     1       2.718   4.515  19.869  0.00  0.00    +0.000 A 
ATOM      9  I   UNL     1       2.086   3.146  21.282  0.00  0.00    +0.000 I 
ATOM     10  C   UNL     1       2.289   5.882  19.936  0.00  0.00    +0.000 A 
ATOM     11  N   UNL     1       1.532   6.542  20.795  0.00  0.00    +0.000 NA
ENDROOT
BRANCH   1  15
ATOM     12  C   UNL     1      -0.613  11.089  22.239  0.00  0.00    +0.000 A 
ATOM     13  C   UNL     1      -0.317  11.103  20.867  0.00  0.00    +0.000 A 
ATOM     14  C   UNL     1       0.339  10.040  20.232  0.00  0.00    +0.000 A 
ATOM     15  C   UNL     1       0.711   8.902  20.948  0.00  0.00    +0.000 A 
ATOM     16  C   UNL     1       0.378   8.834  22.299  0.00  0.00    +0.000 A 
ATOM     17  C   UNL     1      -0.268   9.913  22.928  0.00  0.00    +0.000 A 
BRANCH  12  19
ATOM     18  C   UNL     1      -2.594  12.043  23.378  0.00  0.00    +0.000 C 
ATOM     19  N   UNL     1      -1.231  12.167  22.872  0.00  0.00    +0.000 N 
ATOM     20  C   UNL     1      -0.723  13.518  22.657  0.00  0.00    +0.000 C 
ENDBRANCH  12  19
ENDBRANCH   1  15
TORSDOF 2
ENDMDL
MODEL 5
REMARK VINA RESULT:      -6.7      0.996      1.049
REMARK  Name = 
REMARK  4 active torsions:
REMARK  status: ('A' for Active; 'I' for Inactive)
REMARK    1  A    between atoms: C_1  and  N_2
REMARK    2  A    between atoms: N_2  and  C_3
REMARK    3  A    between atoms: N_2  and  C_4
REMARK    4  A    between atoms: C_7  and  C_8
REMARK                            x       y       z     vdW  Elec       q    Type
REMARK                         _______ _______ _______ _____ _____    ______ ____
ROOT
ATOM      1  C   UNL     1       2.268   7.471  19.283  0.00  0.00    +0.000 A 
ATOM      2  C   UNL     1       3.017   7.692  18.150  0.00  0.00    +0.000 A 
ATOM      3  N   UNL     1       3.619   6.498  17.865  0.00  0.00    +0.000 N 
ATOM      4  C   UNL     1       4.487   6.193  16.825  0.00  0.00    +0.000 A 
ATOM      5  C   UNL     1       4.966   4.943  16.717  0.00  0.00    +0.000 A 
ATOM      6 BR   UNL     1       6.140   4.435  15.368  0.00  0.00    +0.000 Br
ATOM      7  C   UNL     1       4.543   3.947  17.694  0.00  0.00    +0.000 A 
ATOM      8  C   UNL     1       3.701   4.248  18.709  0.00  0.00    +0.000 A 
ATOM      9  I   UNL     1       3.124   2.787  20.052  0.00  0.00    +0.000 I 
ATOM     10  C   UNL     1       3.204   5.588  18.832  0.00  0.00    +0.000 A 
ATOM     11  N   UNL     1       2.408   6.171  19.712  0.00  0.00    +0.000 NA
ENDROOT
BRANCH   1  15
ATOM     12  C   UNL     1       0.031  10.542  21.328  0.00  0.00    +0.000 A 
ATOM     13  C   UNL     1       0.297  10.607  19.951  0.00  0.00    +0.000 A 
ATOM     14  C   UNL     1       1.009   9.605  19.279  0.00  0.00    +0.000 A 
ATOM     15  C   UNL     1       1.471   8.479  19.960  0.00  0.00    +0.000 A 
ATOM     16  C   UNL     1       1.172   8.359  21.316  0.00  0.00    +0.000 A 
ATOM     17  C   UNL     1       0.468   9.377  21.982  0.00  0.00    +0.000 A 
BRANCH  12  19
ATOM     18  C   UNL     1      -0.217  12.949  21.853  0.00  0.00    +0.000 C 
ATOM     19  N   UNL     1      -0.646  11.562  21.997  0.00  0.00    +0.000 N 
ATOM     20  C   UNL     1      -1.476  11.239  23.153  0.00  0.00    +0.000 C 
ENDBRANCH  12  19
ENDBRANCH   1  15
TORSDOF 2
ENDMDL
MODEL 6
REMARK VINA RESULT:      -6.4      3.915      7.701
REMARK  Name = 
REMARK  4 active torsions:
REMARK  status: ('A' for Active; 'I' for Inactive)
REMARK    1  A    between atoms: C_1  and  N_2
REMARK    2  A    between atoms: N_2  and  C_3
REMARK    3  A    between atoms: N_2  and  C_4
REMARK    4  A    between atoms: C_7  and  C_8
REMARK                            x       y       z     vdW  Elec       q    Type
REMARK                         _______ _______ _______ _____ _____    ______ ____
ROOT
ATOM      1  C   UNL     1       1.910   8.583  18.714  0.00  0.00    +0.000 A 
ATOM      2  C   UNL     1       1.849   9.777  18.033  0.00  0.00    +0.000 A 
ATOM      3  N   UNL     1       1.182  10.640  18.857  0.00  0.00    +0.000 N 
ATOM      4  C   UNL     1       0.850  11.969  18.632  0.00  0.00    +0.000 A 
ATOM      5  C   UNL     1       0.193  12.651  19.584  0.00  0.00    +0.000 A 
ATOM      6 BR   UNL     1      -0.307  14.429  19.377  0.00  0.00    +0.000 Br
ATOM      7  C   UNL     1      -0.137  11.967  20.829  0.00  0.00    +0.000 A 
ATOM      8  C   UNL     1       0.184  10.671  21.045  0.00  0.00    +0.000 A 
ATOM      9  I   UNL     1      -0.296   9.763  22.838  0.00  0.00    +0.000 I 
ATOM     10  C   UNL     1       0.870   9.940  20.019  0.00  0.00    +0.000 A 
ATOM     11  N   UNL     1       1.282   8.687  19.934  0.00  0.00    +0.000 NA
ENDROOT
BRANCH   1  15
ATOM     12  C   UNL     1       3.782   4.948  17.335  0.00  0.00    +0.000 A 
ATOM     13  C   UNL     1       2.500   4.954  17.909  0.00  0.00    +0.000 A 
ATOM     14  C   UNL     1       1.881   6.134  18.344  0.00  0.00    +0.000 A 
ATOM     15  C   UNL     1       2.518   7.367  18.204  0.00  0.00    +0.000 A 
ATOM     16  C   UNL     1       3.766   7.399  17.584  0.00  0.00    +0.000 A 
ATOM     17  C   UNL     1       4.383   6.207  17.165  0.00  0.00    +0.000 A 
BRANCH  12  19
ATOM     18  C   UNL     1       4.197   2.533  17.694  0.00  0.00    +0.000 C 
ATOM     19  N   UNL     1       4.407   3.766  16.941  0.00  0.00    +0.000 N 
ATOM     20  C   UNL     1       5.580   3.824  16.075  0.00  0.00    +0.000 C 
ENDBRANCH  12  19
ENDBRANCH   1  15
TORSDOF 2
ENDMDL
MODEL 7
REMARK VINA RESULT:      -6.4      4.033      7.419
REMARK  Name = 
REMARK  4 active torsions:
REMARK  status: ('A' for Active; 'I' for Inactive)
REMARK    1  A    between atoms: C_1  and  N_2
REMARK    2  A    between atoms: N_2  and  C_3
REMARK    3  A    between atoms: N_2  and  C_4
REMARK    4  A    between atoms: C_7  and  C_8
REMARK                            x       y       z     vdW  Elec       q    Type
REMARK                         _______ _______ _______ _____ _____    ______ ____
ROOT
ATOM      1  C   UNL     1       1.855   7.894  19.641  0.00  0.00    +0.000 A 
ATOM      2  C   UNL     1       1.930   8.850  18.655  0.00  0.00    +0.000 A 
ATOM      3  N   UNL     1       1.236   9.928  19.131  0.00  0.00    +0.000 N 
ATOM      4  C   UNL     1       1.005  11.150  18.512  0.00  0.00    +0.000 A 
ATOM      5  C   UNL     1       0.298  12.089  19.161  0.00  0.00    +0.000 A 
ATOM      6 BR   UNL     1      -0.075  13.752  18.418  0.00  0.00    +0.000 Br
ATOM      7  C   UNL     1      -0.190  11.792  20.503  0.00  0.00    +0.000 A 
ATOM      8  C   UNL     1       0.033  10.600  21.101  0.00  0.00    +0.000 A 
ATOM      9  I   UNL     1      -0.671  10.245  23.012  0.00  0.00    +0.000 I 
ATOM     10  C   UNL     1       0.773   9.592  20.399  0.00  0.00    +0.000 A 
ATOM     11  N   UNL     1       1.118   8.354  20.709  0.00  0.00    +0.000 NA
ENDROOT
BRANCH   1  15
ATOM     12  C   UNL     1       3.474   3.910  19.292  0.00  0.00    +0.000 A 
ATOM     13  C   UNL     1       3.869   4.951  18.437  0.00  0.00    +0.000 A 
ATOM     14  C   UNL     1       3.358   6.251  18.557  0.00  0.00    +0.000 A 
ATOM     15  C   UNL     1       2.438   6.567  19.556  0.00  0.00    +0.000 A 
ATOM     16  C   UNL     1       2.072   5.568  20.456  0.00  0.00    +0.000 A 
ATOM     17  C   UNL     1       2.580   4.265  20.318  0.00  0.00    +0.000 A 
BRANCH  12  19
ATOM     18  C   UNL     1       3.457   1.756  18.070  0.00  0.00    +0.000 C 
ATOM     19  N   UNL     1       3.957   2.610  19.143  0.00  0.00    +0.000 N 
ATOM     20  C   UNL     1       4.611   1.950  20.268  0.00  0.00    +0.000 C 
ENDBRANCH  12  19
ENDBRANCH   1  15
TORSDOF 2
ENDMDL
MODEL 8
REMARK VINA RESULT:      -6.4      2.181      2.980
REMARK  Name = 
REMARK  4 active torsions:
REMARK  status: ('A' for Active; 'I' for Inactive)
REMARK    1  A    between atoms: C_1  and  N_2
REMARK    2  A    between atoms: N_2  and  C_3
REMARK    3  A    between atoms: N_2  and  C_4
REMARK    4  A    between atoms: C_7  and  C_8
REMARK                            x       y       z     vdW  Elec       q    Type
REMARK                         _______ _______ _______ _____ _____    ______ ____
ROOT
ATOM      1  C   UNL     1       2.095   7.209  19.797  0.00  0.00    +0.000 A 
ATOM      2  C   UNL     1       1.874   5.939  20.279  0.00  0.00    +0.000 A 
ATOM      3  N   UNL     1       2.637   5.110  19.504  0.00  0.00    +0.000 N 
ATOM      4  C   UNL     1       2.760   3.729  19.575  0.00  0.00    +0.000 A 
ATOM      5  C   UNL     1       3.579   3.100  18.716  0.00  0.00    +0.000 A 
ATOM      6 BR   UNL     1       3.807   1.255  18.722  0.00  0.00    +0.000 Br
ATOM      7  C   UNL     1       4.318   3.897  17.745  0.00  0.00    +0.000 A 
ATOM      8  C   UNL     1       4.193   5.242  17.675  0.00  0.00    +0.000 A 
ATOM      9  I   UNL     1       5.282   6.320  16.288  0.00  0.00    +0.000 I 
ATOM     10  C   UNL     1       3.305   5.911  18.582  0.00  0.00    +0.000 A 
ATOM     11  N   UNL     1       2.965   7.179  18.732  0.00  0.00    +0.000 NA
ENDROOT
BRANCH   1  15
ATOM     12  C   UNL     1       0.090  10.720  21.303  0.00  0.00    +0.000 A 
ATOM     13  C   UNL     1       0.466   9.660  22.143  0.00  0.00    +0.000 A 
ATOM     14  C   UNL     1       1.131   8.524  21.662  0.00  0.00    +0.000 A 
ATOM     15  C   UNL     1       1.467   8.412  20.313  0.00  0.00    +0.000 A 
ATOM     16  C   UNL     1       1.159   9.474  19.466  0.00  0.00    +0.000 A 
ATOM     17  C   UNL     1       0.479  10.603  19.957  0.00  0.00    +0.000 A 
BRANCH  12  19
ATOM     18  C   UNL     1      -1.347  11.750  23.036  0.00  0.00    +0.000 C 
ATOM     19  N   UNL     1      -0.606  11.830  21.782  0.00  0.00    +0.000 N 
ATOM     20  C   UNL     1      -0.963  12.908  20.866  0.00  0.00    +0.000 C 
ENDBRANCH  12  19
ENDBRANCH   1  15
TORSDOF 2
ENDMDL
MODEL 9
REMARK VINA RESULT:      -6.3      2.233      2.885
REMARK  Name = 
REMARK  4 active torsions:
REMARK  status: ('A' for Active; 'I' for Inactive)
REMARK    1  A    between atoms: C_1  and  N_2
REMARK    2  A    between atoms: N_2  and  C_3
REMARK    3  A    between atoms: N_2  and  C_4
REMARK    4  A    between atoms: C_7  and  C_8
REMARK                            x       y       z     vdW  Elec       q    Type
REMARK                         _______ _______ _______ _____ _____    ______ ____
ROOT
ATOM      1  C   UNL     1       1.923   7.244  20.006  0.00  0.00    +0.000 A 
ATOM      2  C   UNL     1       1.722   5.957  20.448  0.00  0.00    +0.000 A 
ATOM      3  N   UNL     1       2.502   5.165  19.653  0.00  0.00    +0.000 N 
ATOM      4  C   UNL     1       2.649   3.784  19.684  0.00  0.00    +0.000 A 
ATOM      5  C   UNL     1       3.481   3.195  18.811  0.00  0.00    +0.000 A 
ATOM      6 BR   UNL     1       3.740   1.354  18.763  0.00  0.00    +0.000 Br
ATOM      7  C   UNL     1       4.212   4.033  17.868  0.00  0.00    +0.000 A 
ATOM      8  C   UNL     1       4.064   5.377  17.837  0.00  0.00    +0.000 A 
ATOM      9  I   UNL     1       5.142   6.514  16.488  0.00  0.00    +0.000 I 
ATOM     10  C   UNL     1       3.162   6.003  18.759  0.00  0.00    +0.000 A 
ATOM     11  N   UNL     1       2.800   7.261  18.944  0.00  0.00    +0.000 NA
ENDROOT
BRANCH   1  15
ATOM     12  C   UNL     1       0.130  10.802  21.662  0.00  0.00    +0.000 A 
ATOM     13  C   UNL     1       0.423  10.684  20.294  0.00  0.00    +0.000 A 
ATOM     14  C   UNL     1       0.991   9.524  19.748  0.00  0.00    +0.000 A 
ATOM     15  C   UNL     1       1.273   8.421  20.553  0.00  0.00    +0.000 A 
ATOM     16  C   UNL     1       0.939   8.487  21.905  0.00  0.00    +0.000 A 
ATOM     17  C   UNL     1       0.382   9.660  22.444  0.00  0.00    +0.000 A 
BRANCH  12  19
ATOM     18  C   UNL     1      -1.644  11.936  22.965  0.00  0.00    +0.000 C 
ATOM     19  N   UNL     1      -0.399  11.972  22.205  0.00  0.00    +0.000 N 
ATOM     20  C   UNL     1       0.018  13.266  21.674  0.00  0.00    +0.000 C 
ENDBRANCH  12  19
ENDBRANCH   1  15
TORSDOF 2
ENDMDL
