MODEL 1
REMARK VINA RESULT:      -7.6      0.000      0.000
REMARK  Name = 
REMARK  4 active torsions:
REMARK  status: ('A' for Active; 'I' for Inactive)
REMARK    1  A    between atoms: C_5  and  O_6
REMARK    2  A    between atoms: O_6  and  C_7
REMARK    3  A    between atoms: C_7  and  C_8
REMARK    4  A    between atoms: N_15  and  C_16
REMARK                            x       y       z     vdW  Elec       q    Type
REMARK                         _______ _______ _______ _____ _____    ______ ____
ROOT
ATOM      1  C   UNL     1       2.986   4.780  19.142  0.00  0.00    +0.000 A 
ATOM      2  N   UNL     1       2.509   4.508  20.349  0.00  0.00    +0.000 NA
ATOM      3  N   UNL     1       1.948   5.669  20.878  0.00  0.00    +0.000 NA
ATOM      4  C   UNL     1       2.115   6.615  19.989  0.00  0.00    +0.000 A 
ATOM      5  N   UNL     1       2.772   6.090  18.919  0.00  0.00    +0.000 N 
ATOM      6  C   UNL     1       2.899   7.024  17.831  0.00  0.00    +0.000 C 
ATOM      7  C   UNL     1       2.476   8.337  18.520  0.00  0.00    +0.000 C 
ATOM      8  N   UNL     1       1.815   7.914  19.775  0.00  0.00    +0.000 N 
ENDROOT
BRANCH   8   9
ATOM      9  C   UNL     1       1.033   8.767  20.556  0.00  0.00    +0.000 A 
ATOM     10  C   UNL     1       1.052   8.712  21.962  0.00  0.00    +0.000 A 
ATOM     11  C   UNL     1       0.306   9.599  22.751  0.00  0.00    +0.000 A 
ATOM     12  C   UNL     1      -0.495  10.558  22.145  0.00  0.00    +0.000 A 
ATOM     13 CL   UNL     1      -1.405  11.652  23.110  0.00  0.00    +0.000 Cl
ATOM     14  C   UNL     1      -0.553  10.633  20.760  0.00  0.00    +0.000 A 
ATOM     15  C   UNL     1       0.203   9.747  19.981  0.00  0.00    +0.000 A 
ENDBRANCH   8   9
BRANCH   1  16
ATOM     16  C   UNL     1       3.579   3.825  18.170  0.00  0.00    +0.000 C 
BRANCH  16  17
ATOM     17  O   UNL     1       4.998   3.935  18.279  0.00  0.00    +0.000 OA
BRANCH  17  22
ATOM     18 CL   UNL     1       7.528   5.092  13.095  0.00  0.00    +0.000 Cl
ATOM     19  C   UNL     1       6.818   4.771  14.628  0.00  0.00    +0.000 A 
ATOM     20  C   UNL     1       5.492   4.355  14.705  0.00  0.00    +0.000 A 
ATOM     21  C   UNL     1       4.922   4.093  15.954  0.00  0.00    +0.000 A 
ATOM     22  C   UNL     1       5.675   4.226  17.126  0.00  0.00    +0.000 A 
ATOM     23  C   UNL     1       6.999   4.661  17.039  0.00  0.00    +0.000 A 
ATOM     24  C   UNL     1       7.572   4.932  15.789  0.00  0.00    +0.000 A 
ENDBRANCH  17  22
ENDBRANCH  16  17
ENDBRANCH   1  16
TORSDOF 4
ENDMDL
MODEL 2
REMARK VINA RESULT:      -7.5      0.112      1.392
REMARK  Name = 
REMARK  4 active torsions:
REMARK  status: ('A' for Active; 'I' for Inactive)
REMARK    1  A    between atoms: C_5  and  O_6
REMARK    2  A    between atoms: O_6  and  C_7
REMARK    3  A    between atoms: C_7  and  C_8
REMARK    4  A    between atoms: N_15  and  C_16
REMARK                            x       y       z     vdW  Elec       q    Type
REMARK                         _______ _______ _______ _____ _____    ______ ____
ROOT
ATOM      1  C   UNL     1       2.985   4.745  19.266  0.00  0.00    +0.000 A 
ATOM      2  N   UNL     1       2.535   4.524  20.493  0.00  0.00    +0.000 NA
ATOM      3  N   UNL     1       1.989   5.708  20.987  0.00  0.00    +0.000 NA
ATOM      4  C   UNL     1       2.138   6.616  20.057  0.00  0.00    +0.000 A 
ATOM      5  N   UNL     1       2.771   6.046  18.994  0.00  0.00    +0.000 N 
ATOM      6  C   UNL     1       2.876   6.935  17.867  0.00  0.00    +0.000 C 
ATOM      7  C   UNL     1       2.471   8.276  18.511  0.00  0.00    +0.000 C 
ATOM      8  N   UNL     1       1.837   7.907  19.796  0.00  0.00    +0.000 N 
ENDROOT
BRANCH   8   9
ATOM      9  C   UNL     1       1.074   8.793  20.560  0.00  0.00    +0.000 A 
ATOM     10  C   UNL     1       0.260   9.775  19.965  0.00  0.00    +0.000 A 
ATOM     11  C   UNL     1      -0.545  10.633  20.726  0.00  0.00    +0.000 A 
ATOM     12  C   UNL     1      -0.543  10.538  22.111  0.00  0.00    +0.000 A 
ATOM     13 CL   UNL     1      -1.535  11.585  23.046  0.00  0.00    +0.000 Cl
ATOM     14  C   UNL     1       0.260   9.593  22.736  0.00  0.00    +0.000 A 
ATOM     15  C   UNL     1       1.055   8.734  21.965  0.00  0.00    +0.000 A 
ENDBRANCH   8   9
BRANCH   1  16
ATOM     16  C   UNL     1       3.554   3.750  18.320  0.00  0.00    +0.000 C 
BRANCH  16  17
ATOM     17  O   UNL     1       4.966   3.963  18.277  0.00  0.00    +0.000 OA
BRANCH  17  22
ATOM     18 CL   UNL     1       7.664   5.184  13.194  0.00  0.00    +0.000 Cl
ATOM     19  C   UNL     1       6.846   4.811  14.660  0.00  0.00    +0.000 A 
ATOM     20  C   UNL     1       7.525   4.889  15.872  0.00  0.00    +0.000 A 
ATOM     21  C   UNL     1       6.855   4.588  17.060  0.00  0.00    +0.000 A 
ATOM     22  C   UNL     1       5.502   4.227  17.046  0.00  0.00    +0.000 A 
ATOM     23  C   UNL     1       4.835   4.135  15.824  0.00  0.00    +0.000 A 
ATOM     24  C   UNL     1       5.507   4.429  14.629  0.00  0.00    +0.000 A 
ENDBRANCH  17  22
ENDBRANCH  16  17
ENDBRANCH   1  16
TORSDOF 4
ENDMDL
MODEL 3
REMARK VINA RESULT:      -7.5      3.211      8.997
REMARK  Name = 
REMARK  4 active torsions:
REMARK  status: ('A' for Active; 'I' for Inactive)
REMARK    1  A    between atoms: C_5  and  O_6
REMARK    2  A    between atoms: O_6  and  C_7
REMARK    3  A    between atoms: C_7  and  C_8
REMARK    4  A    between atoms: N_15  and  C_16
REMARK                            x       y       z     vdW  Elec       q    Type
REMARK                         _______ _______ _______ _____ _____    ______ ____
ROOT
ATOM      1  C   UNL     1       1.151   9.374  19.132  0.00  0.00    +0.000 A 
ATOM      2  N   UNL     1       1.562   9.830  17.957  0.00  0.00    +0.000 NA
ATOM      3  N   UNL     1       2.450   8.907  17.407  0.00  0.00    +0.000 NA
ATOM      4  C   UNL     1       2.568   7.929  18.267  0.00  0.00    +0.000 A 
ATOM      5  N   UNL     1       1.790   8.209  19.349  0.00  0.00    +0.000 N 
ATOM      6  C   UNL     1       1.757   7.133  20.304  0.00  0.00    +0.000 C 
ATOM      7  C   UNL     1       2.901   6.241  19.782  0.00  0.00    +0.000 C 
ATOM      8  N   UNL     1       3.171   6.729  18.411  0.00  0.00    +0.000 N 
ENDROOT
BRANCH   8   9
ATOM      9  C   UNL     1       3.931   6.020  17.479  0.00  0.00    +0.000 A 
ATOM     10  C   UNL     1       3.889   4.615  17.400  0.00  0.00    +0.000 A 
ATOM     11  C   UNL     1       4.611   3.903  16.433  0.00  0.00    +0.000 A 
ATOM     12  C   UNL     1       5.411   4.585  15.525  0.00  0.00    +0.000 A 
ATOM     13 CL   UNL     1       6.293   3.714  14.334  0.00  0.00    +0.000 Cl
ATOM     14  C   UNL     1       5.492   5.969  15.582  0.00  0.00    +0.000 A 
ATOM     15  C   UNL     1       4.759   6.673  16.547  0.00  0.00    +0.000 A 
ENDBRANCH   8   9
BRANCH   1  16
ATOM     16  C   UNL     1       0.127   9.975  20.026  0.00  0.00    +0.000 C 
BRANCH  16  17
ATOM     17  O   UNL     1      -0.371  11.144  19.375  0.00  0.00    +0.000 OA
BRANCH  17  22
ATOM     18 CL   UNL     1      -6.015  11.252  17.718  0.00  0.00    +0.000 Cl
ATOM     19  C   UNL     1      -4.358  11.196  18.173  0.00  0.00    +0.000 A 
ATOM     20  C   UNL     1      -3.855  12.127  19.077  0.00  0.00    +0.000 A 
ATOM     21  C   UNL     1      -2.508  12.075  19.446  0.00  0.00    +0.000 A 
ATOM     22  C   UNL     1      -1.664  11.085  18.930  0.00  0.00    +0.000 A 
ATOM     23  C   UNL     1      -2.174  10.167  18.010  0.00  0.00    +0.000 A 
ATOM     24  C   UNL     1      -3.523  10.222  17.632  0.00  0.00    +0.000 A 
ENDBRANCH  17  22
ENDBRANCH  16  17
ENDBRANCH   1  16
TORSDOF 4
ENDMDL
MODEL 4
REMARK VINA RESULT:      -7.4      3.252      9.038
REMARK  Name = 
REMARK  4 active torsions:
REMARK  status: ('A' for Active; 'I' for Inactive)
REMARK    1  A    between atoms: C_5  and  O_6
REMARK    2  A    between atoms: O_6  and  C_7
REMARK    3  A    between atoms: C_7  and  C_8
REMARK    4  A    between atoms: N_15  and  C_16
REMARK                            x       y       z     vdW  Elec       q    Type
REMARK                         _______ _______ _______ _____ _____    ______ ____
ROOT
ATOM      1  C   UNL     1       1.067   9.538  19.124  0.00  0.00    +0.000 A 
ATOM      2  N   UNL     1       1.517   9.966  17.952  0.00  0.00    +0.000 NA
ATOM      3  N   UNL     1       2.400   9.017  17.440  0.00  0.00    +0.000 NA
ATOM      4  C   UNL     1       2.476   8.051  18.319  0.00  0.00    +0.000 A 
ATOM      5  N   UNL     1       1.676   8.365  19.376  0.00  0.00    +0.000 N 
ATOM      6  C   UNL     1       1.597   7.306  20.348  0.00  0.00    +0.000 C 
ATOM      7  C   UNL     1       2.737   6.383  19.870  0.00  0.00    +0.000 C 
ATOM      8  N   UNL     1       3.051   6.843  18.499  0.00  0.00    +0.000 N 
ENDROOT
BRANCH   8   9
ATOM      9  C   UNL     1       3.821   6.103  17.599  0.00  0.00    +0.000 A 
ATOM     10  C   UNL     1       3.708   4.704  17.499  0.00  0.00    +0.000 A 
ATOM     11  C   UNL     1       4.441   3.963  16.562  0.00  0.00    +0.000 A 
ATOM     12  C   UNL     1       5.324   4.610  15.707  0.00  0.00    +0.000 A 
ATOM     13 CL   UNL     1       6.220   3.705  14.552  0.00  0.00    +0.000 Cl
ATOM     14  C   UNL     1       5.476   5.988  15.786  0.00  0.00    +0.000 A 
ATOM     15  C   UNL     1       4.731   6.720  16.720  0.00  0.00    +0.000 A 
ENDBRANCH   8   9
BRANCH   1  16
ATOM     16  C   UNL     1       0.033  10.174  19.981  0.00  0.00    +0.000 C 
BRANCH  16  17
ATOM     17  O   UNL     1      -0.436  11.333  19.291  0.00  0.00    +0.000 OA
BRANCH  17  22
ATOM     18 CL   UNL     1      -6.137  11.194  17.844  0.00  0.00    +0.000 Cl
ATOM     19  C   UNL     1      -4.480  11.256  18.298  0.00  0.00    +0.000 A 
ATOM     20  C   UNL     1      -3.563  10.400  17.696  0.00  0.00    +0.000 A 
ATOM     21  C   UNL     1      -2.217  10.457  18.066  0.00  0.00    +0.000 A 
ATOM     22  C   UNL     1      -1.778  11.379  19.023  0.00  0.00    +0.000 A 
ATOM     23  C   UNL     1      -2.708  12.221  19.635  0.00  0.00    +0.000 A 
ATOM     24  C   UNL     1      -4.060  12.161  19.270  0.00  0.00    +0.000 A 
ENDBRANCH  17  22
ENDBRANCH  16  17
ENDBRANCH   1  16
TORSDOF 4
ENDMDL
MODEL 5
REMARK VINA RESULT:      -7.2      0.848      1.341
REMARK  Name = 
REMARK  4 active torsions:
REMARK  status: ('A' for Active; 'I' for Inactive)
REMARK    1  A    between atoms: C_5  and  O_6
REMARK    2  A    between atoms: O_6  and  C_7
REMARK    3  A    between atoms: C_7  and  C_8
REMARK    4  A    between atoms: N_15  and  C_16
REMARK                            x       y       z     vdW  Elec       q    Type
REMARK                         _______ _______ _______ _____ _____    ______ ____
ROOT
ATOM      1  C   UNL     1       2.847   5.221  19.569  0.00  0.00    +0.000 A 
ATOM      2  N   UNL     1       2.211   5.207  20.733  0.00  0.00    +0.000 NA
ATOM      3  N   UNL     1       1.627   6.456  20.936  0.00  0.00    +0.000 NA
ATOM      4  C   UNL     1       1.937   7.197  19.904  0.00  0.00    +0.000 A 
ATOM      5  N   UNL     1       2.708   6.459  19.058  0.00  0.00    +0.000 N 
ATOM      6  C   UNL     1       3.004   7.148  17.830  0.00  0.00    +0.000 C 
ATOM      7  C   UNL     1       2.541   8.578  18.176  0.00  0.00    +0.000 C 
ATOM      8  N   UNL     1       1.712   8.427  19.392  0.00  0.00    +0.000 N 
ENDROOT
BRANCH   8   9
ATOM      9  C   UNL     1       0.865   9.427  19.874  0.00  0.00    +0.000 A 
ATOM     10  C   UNL     1      -0.050  10.093  19.037  0.00  0.00    +0.000 A 
ATOM     11  C   UNL     1      -0.936  11.062  19.527  0.00  0.00    +0.000 A 
ATOM     12  C   UNL     1      -0.916  11.401  20.874  0.00  0.00    +0.000 A 
ATOM     13 CL   UNL     1      -2.007  12.584  21.478  0.00  0.00    +0.000 Cl
ATOM     14  C   UNL     1      -0.017  10.778  21.728  0.00  0.00    +0.000 A 
ATOM     15  C   UNL     1       0.859   9.804  21.230  0.00  0.00    +0.000 A 
ENDBRANCH   8   9
BRANCH   1  16
ATOM     16  C   UNL     1       3.527   4.083  18.898  0.00  0.00    +0.000 C 
BRANCH  16  17
ATOM     17  O   UNL     1       4.930   4.341  18.941  0.00  0.00    +0.000 OA
BRANCH  17  22
ATOM     18 CL   UNL     1       7.257   4.747  13.552  0.00  0.00    +0.000 Cl
ATOM     19  C   UNL     1       6.608   4.645  15.142  0.00  0.00    +0.000 A 
ATOM     20  C   UNL     1       5.263   4.339  15.324  0.00  0.00    +0.000 A 
ATOM     21  C   UNL     1       4.742   4.255  16.618  0.00  0.00    +0.000 A 
ATOM     22  C   UNL     1       5.564   4.457  17.733  0.00  0.00    +0.000 A 
ATOM     23  C   UNL     1       6.908   4.781  17.540  0.00  0.00    +0.000 A 
ATOM     24  C   UNL     1       7.431   4.874  16.243  0.00  0.00    +0.000 A 
ENDBRANCH  17  22
ENDBRANCH  16  17
ENDBRANCH   1  16
TORSDOF 4
ENDMDL
MODEL 6
REMARK VINA RESULT:      -7.1      1.477      2.151
REMARK  Name = 
REMARK  4 active torsions:
REMARK  status: ('A' for Active; 'I' for Inactive)
REMARK    1  A    between atoms: C_5  and  O_6
REMARK    2  A    between atoms: O_6  and  C_7
REMARK    3  A    between atoms: C_7  and  C_8
REMARK    4  A    between atoms: N_15  and  C_16
REMARK                            x       y       z     vdW  Elec       q    Type
REMARK                         _______ _______ _______ _____ _____    ______ ____
ROOT
ATOM      1  C   UNL     1       2.772   4.703  19.074  0.00  0.00    +0.000 A 
ATOM      2  N   UNL     1       2.337   4.449  20.301  0.00  0.00    +0.000 NA
ATOM      3  N   UNL     1       1.849   5.632  20.853  0.00  0.00    +0.000 NA
ATOM      4  C   UNL     1       2.016   6.571  19.957  0.00  0.00    +0.000 A 
ATOM      5  N   UNL     1       2.604   6.021  18.860  0.00  0.00    +0.000 N 
ATOM      6  C   UNL     1       2.722   6.951  17.767  0.00  0.00    +0.000 C 
ATOM      7  C   UNL     1       2.385   8.279  18.473  0.00  0.00    +0.000 C 
ATOM      8  N   UNL     1       1.762   7.882  19.756  0.00  0.00    +0.000 N 
ENDROOT
BRANCH   8   9
ATOM      9  C   UNL     1       1.051   8.766  20.570  0.00  0.00    +0.000 A 
ATOM     10  C   UNL     1       0.242   9.784  20.032  0.00  0.00    +0.000 A 
ATOM     11  C   UNL     1      -0.513  10.641  20.845  0.00  0.00    +0.000 A 
ATOM     12  C   UNL     1      -0.463  10.507  22.227  0.00  0.00    +0.000 A 
ATOM     13 CL   UNL     1      -1.393  11.552  23.225  0.00  0.00    +0.000 Cl
ATOM     14  C   UNL     1       0.336   9.525  22.796  0.00  0.00    +0.000 A 
ATOM     15  C   UNL     1       1.080   8.668  21.973  0.00  0.00    +0.000 A 
ENDBRANCH   8   9
BRANCH   1  16
ATOM     16  C   UNL     1       3.281   3.725  18.077  0.00  0.00    +0.000 C 
BRANCH  16  17
ATOM     17  O   UNL     1       4.679   3.560  18.320  0.00  0.00    +0.000 OA
BRANCH  17  22
ATOM     18 CL   UNL     1       8.264   8.154  17.511  0.00  0.00    +0.000 Cl
ATOM     19  C   UNL     1       7.211   6.809  17.709  0.00  0.00    +0.000 A 
ATOM     20  C   UNL     1       7.160   6.142  18.929  0.00  0.00    +0.000 A 
ATOM     21  C   UNL     1       6.300   5.052  19.086  0.00  0.00    +0.000 A 
ATOM     22  C   UNL     1       5.476   4.636  18.034  0.00  0.00    +0.000 A 
ATOM     23  C   UNL     1       5.547   5.300  16.808  0.00  0.00    +0.000 A 
ATOM     24  C   UNL     1       6.415   6.389  16.646  0.00  0.00    +0.000 A 
ENDBRANCH  17  22
ENDBRANCH  16  17
ENDBRANCH   1  16
TORSDOF 4
ENDMDL
MODEL 7
REMARK VINA RESULT:      -7.1      1.922      8.960
REMARK  Name = 
REMARK  4 active torsions:
REMARK  status: ('A' for Active; 'I' for Inactive)
REMARK    1  A    between atoms: C_5  and  O_6
REMARK    2  A    between atoms: O_6  and  C_7
REMARK    3  A    between atoms: C_7  and  C_8
REMARK    4  A    between atoms: N_15  and  C_16
REMARK                            x       y       z     vdW  Elec       q    Type
REMARK                         _______ _______ _______ _____ _____    ______ ____
ROOT
ATOM      1  C   UNL     1       1.958   7.406  19.944  0.00  0.00    +0.000 A 
ATOM      2  N   UNL     1       2.120   8.240  18.925  0.00  0.00    +0.000 NA
ATOM      3  N   UNL     1       2.963   7.643  17.990  0.00  0.00    +0.000 NA
ATOM      4  C   UNL     1       3.303   6.475  18.472  0.00  0.00    +0.000 A 
ATOM      5  N   UNL     1       2.710   6.320  19.687  0.00  0.00    +0.000 N 
ATOM      6  C   UNL     1       2.926   5.012  20.249  0.00  0.00    +0.000 C 
ATOM      7  C   UNL     1       4.023   4.468  19.313  0.00  0.00    +0.000 C 
ATOM      8  N   UNL     1       4.010   5.372  18.142  0.00  0.00    +0.000 N 
ENDROOT
BRANCH   8   9
ATOM      9  C   UNL     1       4.644   5.075  16.934  0.00  0.00    +0.000 A 
ATOM     10  C   UNL     1       4.999   6.079  16.014  0.00  0.00    +0.000 A 
ATOM     11  C   UNL     1       5.680   5.790  14.824  0.00  0.00    +0.000 A 
ATOM     12  C   UNL     1       6.010   4.477  14.516  0.00  0.00    +0.000 A 
ATOM     13 CL   UNL     1       6.851   4.120  13.060  0.00  0.00    +0.000 Cl
ATOM     14  C   UNL     1       5.662   3.456  15.390  0.00  0.00    +0.000 A 
ATOM     15  C   UNL     1       4.989   3.757  16.582  0.00  0.00    +0.000 A 
ENDBRANCH   8   9
BRANCH   1  16
ATOM     16  C   UNL     1       1.066   7.580  21.120  0.00  0.00    +0.000 C 
BRANCH  16  17
ATOM     17  O   UNL     1       1.508   8.744  21.820  0.00  0.00    +0.000 OA
BRANCH  17  22
ATOM     18 CL   UNL     1      -2.489  12.998  22.552  0.00  0.00    +0.000 Cl
ATOM     19  C   UNL     1      -1.302  11.777  22.312  0.00  0.00    +0.000 A 
ATOM     20  C   UNL     1      -1.210  10.713  23.206  0.00  0.00    +0.000 A 
ATOM     21  C   UNL     1      -0.246   9.722  23.004  0.00  0.00    +0.000 A 
ATOM     22  C   UNL     1       0.615   9.778  21.902  0.00  0.00    +0.000 A 
ATOM     23  C   UNL     1       0.528  10.857  21.022  0.00  0.00    +0.000 A 
ATOM     24  C   UNL     1      -0.433  11.857  21.226  0.00  0.00    +0.000 A 
ENDBRANCH  17  22
ENDBRANCH  16  17
ENDBRANCH   1  16
TORSDOF 4
ENDMDL
MODEL 8
REMARK VINA RESULT:      -7.0      1.674      8.943
REMARK  Name = 
REMARK  4 active torsions:
REMARK  status: ('A' for Active; 'I' for Inactive)
REMARK    1  A    between atoms: C_5  and  O_6
REMARK    2  A    between atoms: O_6  and  C_7
REMARK    3  A    between atoms: C_7  and  C_8
REMARK    4  A    between atoms: N_15  and  C_16
REMARK                            x       y       z     vdW  Elec       q    Type
REMARK                         _______ _______ _______ _____ _____    ______ ____
ROOT
ATOM      1  C   UNL     1       2.339   7.080  19.631  0.00  0.00    +0.000 A 
ATOM      2  N   UNL     1       2.483   7.957  18.646  0.00  0.00    +0.000 NA
ATOM      3  N   UNL     1       3.403   7.451  17.731  0.00  0.00    +0.000 NA
ATOM      4  C   UNL     1       3.806   6.294  18.191  0.00  0.00    +0.000 A 
ATOM      5  N   UNL     1       3.176   6.057  19.374  0.00  0.00    +0.000 N 
ATOM      6  C   UNL     1       3.461   4.750  19.905  0.00  0.00    +0.000 C 
ATOM      7  C   UNL     1       4.632   4.315  19.001  0.00  0.00    +0.000 C 
ATOM      8  N   UNL     1       4.602   5.255  17.858  0.00  0.00    +0.000 N 
ENDROOT
BRANCH   8   9
ATOM      9  C   UNL     1       5.305   5.043  16.671  0.00  0.00    +0.000 A 
ATOM     10  C   UNL     1       4.721   4.390  15.569  0.00  0.00    +0.000 A 
ATOM     11  C   UNL     1       5.405   4.219  14.357  0.00  0.00    +0.000 A 
ATOM     12  C   UNL     1       6.706   4.688  14.225  0.00  0.00    +0.000 A 
ATOM     13 CL   UNL     1       7.545   4.486  12.739  0.00  0.00    +0.000 Cl
ATOM     14  C   UNL     1       7.322   5.322  15.295  0.00  0.00    +0.000 A 
ATOM     15  C   UNL     1       6.626   5.495  16.499  0.00  0.00    +0.000 A 
ENDBRANCH   8   9
BRANCH   1  16
ATOM     16  C   UNL     1       1.390   7.152  20.772  0.00  0.00    +0.000 C 
BRANCH  16  17
ATOM     17  O   UNL     1       1.737   8.304  21.542  0.00  0.00    +0.000 OA
BRANCH  17  22
ATOM     18 CL   UNL     1      -2.464  12.302  22.524  0.00  0.00    +0.000 Cl
ATOM     19  C   UNL     1      -1.227  11.152  22.204  0.00  0.00    +0.000 A 
ATOM     20  C   UNL     1      -0.796  10.298  23.215  0.00  0.00    +0.000 A 
ATOM     21  C   UNL     1       0.207   9.362  22.948  0.00  0.00    +0.000 A 
ATOM     22  C   UNL     1       0.769   9.263  21.670  0.00  0.00    +0.000 A 
ATOM     23  C   UNL     1       0.343  10.135  20.667  0.00  0.00    +0.000 A 
ATOM     24  C   UNL     1      -0.658  11.080  20.934  0.00  0.00    +0.000 A 
ENDBRANCH  17  22
ENDBRANCH  16  17
ENDBRANCH   1  16
TORSDOF 4
ENDMDL
MODEL 9
REMARK VINA RESULT:      -7.0      2.405      9.324
REMARK  Name = 
REMARK  4 active torsions:
REMARK  status: ('A' for Active; 'I' for Inactive)
REMARK    1  A    between atoms: C_5  and  O_6
REMARK    2  A    between atoms: O_6  and  C_7
REMARK    3  A    between atoms: C_7  and  C_8
REMARK    4  A    between atoms: N_15  and  C_16
REMARK                            x       y       z     vdW  Elec       q    Type
REMARK                         _______ _______ _______ _____ _____    ______ ____
ROOT
ATOM      1  C   UNL     1       1.192   8.554  20.133  0.00  0.00    +0.000 A 
ATOM      2  N   UNL     1       1.517   9.266  19.063  0.00  0.00    +0.000 NA
ATOM      3  N   UNL     1       2.380   8.511  18.271  0.00  0.00    +0.000 NA
ATOM      4  C   UNL     1       2.569   7.373  18.888  0.00  0.00    +0.000 A 
ATOM      5  N   UNL     1       1.860   7.389  20.050  0.00  0.00    +0.000 N 
ATOM      6  C   UNL     1       1.906   6.130  20.748  0.00  0.00    +0.000 C 
ATOM      7  C   UNL     1       3.027   5.407  19.975  0.00  0.00    +0.000 C 
ATOM      8  N   UNL     1       3.199   6.188  18.730  0.00  0.00    +0.000 N 
ENDROOT
BRANCH   8   9
ATOM      9  C   UNL     1       3.906   5.721  17.620  0.00  0.00    +0.000 A 
ATOM     10  C   UNL     1       4.621   6.590  16.775  0.00  0.00    +0.000 A 
ATOM     11  C   UNL     1       5.373   6.120  15.690  0.00  0.00    +0.000 A 
ATOM     12  C   UNL     1       5.415   4.760  15.414  0.00  0.00    +0.000 A 
ATOM     13 CL   UNL     1       6.342   4.180  14.088  0.00  0.00    +0.000 Cl
ATOM     14  C   UNL     1       4.709   3.872  16.215  0.00  0.00    +0.000 A 
ATOM     15  C   UNL     1       3.967   4.352  17.303  0.00  0.00    +0.000 A 
ENDBRANCH   8   9
BRANCH   1  16
ATOM     16  C   UNL     1       0.220   8.917  21.197  0.00  0.00    +0.000 C 
BRANCH  16  17
ATOM     17  O   UNL     1       0.449  10.286  21.533  0.00  0.00    +0.000 OA
BRANCH  17  22
ATOM     18 CL   UNL     1      -4.337  13.585  22.435  0.00  0.00    +0.000 Cl
ATOM     19  C   UNL     1      -2.933  12.638  22.137  0.00  0.00    +0.000 A 
ATOM     20  C   UNL     1      -2.351  11.917  23.175  0.00  0.00    +0.000 A 
ATOM     21  C   UNL     1      -1.212  11.146  22.926  0.00  0.00    +0.000 A 
ATOM     22  C   UNL     1      -0.662  11.078  21.641  0.00  0.00    +0.000 A 
ATOM     23  C   UNL     1      -1.243  11.820  20.611  0.00  0.00    +0.000 A 
ATOM     24  C   UNL     1      -2.381  12.600  20.859  0.00  0.00    +0.000 A 
ENDBRANCH  17  22
ENDBRANCH  16  17
ENDBRANCH   1  16
TORSDOF 4
ENDMDL
