MODEL 1
REMARK VINA RESULT:      -6.9      0.000      0.000
REMARK  Name = 
REMARK  6 active torsions:
REMARK  status: ('A' for Active; 'I' for Inactive)
REMARK    1  A    between atoms: C_2  and  C_13
REMARK    2  A    between atoms: N_3  and  C_4
REMARK    3  A    between atoms: C_4  and  C_5
REMARK    4  A    between atoms: C_5  and  C_6
REMARK    5  A    between atoms: C_6  and  N_7
REMARK    6  A    between atoms: C_16  and  O_17
REMARK                            x       y       z     vdW  Elec       q    Type
REMARK                         _______ _______ _______ _____ _____    ______ ____
ROOT
ATOM      1  O   UNL     1       5.976   4.792  19.389  0.00  0.00    +0.000 OA
ATOM      2  C   UNL     1       5.655   4.087  18.441  0.00  0.00    +0.000 C 
ATOM      3  N   UNL     1       4.894   2.944  18.556  0.00  0.00    +0.000 N 
ATOM      4  H   UNL     1       4.911   2.271  17.800  0.00  0.00    +0.000 HD
ENDROOT
BRANCH   2   5
ATOM      5  C   UNL     1       6.112   4.429  17.080  0.00  0.00    +0.000 A 
ATOM      6  C   UNL     1       7.084   5.412  16.927  0.00  0.00    +0.000 A 
ATOM      7  N   UNL     1       7.586   5.797  15.724  0.00  0.00    +0.000 NA
ATOM      8  C   UNL     1       7.066   5.177  14.647  0.00  0.00    +0.000 A 
ATOM      9  C   UNL     1       6.078   4.202  14.687  0.00  0.00    +0.000 A 
ATOM     10 CL   UNL     1       5.450   3.462  13.269  0.00  0.00    +0.000 Cl
ATOM     11  C   UNL     1       5.588   3.823  15.933  0.00  0.00    +0.000 A 
BRANCH   8  12
ATOM     12  O   UNL     1       7.613   5.608  13.483  0.00  0.00    +0.000 OA
ATOM     13  H   UNL     1       6.839   6.031  13.072  0.00  0.00    +0.000 HD
ENDBRANCH   8  12
ENDBRANCH   2   5
BRANCH   3  14
ATOM     14  C   UNL     1       4.448   2.477  19.850  0.00  0.00    +0.000 C 
BRANCH  14  15
ATOM     15  C   UNL     1       2.961   2.145  19.816  0.00  0.00    +0.000 C 
BRANCH  15  16
ATOM     16  C   UNL     1       2.349   2.585  18.485  0.00  0.00    +0.000 C 
BRANCH  16  17
ATOM     17  N   UNL     1       1.217   3.515  18.635  0.00  0.00    +0.000 NA
ATOM     18  C   UNL     1       1.355   4.656  17.695  0.00  0.00    +0.000 C 
ATOM     19  C   UNL     1       2.467   5.649  18.085  0.00  0.00    +0.000 C 
ATOM     20  O   UNL     1       2.295   6.140  19.421  0.00  0.00    +0.000 OA
ATOM     21  C   UNL     1       2.215   5.062  20.363  0.00  0.00    +0.000 C 
ATOM     22  C   UNL     1       1.085   4.086  19.994  0.00  0.00    +0.000 C 
ENDBRANCH  16  17
ENDBRANCH  15  16
ENDBRANCH  14  15
ENDBRANCH   3  14
TORSDOF 6
ENDMDL
MODEL 2
REMARK VINA RESULT:      -6.7      1.251      1.880
REMARK  Name = 
REMARK  6 active torsions:
REMARK  status: ('A' for Active; 'I' for Inactive)
REMARK    1  A    between atoms: C_2  and  C_13
REMARK    2  A    between atoms: N_3  and  C_4
REMARK    3  A    between atoms: C_4  and  C_5
REMARK    4  A    between atoms: C_5  and  C_6
REMARK    5  A    between atoms: C_6  and  N_7
REMARK    6  A    between atoms: C_16  and  O_17
REMARK                            x       y       z     vdW  Elec       q    Type
REMARK                         _______ _______ _______ _____ _____    ______ ____
ROOT
ATOM      1  O   UNL     1       5.996   4.236  18.363  0.00  0.00    +0.000 OA
ATOM      2  C   UNL     1       5.475   3.856  17.322  0.00  0.00    +0.000 C 
ATOM      3  N   UNL     1       4.337   3.082  17.269  0.00  0.00    +0.000 N 
ATOM      4  H   UNL     1       4.134   2.575  16.417  0.00  0.00    +0.000 HD
ENDROOT
BRANCH   2   5
ATOM      5  C   UNL     1       6.086   4.203  16.023  0.00  0.00    +0.000 A 
ATOM      6  C   UNL     1       7.077   5.178  15.988  0.00  0.00    +0.000 A 
ATOM      7  N   UNL     1       7.715   5.566  14.852  0.00  0.00    +0.000 NA
ATOM      8  C   UNL     1       7.315   4.957  13.720  0.00  0.00    +0.000 A 
ATOM      9  C   UNL     1       6.322   3.990  13.641  0.00  0.00    +0.000 A 
ATOM     10 CL   UNL     1       5.853   3.264  12.156  0.00  0.00    +0.000 Cl
ATOM     11  C   UNL     1       5.691   3.608  14.821  0.00  0.00    +0.000 A 
BRANCH   8  12
ATOM     12  O   UNL     1       7.994   5.390  12.628  0.00  0.00    +0.000 OA
ATOM     13  H   UNL     1       7.340   6.002  12.247  0.00  0.00    +0.000 HD
ENDBRANCH   8  12
ENDBRANCH   2   5
BRANCH   3  14
ATOM     14  C   UNL     1       3.692   2.627  18.482  0.00  0.00    +0.000 C 
BRANCH  14  15
ATOM     15  C   UNL     1       2.186   2.840  18.399  0.00  0.00    +0.000 C 
BRANCH  15  16
ATOM     16  C   UNL     1       1.848   4.320  18.582  0.00  0.00    +0.000 C 
BRANCH  16  17
ATOM     17  N   UNL     1       2.903   5.086  19.268  0.00  0.00    +0.000 NA
ATOM     18  C   UNL     1       2.480   5.430  20.649  0.00  0.00    +0.000 C 
ATOM     19  C   UNL     1       1.391   6.518  20.710  0.00  0.00    +0.000 C 
ATOM     20  O   UNL     1       1.788   7.706  20.014  0.00  0.00    +0.000 OA
ATOM     21  C   UNL     1       2.149   7.416  18.657  0.00  0.00    +0.000 C 
ATOM     22  C   UNL     1       3.259   6.354  18.594  0.00  0.00    +0.000 C 
ENDBRANCH  16  17
ENDBRANCH  15  16
ENDBRANCH  14  15
ENDBRANCH   3  14
TORSDOF 6
ENDMDL
MODEL 3
REMARK VINA RESULT:      -6.7      0.853      1.104
REMARK  Name = 
REMARK  6 active torsions:
REMARK  status: ('A' for Active; 'I' for Inactive)
REMARK    1  A    between atoms: C_2  and  C_13
REMARK    2  A    between atoms: N_3  and  C_4
REMARK    3  A    between atoms: C_4  and  C_5
REMARK    4  A    between atoms: C_5  and  C_6
REMARK    5  A    between atoms: C_6  and  N_7
REMARK    6  A    between atoms: C_16  and  O_17
REMARK                            x       y       z     vdW  Elec       q    Type
REMARK                         _______ _______ _______ _____ _____    ______ ____
ROOT
ATOM      1  O   UNL     1       6.006   4.752  19.403  0.00  0.00    +0.000 OA
ATOM      2  C   UNL     1       5.660   4.064  18.452  0.00  0.00    +0.000 C 
ATOM      3  N   UNL     1       4.890   2.926  18.566  0.00  0.00    +0.000 N 
ATOM      4  H   UNL     1       4.887   2.264  17.800  0.00  0.00    +0.000 HD
ENDROOT
BRANCH   2   5
ATOM      5  C   UNL     1       6.095   4.420  17.087  0.00  0.00    +0.000 A 
ATOM      6  C   UNL     1       7.092   5.378  16.931  0.00  0.00    +0.000 A 
ATOM      7  N   UNL     1       7.577   5.773  15.724  0.00  0.00    +0.000 NA
ATOM      8  C   UNL     1       7.014   5.190  14.648  0.00  0.00    +0.000 A 
ATOM      9  C   UNL     1       5.999   4.244  14.693  0.00  0.00    +0.000 A 
ATOM     10 CL   UNL     1       5.316   3.552  13.275  0.00  0.00    +0.000 Cl
ATOM     11  C   UNL     1       5.527   3.854  15.941  0.00  0.00    +0.000 A 
BRANCH   8  12
ATOM     12  O   UNL     1       7.546   5.629  13.480  0.00  0.00    +0.000 OA
ATOM     13  H   UNL     1       7.831   4.784  13.090  0.00  0.00    +0.000 HD
ENDBRANCH   8  12
ENDBRANCH   2   5
BRANCH   3  14
ATOM     14  C   UNL     1       4.464   2.445  19.861  0.00  0.00    +0.000 C 
BRANCH  14  15
ATOM     15  C   UNL     1       2.962   2.630  20.033  0.00  0.00    +0.000 C 
BRANCH  15  16
ATOM     16  C   UNL     1       2.671   3.883  20.860  0.00  0.00    +0.000 C 
BRANCH  16  17
ATOM     17  N   UNL     1       1.494   4.637  20.396  0.00  0.00    +0.000 NA
ATOM     18  C   UNL     1       1.210   4.329  18.971  0.00  0.00    +0.000 C 
ATOM     19  C   UNL     1       2.225   4.946  17.991  0.00  0.00    +0.000 C 
ATOM     20  O   UNL     1       2.340   6.364  18.168  0.00  0.00    +0.000 OA
ATOM     21  C   UNL     1       2.670   6.693  19.523  0.00  0.00    +0.000 C 
ATOM     22  C   UNL     1       1.641   6.105  20.502  0.00  0.00    +0.000 C 
ENDBRANCH  16  17
ENDBRANCH  15  16
ENDBRANCH  14  15
ENDBRANCH   3  14
TORSDOF 6
ENDMDL
MODEL 4
REMARK VINA RESULT:      -6.7      3.793      6.265
REMARK  Name = 
REMARK  6 active torsions:
REMARK  status: ('A' for Active; 'I' for Inactive)
REMARK    1  A    between atoms: C_2  and  C_13
REMARK    2  A    between atoms: N_3  and  C_4
REMARK    3  A    between atoms: C_4  and  C_5
REMARK    4  A    between atoms: C_5  and  C_6
REMARK    5  A    between atoms: C_6  and  N_7
REMARK    6  A    between atoms: C_16  and  O_17
REMARK                            x       y       z     vdW  Elec       q    Type
REMARK                         _______ _______ _______ _____ _____    ______ ____
ROOT
ATOM      1  O   UNL     1       3.584   5.767  19.987  0.00  0.00    +0.000 OA
ATOM      2  C   UNL     1       2.732   6.027  19.147  0.00  0.00    +0.000 C 
ATOM      3  N   UNL     1       2.194   5.098  18.283  0.00  0.00    +0.000 N 
ATOM      4  H   UNL     1       1.726   5.427  17.447  0.00  0.00    +0.000 HD
ENDROOT
BRANCH   2   5
ATOM      5  C   UNL     1       2.243   7.412  18.999  0.00  0.00    +0.000 A 
ATOM      6  C   UNL     1       2.395   8.048  17.771  0.00  0.00    +0.000 A 
ATOM      7  N   UNL     1       1.972   9.315  17.520  0.00  0.00    +0.000 NA
ATOM      8  C   UNL     1       1.397   9.956  18.555  0.00  0.00    +0.000 A 
ATOM      9  C   UNL     1       1.218   9.423  19.824  0.00  0.00    +0.000 A 
ATOM     10 CL   UNL     1       0.487  10.307  21.105  0.00  0.00    +0.000 Cl
ATOM     11  C   UNL     1       1.655   8.122  20.051  0.00  0.00    +0.000 A 
BRANCH   8  12
ATOM     12  O   UNL     1       0.997  11.213  18.232  0.00  0.00    +0.000 OA
ATOM     13  H   UNL     1       0.052  11.057  18.061  0.00  0.00    +0.000 HD
ENDBRANCH   8  12
ENDBRANCH   2   5
BRANCH   3  14
ATOM     14  C   UNL     1       2.648   3.725  18.293  0.00  0.00    +0.000 C 
BRANCH  14  15
ATOM     15  C   UNL     1       3.446   3.416  17.034  0.00  0.00    +0.000 C 
BRANCH  15  16
ATOM     16  C   UNL     1       4.815   4.096  17.092  0.00  0.00    +0.000 C 
BRANCH  16  17
ATOM     17  N   UNL     1       4.877   5.361  16.340  0.00  0.00    +0.000 NA
ATOM     18  C   UNL     1       5.466   5.137  14.995  0.00  0.00    +0.000 C 
ATOM     19  C   UNL     1       6.982   4.860  15.021  0.00  0.00    +0.000 C 
ATOM     20  O   UNL     1       7.699   5.901  15.697  0.00  0.00    +0.000 OA
ATOM     21  C   UNL     1       7.191   6.105  17.022  0.00  0.00    +0.000 C 
ATOM     22  C   UNL     1       5.685   6.412  16.997  0.00  0.00    +0.000 C 
ENDBRANCH  16  17
ENDBRANCH  15  16
ENDBRANCH  14  15
ENDBRANCH   3  14
TORSDOF 6
ENDMDL
MODEL 5
REMARK VINA RESULT:      -6.6      2.236      3.488
REMARK  Name = 
REMARK  6 active torsions:
REMARK  status: ('A' for Active; 'I' for Inactive)
REMARK    1  A    between atoms: C_2  and  C_13
REMARK    2  A    between atoms: N_3  and  C_4
REMARK    3  A    between atoms: C_4  and  C_5
REMARK    4  A    between atoms: C_5  and  C_6
REMARK    5  A    between atoms: C_6  and  N_7
REMARK    6  A    between atoms: C_16  and  O_17
REMARK                            x       y       z     vdW  Elec       q    Type
REMARK                         _______ _______ _______ _____ _____    ______ ____
ROOT
ATOM      1  O   UNL     1       3.260   7.660  17.293  0.00  0.00    +0.000 OA
ATOM      2  C   UNL     1       3.735   6.897  18.125  0.00  0.00    +0.000 C 
ATOM      3  N   UNL     1       3.213   6.715  19.387  0.00  0.00    +0.000 N 
ATOM      4  H   UNL     1       3.803   6.307  20.102  0.00  0.00    +0.000 HD
ENDROOT
BRANCH   2   5
ATOM      5  C   UNL     1       4.955   6.129  17.809  0.00  0.00    +0.000 A 
ATOM      6  C   UNL     1       5.706   5.605  18.856  0.00  0.00    +0.000 A 
ATOM      7  N   UNL     1       6.838   4.873  18.681  0.00  0.00    +0.000 NA
ATOM      8  C   UNL     1       7.224   4.688  17.404  0.00  0.00    +0.000 A 
ATOM      9  C   UNL     1       6.561   5.186  16.290  0.00  0.00    +0.000 A 
ATOM     10 CL   UNL     1       7.120   4.922  14.686  0.00  0.00    +0.000 Cl
ATOM     11  C   UNL     1       5.402   5.926  16.499  0.00  0.00    +0.000 A 
BRANCH   8  12
ATOM     12  O   UNL     1       8.357   3.949  17.304  0.00  0.00    +0.000 OA
ATOM     13  H   UNL     1       8.912   4.389  17.972  0.00  0.00    +0.000 HD
ENDBRANCH   8  12
ENDBRANCH   2   5
BRANCH   3  14
ATOM     14  C   UNL     1       2.059   7.467  19.829  0.00  0.00    +0.000 C 
BRANCH  14  15
ATOM     15  C   UNL     1       1.223   6.643  20.800  0.00  0.00    +0.000 C 
BRANCH  15  16
ATOM     16  C   UNL     1       1.877   5.281  21.041  0.00  0.00    +0.000 C 
BRANCH  16  17
ATOM     17  N   UNL     1       1.078   4.148  20.546  0.00  0.00    +0.000 NA
ATOM     18  C   UNL     1       1.403   2.913  21.305  0.00  0.00    +0.000 C 
ATOM     19  C   UNL     1       2.787   2.327  20.970  0.00  0.00    +0.000 C 
ATOM     20  O   UNL     1       2.935   2.085  19.565  0.00  0.00    +0.000 OA
ATOM     21  C   UNL     1       2.683   3.274  18.805  0.00  0.00    +0.000 C 
ATOM     22  C   UNL     1       1.289   3.844  19.113  0.00  0.00    +0.000 C 
ENDBRANCH  16  17
ENDBRANCH  15  16
ENDBRANCH  14  15
ENDBRANCH   3  14
TORSDOF 6
ENDMDL
MODEL 6
REMARK VINA RESULT:      -6.5      1.817      2.514
REMARK  Name = 
REMARK  6 active torsions:
REMARK  status: ('A' for Active; 'I' for Inactive)
REMARK    1  A    between atoms: C_2  and  C_13
REMARK    2  A    between atoms: N_3  and  C_4
REMARK    3  A    between atoms: C_4  and  C_5
REMARK    4  A    between atoms: C_5  and  C_6
REMARK    5  A    between atoms: C_6  and  N_7
REMARK    6  A    between atoms: C_16  and  O_17
REMARK                            x       y       z     vdW  Elec       q    Type
REMARK                         _______ _______ _______ _____ _____    ______ ____
ROOT
ATOM      1  O   UNL     1       4.842   3.309  17.219  0.00  0.00    +0.000 OA
ATOM      2  C   UNL     1       5.671   4.168  16.947  0.00  0.00    +0.000 C 
ATOM      3  N   UNL     1       6.192   5.053  17.866  0.00  0.00    +0.000 N 
ATOM      4  H   UNL     1       6.636   5.898  17.528  0.00  0.00    +0.000 HD
ENDROOT
BRANCH   2   5
ATOM      5  C   UNL     1       6.149   4.317  15.558  0.00  0.00    +0.000 A 
ATOM      6  C   UNL     1       7.193   5.200  15.300  0.00  0.00    +0.000 A 
ATOM      7  N   UNL     1       7.718   5.407  14.064  0.00  0.00    +0.000 NA
ATOM      8  C   UNL     1       7.150   4.710  13.062  0.00  0.00    +0.000 A 
ATOM      9  C   UNL     1       6.091   3.824  13.207  0.00  0.00    +0.000 A 
ATOM     10 CL   UNL     1       5.404   2.977  11.878  0.00  0.00    +0.000 Cl
ATOM     11  C   UNL     1       5.578   3.626  14.484  0.00  0.00    +0.000 A 
BRANCH   8  12
ATOM     12  O   UNL     1       7.725   4.964  11.859  0.00  0.00    +0.000 OA
ATOM     13  H   UNL     1       8.398   4.261  11.836  0.00  0.00    +0.000 HD
ENDBRANCH   8  12
ENDBRANCH   2   5
BRANCH   3  14
ATOM     14  C   UNL     1       5.746   5.042  19.242  0.00  0.00    +0.000 C 
BRANCH  14  15
ATOM     15  C   UNL     1       4.387   5.717  19.369  0.00  0.00    +0.000 C 
BRANCH  15  16
ATOM     16  C   UNL     1       3.365   4.748  19.966  0.00  0.00    +0.000 C 
BRANCH  16  17
ATOM     17  N   UNL     1       1.987   4.986  19.505  0.00  0.00    +0.000 NA
ATOM     18  C   UNL     1       1.011   4.407  20.464  0.00  0.00    +0.000 C 
ATOM     19  C   UNL     1       0.955   2.867  20.435  0.00  0.00    +0.000 C 
ATOM     20  O   UNL     1       0.692   2.371  19.117  0.00  0.00    +0.000 OA
ATOM     21  C   UNL     1       1.652   2.867  18.175  0.00  0.00    +0.000 C 
ATOM     22  C   UNL     1       1.688   4.404  18.178  0.00  0.00    +0.000 C 
ENDBRANCH  16  17
ENDBRANCH  15  16
ENDBRANCH  14  15
ENDBRANCH   3  14
TORSDOF 6
ENDMDL
MODEL 7
REMARK VINA RESULT:      -6.5      2.006      3.279
REMARK  Name = 
REMARK  6 active torsions:
REMARK  status: ('A' for Active; 'I' for Inactive)
REMARK    1  A    between atoms: C_2  and  C_13
REMARK    2  A    between atoms: N_3  and  C_4
REMARK    3  A    between atoms: C_4  and  C_5
REMARK    4  A    between atoms: C_5  and  C_6
REMARK    5  A    between atoms: C_6  and  N_7
REMARK    6  A    between atoms: C_16  and  O_17
REMARK                            x       y       z     vdW  Elec       q    Type
REMARK                         _______ _______ _______ _____ _____    ______ ____
ROOT
ATOM      1  O   UNL     1       2.801   6.825  17.916  0.00  0.00    +0.000 OA
ATOM      2  C   UNL     1       3.507   6.141  18.645  0.00  0.00    +0.000 C 
ATOM      3  N   UNL     1       3.186   5.819  19.946  0.00  0.00    +0.000 N 
ATOM      4  H   UNL     1       3.924   5.508  20.565  0.00  0.00    +0.000 HD
ENDROOT
BRANCH   2   5
ATOM      5  C   UNL     1       4.801   5.632  18.150  0.00  0.00    +0.000 A 
ATOM      6  C   UNL     1       5.751   5.206  19.074  0.00  0.00    +0.000 A 
ATOM      7  N   UNL     1       6.968   4.710  18.730  0.00  0.00    +0.000 NA
ATOM      8  C   UNL     1       7.231   4.665  17.410  0.00  0.00    +0.000 A 
ATOM      9  C   UNL     1       6.365   5.085  16.409  0.00  0.00    +0.000 A 
ATOM     10 CL   UNL     1       6.774   5.013  14.741  0.00  0.00    +0.000 Cl
ATOM     11  C   UNL     1       5.124   5.583  16.790  0.00  0.00    +0.000 A 
BRANCH   8  12
ATOM     12  O   UNL     1       8.460   4.158  17.141  0.00  0.00    +0.000 OA
ATOM     13  H   UNL     1       8.427   4.128  16.168  0.00  0.00    +0.000 HD
ENDBRANCH   8  12
ENDBRANCH   2   5
BRANCH   3  14
ATOM     14  C   UNL     1       1.974   6.319  20.557  0.00  0.00    +0.000 C 
BRANCH  14  15
ATOM     15  C   UNL     1       0.944   5.206  20.692  0.00  0.00    +0.000 C 
BRANCH  15  16
ATOM     16  C   UNL     1       1.063   4.226  19.524  0.00  0.00    +0.000 C 
BRANCH  16  17
ATOM     17  N   UNL     1       1.078   2.813  19.938  0.00  0.00    +0.000 NA
ATOM     18  C   UNL     1       2.134   2.582  20.956  0.00  0.00    +0.000 C 
ATOM     19  C   UNL     1       3.564   2.624  20.385  0.00  0.00    +0.000 C 
ATOM     20  O   UNL     1       3.729   1.704  19.298  0.00  0.00    +0.000 OA
ATOM     21  C   UNL     1       2.758   1.938  18.269  0.00  0.00    +0.000 C 
ATOM     22  C   UNL     1       1.328   1.864  18.830  0.00  0.00    +0.000 C 
ENDBRANCH  16  17
ENDBRANCH  15  16
ENDBRANCH  14  15
ENDBRANCH   3  14
TORSDOF 6
ENDMDL
MODEL 8
REMARK VINA RESULT:      -6.5      4.241      5.765
REMARK  Name = 
REMARK  6 active torsions:
REMARK  status: ('A' for Active; 'I' for Inactive)
REMARK    1  A    between atoms: C_2  and  C_13
REMARK    2  A    between atoms: N_3  and  C_4
REMARK    3  A    between atoms: C_4  and  C_5
REMARK    4  A    between atoms: C_5  and  C_6
REMARK    5  A    between atoms: C_6  and  N_7
REMARK    6  A    between atoms: C_16  and  O_17
REMARK                            x       y       z     vdW  Elec       q    Type
REMARK                         _______ _______ _______ _____ _____    ______ ____
ROOT
ATOM      1  O   UNL     1       4.189   7.068  16.676  0.00  0.00    +0.000 OA
ATOM      2  C   UNL     1       3.588   6.737  17.689  0.00  0.00    +0.000 C 
ATOM      3  N   UNL     1       2.680   7.541  18.343  0.00  0.00    +0.000 N 
ATOM      4  H   UNL     1       2.448   7.328  19.305  0.00  0.00    +0.000 HD
ENDROOT
BRANCH   2   5
ATOM      5  C   UNL     1       3.842   5.416  18.298  0.00  0.00    +0.000 A 
ATOM      6  C   UNL     1       5.130   5.113  18.729  0.00  0.00    +0.000 A 
ATOM      7  N   UNL     1       5.473   3.935  19.313  0.00  0.00    +0.000 NA
ATOM      8  C   UNL     1       4.480   3.034  19.441  0.00  0.00    +0.000 A 
ATOM      9  C   UNL     1       3.170   3.226  19.023  0.00  0.00    +0.000 A 
ATOM     10 CL   UNL     1       1.955   2.023  19.206  0.00  0.00    +0.000 Cl
ATOM     11  C   UNL     1       2.846   4.444  18.436  0.00  0.00    +0.000 A 
BRANCH   8  12
ATOM     12  O   UNL     1       4.893   1.885  20.033  0.00  0.00    +0.000 OA
ATOM     13  H   UNL     1       5.149   2.222  20.910  0.00  0.00    +0.000 HD
ENDBRANCH   8  12
ENDBRANCH   2   5
BRANCH   3  14
ATOM     14  C   UNL     1       2.404   8.881  17.875  0.00  0.00    +0.000 C 
BRANCH  14  15
ATOM     15  C   UNL     1       1.148   9.431  18.537  0.00  0.00    +0.000 C 
BRANCH  15  16
ATOM     16  C   UNL     1       1.081   8.991  20.000  0.00  0.00    +0.000 C 
BRANCH  16  17
ATOM     17  N   UNL     1      -0.264   9.103  20.589  0.00  0.00    +0.000 NA
ATOM     18  C   UNL     1      -0.719  10.517  20.580  0.00  0.00    +0.000 C 
ATOM     19  C   UNL     1       0.009  11.408  21.604  0.00  0.00    +0.000 C 
ATOM     20  O   UNL     1      -0.087  10.876  22.932  0.00  0.00    +0.000 OA
ATOM     21  C   UNL     1       0.398   9.529  22.988  0.00  0.00    +0.000 C 
ATOM     22  C   UNL     1      -0.348   8.630  21.989  0.00  0.00    +0.000 C 
ENDBRANCH  16  17
ENDBRANCH  15  16
ENDBRANCH  14  15
ENDBRANCH   3  14
TORSDOF 6
ENDMDL
MODEL 9
REMARK VINA RESULT:      -6.4      3.769      6.855
REMARK  Name = 
REMARK  6 active torsions:
REMARK  status: ('A' for Active; 'I' for Inactive)
REMARK    1  A    between atoms: C_2  and  C_13
REMARK    2  A    between atoms: N_3  and  C_4
REMARK    3  A    between atoms: C_4  and  C_5
REMARK    4  A    between atoms: C_5  and  C_6
REMARK    5  A    between atoms: C_6  and  N_7
REMARK    6  A    between atoms: C_16  and  O_17
REMARK                            x       y       z     vdW  Elec       q    Type
REMARK                         _______ _______ _______ _____ _____    ______ ____
ROOT
ATOM      1  O   UNL     1       3.479   6.982  17.285  0.00  0.00    +0.000 OA
ATOM      2  C   UNL     1       2.960   6.672  18.350  0.00  0.00    +0.000 C 
ATOM      3  N   UNL     1       3.032   5.412  18.903  0.00  0.00    +0.000 N 
ATOM      4  H   UNL     1       2.358   5.154  19.613  0.00  0.00    +0.000 HD
ENDROOT
BRANCH   2   5
ATOM      5  C   UNL     1       2.177   7.669  19.106  0.00  0.00    +0.000 A 
ATOM      6  C   UNL     1       1.796   7.373  20.410  0.00  0.00    +0.000 A 
ATOM      7  N   UNL     1       1.085   8.220  21.200  0.00  0.00    +0.000 NA
ATOM      8  C   UNL     1       0.737   9.392  20.637  0.00  0.00    +0.000 A 
ATOM      9  C   UNL     1       1.044   9.776  19.338  0.00  0.00    +0.000 A 
ATOM     10 CL   UNL     1       0.553  11.285  18.678  0.00  0.00    +0.000 Cl
ATOM     11  C   UNL     1       1.778   8.892  18.555  0.00  0.00    +0.000 A 
BRANCH   8  12
ATOM     12  O   UNL     1       0.032  10.188  21.481  0.00  0.00    +0.000 OA
ATOM     13  H   UNL     1      -0.877   9.966  21.212  0.00  0.00    +0.000 HD
ENDBRANCH   8  12
ENDBRANCH   2   5
BRANCH   3  14
ATOM     14  C   UNL     1       3.717   4.339  18.217  0.00  0.00    +0.000 C 
BRANCH  14  15
ATOM     15  C   UNL     1       4.988   3.951  18.962  0.00  0.00    +0.000 C 
BRANCH  15  16
ATOM     16  C   UNL     1       5.858   5.186  19.206  0.00  0.00    +0.000 C 
BRANCH  16  17
ATOM     17  N   UNL     1       7.249   5.025  18.751  0.00  0.00    +0.000 NA
ATOM     18  C   UNL     1       7.965   6.325  18.799  0.00  0.00    +0.000 C 
ATOM     19  C   UNL     1       7.524   7.315  17.704  0.00  0.00    +0.000 C 
ATOM     20  O   UNL     1       7.643   6.744  16.395  0.00  0.00    +0.000 OA
ATOM     21  C   UNL     1       6.915   5.513  16.297  0.00  0.00    +0.000 C 
ATOM     22  C   UNL     1       7.375   4.512  17.369  0.00  0.00    +0.000 C 
ENDBRANCH  16  17
ENDBRANCH  15  16
ENDBRANCH  14  15
ENDBRANCH   3  14
TORSDOF 6
ENDMDL
