MODEL 1
REMARK VINA RESULT:      -7.6      0.000      0.000
REMARK  Name = 
REMARK  10 active torsions:
REMARK  status: ('A' for Active; 'I' for Inactive)
REMARK    1  A    between atoms: C_1  and  N_2
REMARK    2  A    between atoms: N_2  and  C_3
REMARK    3  A    between atoms: N_2  and  C_4
REMARK    4  A    between atoms: C_4  and  C_5
REMARK    5  A    between atoms: C_5  and  N_6
REMARK    6  A    between atoms: C_7  and  C_9
REMARK    7  A    between atoms: C_16  and  C_17
REMARK    8  A    between atoms: C_20  and  N_21
REMARK    9  A    between atoms: N_21  and  S_22
REMARK   10  A    between atoms: S_22  and  C_23
REMARK                            x       y       z     vdW  Elec       q    Type
REMARK                         _______ _______ _______ _____ _____    ______ ____
ROOT
ATOM      1  C   UNL     1      -1.574  11.679  20.372  0.00  0.00    +0.000 A 
ATOM      2  C   UNL     1      -2.377  12.505  21.184  0.00  0.00    +0.000 A 
ATOM      3  C   UNL     1      -2.302  12.423  22.567  0.00  0.00    +0.000 A 
ATOM      4  C   UNL     1      -1.437  11.503  23.142  0.00  0.00    +0.000 A 
ATOM      5  C   UNL     1      -0.651  10.660  22.338  0.00  0.00    +0.000 A 
ATOM      6  C   UNL     1       0.201   9.730  22.936  0.00  0.00    +0.000 A 
ATOM      7  C   UNL     1       0.971   8.885  22.149  0.00  0.00    +0.000 A 
ATOM      8  C   UNL     1       0.888   8.980  20.766  0.00  0.00    +0.000 A 
ATOM      9  N   UNL     1       0.087   9.903  20.172  0.00  0.00    +0.000 NA
ATOM     10  C   UNL     1      -0.696  10.729  20.928  0.00  0.00    +0.000 A 
ENDROOT
BRANCH   8  11
ATOM     11  C   UNL     1       1.664   8.096  19.866  0.00  0.00    +0.000 A 
ATOM     12  C   UNL     1       2.006   6.784  20.244  0.00  0.00    +0.000 A 
ATOM     13  C   UNL     1       2.784   5.961  19.423  0.00  0.00    +0.000 A 
ATOM     14  C   UNL     1       3.236   6.434  18.198  0.00  0.00    +0.000 A 
ATOM     15  C   UNL     1       2.876   7.710  17.769  0.00  0.00    +0.000 A 
ATOM     16  C   UNL     1       2.100   8.529  18.599  0.00  0.00    +0.000 A 
BRANCH  14  17
ATOM     17  N   UNL     1       4.049   5.582  17.398  0.00  0.00    +0.000 N 
ATOM     18  H   UNL     1       3.651   4.667  17.182  0.00  0.00    +0.000 HD
BRANCH  17  19
ATOM     19  S   UNL     1       5.681   5.427  17.801  0.00  0.00    +0.000 S 
ATOM     20  C   UNL     1       6.339   6.960  17.188  0.00  0.00    +0.000 C 
ATOM     21  O   UNL     1       5.837   5.377  19.239  0.00  0.00    +0.000 OA
ATOM     22  O   UNL     1       6.184   4.362  16.956  0.00  0.00    +0.000 OA
ENDBRANCH  17  19
ENDBRANCH  14  17
ENDBRANCH   8  11
BRANCH   1  24
ATOM     23  N   UNL     1      -2.453  10.982  18.202  0.00  0.00    +0.000 N 
ATOM     24  C   UNL     1      -1.700  11.895  18.901  0.00  0.00    +0.000 C 
ATOM     25  O   UNL     1      -1.111  12.827  18.362  0.00  0.00    +0.000 OA
ATOM     26  H   UNL     1      -3.023  10.338  18.745  0.00  0.00    +0.000 HD
BRANCH  23  27
ATOM     27  C   UNL     1      -2.684  11.102  16.776  0.00  0.00    +0.000 C 
BRANCH  27  28
ATOM     28  C   UNL     1      -4.185  11.208  16.430  0.00  0.00    +0.000 C 
BRANCH  28  30
ATOM     29  C   UNL     1      -5.970  12.765  16.978  0.00  0.00    +0.000 C 
ATOM     30  N   UNL     1      -5.007  11.795  17.510  0.00  0.00    +0.000 NA
ATOM     31  C   UNL     1      -5.732  10.735  18.218  0.00  0.00    +0.000 C 
ENDBRANCH  28  30
ENDBRANCH  27  28
ENDBRANCH  23  27
ENDBRANCH   1  24
TORSDOF 7
ENDMDL
MODEL 2
REMARK VINA RESULT:      -7.5      0.814      1.457
REMARK  Name = 
REMARK  10 active torsions:
REMARK  status: ('A' for Active; 'I' for Inactive)
REMARK    1  A    between atoms: C_1  and  N_2
REMARK    2  A    between atoms: N_2  and  C_3
REMARK    3  A    between atoms: N_2  and  C_4
REMARK    4  A    between atoms: C_4  and  C_5
REMARK    5  A    between atoms: C_5  and  N_6
REMARK    6  A    between atoms: C_7  and  C_9
REMARK    7  A    between atoms: C_16  and  C_17
REMARK    8  A    between atoms: C_20  and  N_21
REMARK    9  A    between atoms: N_21  and  S_22
REMARK   10  A    between atoms: S_22  and  C_23
REMARK                            x       y       z     vdW  Elec       q    Type
REMARK                         _______ _______ _______ _____ _____    ______ ____
ROOT
ATOM      1  C   UNL     1      -1.590  11.804  20.373  0.00  0.00    +0.000 A 
ATOM      2  C   UNL     1      -2.359  12.723  21.114  0.00  0.00    +0.000 A 
ATOM      3  C   UNL     1      -2.303  12.736  22.500  0.00  0.00    +0.000 A 
ATOM      4  C   UNL     1      -1.492  11.817  23.150  0.00  0.00    +0.000 A 
ATOM      5  C   UNL     1      -0.740  10.881  22.419  0.00  0.00    +0.000 A 
ATOM      6  C   UNL     1       0.057   9.955  23.093  0.00  0.00    +0.000 A 
ATOM      7  C   UNL     1       0.792   9.019  22.378  0.00  0.00    +0.000 A 
ATOM      8  C   UNL     1       0.729   9.020  20.991  0.00  0.00    +0.000 A 
ATOM      9  N   UNL     1      -0.018   9.938  20.322  0.00  0.00    +0.000 NA
ATOM     10  C   UNL     1      -0.766  10.852  21.006  0.00  0.00    +0.000 A 
ENDROOT
BRANCH   8  11
ATOM     11  C   UNL     1       1.469   8.037  20.166  0.00  0.00    +0.000 A 
ATOM     12  C   UNL     1       2.015   8.392  18.918  0.00  0.00    +0.000 A 
ATOM     13  C   UNL     1       2.669   7.458  18.109  0.00  0.00    +0.000 A 
ATOM     14  C   UNL     1       2.795   6.142  18.534  0.00  0.00    +0.000 A 
ATOM     15  C   UNL     1       2.309   5.765  19.784  0.00  0.00    +0.000 A 
ATOM     16  C   UNL     1       1.652   6.707  20.587  0.00  0.00    +0.000 A 
BRANCH  14  17
ATOM     17  N   UNL     1       3.441   5.208  17.675  0.00  0.00    +0.000 N 
ATOM     18  H   UNL     1       2.852   4.453  17.321  0.00  0.00    +0.000 HD
BRANCH  17  19
ATOM     19  S   UNL     1       4.946   4.602  18.141  0.00  0.00    +0.000 S 
ATOM     20  C   UNL     1       4.468   3.179  19.093  0.00  0.00    +0.000 C 
ATOM     21  O   UNL     1       5.693   4.174  16.978  0.00  0.00    +0.000 OA
ATOM     22  O   UNL     1       5.486   5.584  19.059  0.00  0.00    +0.000 OA
ENDBRANCH  17  19
ENDBRANCH  14  17
ENDBRANCH   8  11
BRANCH   1  24
ATOM     23  N   UNL     1      -2.539  11.049  18.252  0.00  0.00    +0.000 N 
ATOM     24  C   UNL     1      -1.689  11.921  18.889  0.00  0.00    +0.000 C 
ATOM     25  O   UNL     1      -0.997  12.737  18.287  0.00  0.00    +0.000 OA
ATOM     26  H   UNL     1      -3.179  10.516  18.837  0.00  0.00    +0.000 HD
BRANCH  23  27
ATOM     27  C   UNL     1      -2.754  11.087  16.820  0.00  0.00    +0.000 C 
BRANCH  27  28
ATOM     28  C   UNL     1      -4.248  11.201  16.451  0.00  0.00    +0.000 C 
BRANCH  28  30
ATOM     29  C   UNL     1      -6.019  12.773  17.001  0.00  0.00    +0.000 C 
ATOM     30  N   UNL     1      -5.088  11.770  17.527  0.00  0.00    +0.000 NA
ATOM     31  C   UNL     1      -5.849  10.703  18.184  0.00  0.00    +0.000 C 
ENDBRANCH  28  30
ENDBRANCH  27  28
ENDBRANCH  23  27
ENDBRANCH   1  24
TORSDOF 7
ENDMDL
MODEL 3
REMARK VINA RESULT:      -7.5      3.550      9.162
REMARK  Name = 
REMARK  10 active torsions:
REMARK  status: ('A' for Active; 'I' for Inactive)
REMARK    1  A    between atoms: C_1  and  N_2
REMARK    2  A    between atoms: N_2  and  C_3
REMARK    3  A    between atoms: N_2  and  C_4
REMARK    4  A    between atoms: C_4  and  C_5
REMARK    5  A    between atoms: C_5  and  N_6
REMARK    6  A    between atoms: C_7  and  C_9
REMARK    7  A    between atoms: C_16  and  C_17
REMARK    8  A    between atoms: C_20  and  N_21
REMARK    9  A    between atoms: N_21  and  S_22
REMARK   10  A    between atoms: S_22  and  C_23
REMARK                            x       y       z     vdW  Elec       q    Type
REMARK                         _______ _______ _______ _____ _____    ______ ____
ROOT
ATOM      1  C   UNL     1       4.340   3.719  17.134  0.00  0.00    +0.000 A 
ATOM      2  C   UNL     1       5.225   2.990  16.316  0.00  0.00    +0.000 A 
ATOM      3  C   UNL     1       6.077   3.646  15.438  0.00  0.00    +0.000 A 
ATOM      4  C   UNL     1       6.032   5.031  15.363  0.00  0.00    +0.000 A 
ATOM      5  C   UNL     1       5.135   5.762  16.159  0.00  0.00    +0.000 A 
ATOM      6  C   UNL     1       5.095   7.153  16.057  0.00  0.00    +0.000 A 
ATOM      7  C   UNL     1       4.202   7.882  16.830  0.00  0.00    +0.000 A 
ATOM      8  C   UNL     1       3.358   7.214  17.707  0.00  0.00    +0.000 A 
ATOM      9  N   UNL     1       3.410   5.862  17.839  0.00  0.00    +0.000 NA
ATOM     10  C   UNL     1       4.265   5.124  17.072  0.00  0.00    +0.000 A 
ENDROOT
BRANCH   8  11
ATOM     11  C   UNL     1       2.366   7.926  18.546  0.00  0.00    +0.000 A 
ATOM     12  C   UNL     1       1.619   9.006  18.040  0.00  0.00    +0.000 A 
ATOM     13  C   UNL     1       0.720   9.717  18.841  0.00  0.00    +0.000 A 
ATOM     14  C   UNL     1       0.545   9.360  20.171  0.00  0.00    +0.000 A 
ATOM     15  C   UNL     1       1.231   8.266  20.694  0.00  0.00    +0.000 A 
ATOM     16  C   UNL     1       2.133   7.560  19.886  0.00  0.00    +0.000 A 
BRANCH  14  17
ATOM     17  N   UNL     1      -0.356  10.122  20.967  0.00  0.00    +0.000 N 
ATOM     18  H   UNL     1      -1.348   9.972  20.777  0.00  0.00    +0.000 HD
BRANCH  17  19
ATOM     19  S   UNL     1      -0.046  11.769  21.172  0.00  0.00    +0.000 S 
ATOM     20  C   UNL     1      -0.920  12.103  22.683  0.00  0.00    +0.000 C 
ATOM     21  O   UNL     1       1.370  11.988  21.376  0.00  0.00    +0.000 OA
ATOM     22  O   UNL     1      -0.758  12.429  20.096  0.00  0.00    +0.000 OA
ENDBRANCH  17  19
ENDBRANCH  14  17
ENDBRANCH   8  11
BRANCH   1  24
ATOM     23  N   UNL     1       2.162   3.163  18.092  0.00  0.00    +0.000 N 
ATOM     24  C   UNL     1       3.513   2.911  18.077  0.00  0.00    +0.000 C 
ATOM     25  O   UNL     1       4.048   2.098  18.825  0.00  0.00    +0.000 OA
ATOM     26  H   UNL     1       1.790   3.738  17.340  0.00  0.00    +0.000 HD
BRANCH  23  27
ATOM     27  C   UNL     1       1.247   2.419  18.934  0.00  0.00    +0.000 C 
BRANCH  27  28
ATOM     28  C   UNL     1       0.551   3.315  19.981  0.00  0.00    +0.000 C 
BRANCH  28  30
ATOM     29  C   UNL     1       1.957   2.135  21.576  0.00  0.00    +0.000 C 
ATOM     30  N   UNL     1       1.269   3.394  21.272  0.00  0.00    +0.000 NA
ATOM     31  C   UNL     1       2.251   4.482  21.231  0.00  0.00    +0.000 C 
ENDBRANCH  28  30
ENDBRANCH  27  28
ENDBRANCH  23  27
ENDBRANCH   1  24
TORSDOF 7
ENDMDL
MODEL 4
REMARK VINA RESULT:      -7.4      1.256      1.508
REMARK  Name = 
REMARK  10 active torsions:
REMARK  status: ('A' for Active; 'I' for Inactive)
REMARK    1  A    between atoms: C_1  and  N_2
REMARK    2  A    between atoms: N_2  and  C_3
REMARK    3  A    between atoms: N_2  and  C_4
REMARK    4  A    between atoms: C_4  and  C_5
REMARK    5  A    between atoms: C_5  and  N_6
REMARK    6  A    between atoms: C_7  and  C_9
REMARK    7  A    between atoms: C_16  and  C_17
REMARK    8  A    between atoms: C_20  and  N_21
REMARK    9  A    between atoms: N_21  and  S_22
REMARK   10  A    between atoms: S_22  and  C_23
REMARK                            x       y       z     vdW  Elec       q    Type
REMARK                         _______ _______ _______ _____ _____    ______ ____
ROOT
ATOM      1  C   UNL     1      -1.476  11.488  20.363  0.00  0.00    +0.000 A 
ATOM      2  C   UNL     1      -2.240  12.442  21.065  0.00  0.00    +0.000 A 
ATOM      3  C   UNL     1      -2.173  12.520  22.449  0.00  0.00    +0.000 A 
ATOM      4  C   UNL     1      -1.357  11.634  23.136  0.00  0.00    +0.000 A 
ATOM      5  C   UNL     1      -0.611  10.664  22.444  0.00  0.00    +0.000 A 
ATOM      6  C   UNL     1       0.191   9.771  23.155  0.00  0.00    +0.000 A 
ATOM      7  C   UNL     1       0.921   8.801  22.480  0.00  0.00    +0.000 A 
ATOM      8  C   UNL     1       0.847   8.736  21.095  0.00  0.00    +0.000 A 
ATOM      9  N   UNL     1       0.095   9.621  20.389  0.00  0.00    +0.000 NA
ATOM     10  C   UNL     1      -0.648  10.568  21.035  0.00  0.00    +0.000 A 
ENDROOT
BRANCH   8  11
ATOM     11  C   UNL     1       1.581   7.715  20.313  0.00  0.00    +0.000 A 
ATOM     12  C   UNL     1       1.722   6.395  20.781  0.00  0.00    +0.000 A 
ATOM     13  C   UNL     1       2.458   5.439  20.074  0.00  0.00    +0.000 A 
ATOM     14  C   UNL     1       3.070   5.783  18.876  0.00  0.00    +0.000 A 
ATOM     15  C   UNL     1       2.912   7.066  18.357  0.00  0.00    +0.000 A 
ATOM     16  C   UNL     1       2.175   8.020  19.073  0.00  0.00    +0.000 A 
BRANCH  14  17
ATOM     17  N   UNL     1       3.836   4.795  18.195  0.00  0.00    +0.000 N 
ATOM     18  H   UNL     1       3.338   3.935  17.958  0.00  0.00    +0.000 HD
BRANCH  17  19
ATOM     19  S   UNL     1       5.375   4.431  18.784  0.00  0.00    +0.000 S 
ATOM     20  C   UNL     1       6.307   4.316  17.274  0.00  0.00    +0.000 C 
ATOM     21  O   UNL     1       5.878   5.532  19.577  0.00  0.00    +0.000 OA
ATOM     22  O   UNL     1       5.268   3.097  19.338  0.00  0.00    +0.000 OA
ENDBRANCH  17  19
ENDBRANCH  14  17
ENDBRANCH   8  11
BRANCH   1  24
ATOM     23  N   UNL     1      -1.636  10.328  18.219  0.00  0.00    +0.000 N 
ATOM     24  C   UNL     1      -1.587  11.534  18.876  0.00  0.00    +0.000 C 
ATOM     25  O   UNL     1      -1.586  12.613  18.291  0.00  0.00    +0.000 OA
ATOM     26  H   UNL     1      -1.783   9.496  18.787  0.00  0.00    +0.000 HD
BRANCH  23  27
ATOM     27  C   UNL     1      -1.782  10.238  16.780  0.00  0.00    +0.000 C 
BRANCH  27  28
ATOM     28  C   UNL     1      -2.996   9.380  16.364  0.00  0.00    +0.000 C 
BRANCH  28  30
ATOM     29  C   UNL     1      -4.313  11.407  16.101  0.00  0.00    +0.000 C 
ATOM     30  N   UNL     1      -3.978  10.101  15.525  0.00  0.00    +0.000 NA
ATOM     31  C   UNL     1      -3.436  10.293  14.176  0.00  0.00    +0.000 C 
ENDBRANCH  28  30
ENDBRANCH  27  28
ENDBRANCH  23  27
ENDBRANCH   1  24
TORSDOF 7
ENDMDL
MODEL 5
REMARK VINA RESULT:      -7.4      3.482      9.099
REMARK  Name = 
REMARK  10 active torsions:
REMARK  status: ('A' for Active; 'I' for Inactive)
REMARK    1  A    between atoms: C_1  and  N_2
REMARK    2  A    between atoms: N_2  and  C_3
REMARK    3  A    between atoms: N_2  and  C_4
REMARK    4  A    between atoms: C_4  and  C_5
REMARK    5  A    between atoms: C_5  and  N_6
REMARK    6  A    between atoms: C_7  and  C_9
REMARK    7  A    between atoms: C_16  and  C_17
REMARK    8  A    between atoms: C_20  and  N_21
REMARK    9  A    between atoms: N_21  and  S_22
REMARK   10  A    between atoms: S_22  and  C_23
REMARK                            x       y       z     vdW  Elec       q    Type
REMARK                         _______ _______ _______ _____ _____    ______ ____
ROOT
ATOM      1  C   UNL     1       4.224   3.729  16.908  0.00  0.00    +0.000 A 
ATOM      2  C   UNL     1       5.134   3.030  16.091  0.00  0.00    +0.000 A 
ATOM      3  C   UNL     1       6.087   3.715  15.349  0.00  0.00    +0.000 A 
ATOM      4  C   UNL     1       6.120   5.101  15.410  0.00  0.00    +0.000 A 
ATOM      5  C   UNL     1       5.200   5.805  16.204  0.00  0.00    +0.000 A 
ATOM      6  C   UNL     1       5.240   7.199  16.239  0.00  0.00    +0.000 A 
ATOM      7  C   UNL     1       4.325   7.903  17.010  0.00  0.00    +0.000 A 
ATOM      8  C   UNL     1       3.379   7.205  17.749  0.00  0.00    +0.000 A 
ATOM      9  N   UNL     1       3.351   5.846  17.750  0.00  0.00    +0.000 NA
ATOM     10  C   UNL     1       4.227   5.136  16.980  0.00  0.00    +0.000 A 
ENDROOT
BRANCH   8  11
ATOM     11  C   UNL     1       2.361   7.891  18.577  0.00  0.00    +0.000 A 
ATOM     12  C   UNL     1       1.595   8.956  18.064  0.00  0.00    +0.000 A 
ATOM     13  C   UNL     1       0.669   9.644  18.855  0.00  0.00    +0.000 A 
ATOM     14  C   UNL     1       0.485   9.278  20.182  0.00  0.00    +0.000 A 
ATOM     15  C   UNL     1       1.190   8.198  20.711  0.00  0.00    +0.000 A 
ATOM     16  C   UNL     1       2.118   7.517  19.912  0.00  0.00    +0.000 A 
BRANCH  14  17
ATOM     17  N   UNL     1      -0.444  10.017  20.968  0.00  0.00    +0.000 N 
ATOM     18  H   UNL     1      -1.400  10.047  20.610  0.00  0.00    +0.000 HD
BRANCH  17  19
ATOM     19  S   UNL     1       0.016  11.542  21.526  0.00  0.00    +0.000 S 
ATOM     20  C   UNL     1      -0.887  12.603  20.422  0.00  0.00    +0.000 C 
ATOM     21  O   UNL     1      -0.456  11.742  22.879  0.00  0.00    +0.000 OA
ATOM     22  O   UNL     1       1.423  11.662  21.198  0.00  0.00    +0.000 OA
ENDBRANCH  17  19
ENDBRANCH  14  17
ENDBRANCH   8  11
BRANCH   1  24
ATOM     23  N   UNL     1       2.002   3.360  17.855  0.00  0.00    +0.000 N 
ATOM     24  C   UNL     1       3.282   2.885  17.700  0.00  0.00    +0.000 C 
ATOM     25  O   UNL     1       3.674   1.842  18.216  0.00  0.00    +0.000 OA
ATOM     26  H   UNL     1       1.726   4.148  17.272  0.00  0.00    +0.000 HD
BRANCH  23  27
ATOM     27  C   UNL     1       0.983   2.616  18.569  0.00  0.00    +0.000 C 
BRANCH  27  28
ATOM     28  C   UNL     1       0.717   3.186  19.978  0.00  0.00    +0.000 C 
BRANCH  28  30
ATOM     29  C   UNL     1       2.368   4.416  21.273  0.00  0.00    +0.000 C 
ATOM     30  N   UNL     1       1.877   3.088  20.892  0.00  0.00    +0.000 NA
ATOM     31  C   UNL     1       1.499   2.348  22.100  0.00  0.00    +0.000 C 
ENDBRANCH  28  30
ENDBRANCH  27  28
ENDBRANCH  23  27
ENDBRANCH   1  24
TORSDOF 7
ENDMDL
MODEL 6
REMARK VINA RESULT:      -7.3      2.803      4.076
REMARK  Name = 
REMARK  10 active torsions:
REMARK  status: ('A' for Active; 'I' for Inactive)
REMARK    1  A    between atoms: C_1  and  N_2
REMARK    2  A    between atoms: N_2  and  C_3
REMARK    3  A    between atoms: N_2  and  C_4
REMARK    4  A    between atoms: C_4  and  C_5
REMARK    5  A    between atoms: C_5  and  N_6
REMARK    6  A    between atoms: C_7  and  C_9
REMARK    7  A    between atoms: C_16  and  C_17
REMARK    8  A    between atoms: C_20  and  N_21
REMARK    9  A    between atoms: N_21  and  S_22
REMARK   10  A    between atoms: S_22  and  C_23
REMARK                            x       y       z     vdW  Elec       q    Type
REMARK                         _______ _______ _______ _____ _____    ______ ____
ROOT
ATOM      1  C   UNL     1      -0.151  12.385  20.576  0.00  0.00    +0.000 A 
ATOM      2  C   UNL     1      -0.949  13.303  21.287  0.00  0.00    +0.000 A 
ATOM      3  C   UNL     1      -1.550  12.939  22.484  0.00  0.00    +0.000 A 
ATOM      4  C   UNL     1      -1.368  11.649  22.963  0.00  0.00    +0.000 A 
ATOM      5  C   UNL     1      -0.594  10.721  22.247  0.00  0.00    +0.000 A 
ATOM      6  C   UNL     1      -0.437   9.424  22.738  0.00  0.00    +0.000 A 
ATOM      7  C   UNL     1       0.315   8.498  22.030  0.00  0.00    +0.000 A 
ATOM      8  C   UNL     1       0.913   8.877  20.836  0.00  0.00    +0.000 A 
ATOM      9  N   UNL     1       0.796  10.147  20.363  0.00  0.00    +0.000 NA
ATOM     10  C   UNL     1       0.041  11.067  21.033  0.00  0.00    +0.000 A 
ENDROOT
BRANCH   8  11
ATOM     11  C   UNL     1       1.712   7.935  20.018  0.00  0.00    +0.000 A 
ATOM     12  C   UNL     1       2.172   8.288  18.735  0.00  0.00    +0.000 A 
ATOM     13  C   UNL     1       2.881   7.386  17.935  0.00  0.00    +0.000 A 
ATOM     14  C   UNL     1       3.149   6.107  18.404  0.00  0.00    +0.000 A 
ATOM     15  C   UNL     1       2.752   5.738  19.688  0.00  0.00    +0.000 A 
ATOM     16  C   UNL     1       2.039   6.647  20.482  0.00  0.00    +0.000 A 
BRANCH  14  17
ATOM     17  N   UNL     1       3.848   5.203  17.554  0.00  0.00    +0.000 N 
ATOM     18  H   UNL     1       3.404   4.294  17.415  0.00  0.00    +0.000 HD
BRANCH  17  19
ATOM     19  S   UNL     1       5.508   5.009  17.788  0.00  0.00    +0.000 S 
ATOM     20  C   UNL     1       5.985   4.228  16.263  0.00  0.00    +0.000 C 
ATOM     21  O   UNL     1       6.152   6.300  17.889  0.00  0.00    +0.000 OA
ATOM     22  O   UNL     1       5.634   4.024  18.844  0.00  0.00    +0.000 OA
ENDBRANCH  17  19
ENDBRANCH  14  17
ENDBRANCH   8  11
BRANCH   1  24
ATOM     23  N   UNL     1       1.860  12.864  19.274  0.00  0.00    +0.000 N 
ATOM     24  C   UNL     1       0.487  12.907  19.333  0.00  0.00    +0.000 C 
ATOM     25  O   UNL     1      -0.204  13.389  18.440  0.00  0.00    +0.000 OA
ATOM     26  H   UNL     1       2.337  12.315  19.986  0.00  0.00    +0.000 HD
BRANCH  23  27
ATOM     27  C   UNL     1       2.597  13.304  18.107  0.00  0.00    +0.000 C 
BRANCH  27  28
ATOM     28  C   UNL     1       3.539  14.486  18.417  0.00  0.00    +0.000 C 
BRANCH  28  30
ATOM     29  C   UNL     1       3.873  16.328  19.969  0.00  0.00    +0.000 C 
ATOM     30  N   UNL     1       2.894  15.584  19.170  0.00  0.00    +0.000 NA
ATOM     31  C   UNL     1       2.230  16.503  18.241  0.00  0.00    +0.000 C 
ENDBRANCH  28  30
ENDBRANCH  27  28
ENDBRANCH  23  27
ENDBRANCH   1  24
TORSDOF 7
ENDMDL
MODEL 7
REMARK VINA RESULT:      -7.3      3.060      4.385
REMARK  Name = 
REMARK  10 active torsions:
REMARK  status: ('A' for Active; 'I' for Inactive)
REMARK    1  A    between atoms: C_1  and  N_2
REMARK    2  A    between atoms: N_2  and  C_3
REMARK    3  A    between atoms: N_2  and  C_4
REMARK    4  A    between atoms: C_4  and  C_5
REMARK    5  A    between atoms: C_5  and  N_6
REMARK    6  A    between atoms: C_7  and  C_9
REMARK    7  A    between atoms: C_16  and  C_17
REMARK    8  A    between atoms: C_20  and  N_21
REMARK    9  A    between atoms: N_21  and  S_22
REMARK   10  A    between atoms: S_22  and  C_23
REMARK                            x       y       z     vdW  Elec       q    Type
REMARK                         _______ _______ _______ _____ _____    ______ ____
ROOT
ATOM      1  C   UNL     1       0.002  12.225  20.923  0.00  0.00    +0.000 A 
ATOM      2  C   UNL     1      -0.827  13.041  21.718  0.00  0.00    +0.000 A 
ATOM      3  C   UNL     1      -1.505  12.511  22.807  0.00  0.00    +0.000 A 
ATOM      4  C   UNL     1      -1.370  11.160  23.093  0.00  0.00    +0.000 A 
ATOM      5  C   UNL     1      -0.564  10.336  22.290  0.00  0.00    +0.000 A 
ATOM      6  C   UNL     1      -0.455   8.976  22.585  0.00  0.00    +0.000 A 
ATOM      7  C   UNL     1       0.329   8.152  21.789  0.00  0.00    +0.000 A 
ATOM      8  C   UNL     1       1.004   8.696  20.704  0.00  0.00    +0.000 A 
ATOM      9  N   UNL     1       0.932  10.025  20.426  0.00  0.00    +0.000 NA
ATOM     10  C   UNL     1       0.149  10.848  21.183  0.00  0.00    +0.000 A 
ENDROOT
BRANCH   8  11
ATOM     11  C   UNL     1       1.840   7.872  19.800  0.00  0.00    +0.000 A 
ATOM     12  C   UNL     1       2.236   8.345  18.535  0.00  0.00    +0.000 A 
ATOM     13  C   UNL     1       2.980   7.554  17.654  0.00  0.00    +0.000 A 
ATOM     14  C   UNL     1       3.350   6.267  18.022  0.00  0.00    +0.000 A 
ATOM     15  C   UNL     1       3.018   5.783  19.286  0.00  0.00    +0.000 A 
ATOM     16  C   UNL     1       2.269   6.581  20.162  0.00  0.00    +0.000 A 
BRANCH  14  17
ATOM     17  N   UNL     1       4.082   5.477  17.092  0.00  0.00    +0.000 N 
ATOM     18  H   UNL     1       4.154   4.484  17.317  0.00  0.00    +0.000 HD
BRANCH  17  19
ATOM     19  S   UNL     1       5.570   6.059  16.547  0.00  0.00    +0.000 S 
ATOM     20  C   UNL     1       6.421   4.543  16.176  0.00  0.00    +0.000 C 
ATOM     21  O   UNL     1       5.392   6.822  15.331  0.00  0.00    +0.000 OA
ATOM     22  O   UNL     1       6.203   6.644  17.712  0.00  0.00    +0.000 OA
ENDBRANCH  17  19
ENDBRANCH  14  17
ENDBRANCH   8  11
BRANCH   1  24
ATOM     23  N   UNL     1       2.054  13.193  20.016  0.00  0.00    +0.000 N 
ATOM     24  C   UNL     1       0.723  12.916  19.815  0.00  0.00    +0.000 C 
ATOM     25  O   UNL     1       0.118  13.251  18.800  0.00  0.00    +0.000 OA
ATOM     26  H   UNL     1       2.504  12.748  20.814  0.00  0.00    +0.000 HD
BRANCH  23  27
ATOM     27  C   UNL     1       2.874  13.825  19.003  0.00  0.00    +0.000 C 
BRANCH  27  28
ATOM     28  C   UNL     1       2.773  15.365  19.040  0.00  0.00    +0.000 C 
BRANCH  28  30
ATOM     29  C   UNL     1       4.828  15.103  17.768  0.00  0.00    +0.000 C 
ATOM     30  N   UNL     1       3.825  16.052  18.261  0.00  0.00    +0.000 NA
ATOM     31  C   UNL     1       3.225  16.754  17.122  0.00  0.00    +0.000 C 
ENDBRANCH  28  30
ENDBRANCH  27  28
ENDBRANCH  23  27
ENDBRANCH   1  24
TORSDOF 7
ENDMDL
MODEL 8
REMARK VINA RESULT:      -7.2      3.088      4.423
REMARK  Name = 
REMARK  10 active torsions:
REMARK  status: ('A' for Active; 'I' for Inactive)
REMARK    1  A    between atoms: C_1  and  N_2
REMARK    2  A    between atoms: N_2  and  C_3
REMARK    3  A    between atoms: N_2  and  C_4
REMARK    4  A    between atoms: C_4  and  C_5
REMARK    5  A    between atoms: C_5  and  N_6
REMARK    6  A    between atoms: C_7  and  C_9
REMARK    7  A    between atoms: C_16  and  C_17
REMARK    8  A    between atoms: C_20  and  N_21
REMARK    9  A    between atoms: N_21  and  S_22
REMARK   10  A    between atoms: S_22  and  C_23
REMARK                            x       y       z     vdW  Elec       q    Type
REMARK                         _______ _______ _______ _____ _____    ______ ____
ROOT
ATOM      1  C   UNL     1       0.103  12.335  20.579  0.00  0.00    +0.000 A 
ATOM      2  C   UNL     1      -0.676  13.191  21.383  0.00  0.00    +0.000 A 
ATOM      3  C   UNL     1      -1.242  12.729  22.564  0.00  0.00    +0.000 A 
ATOM      4  C   UNL     1      -1.045  11.406  22.933  0.00  0.00    +0.000 A 
ATOM      5  C   UNL     1      -0.289  10.541  22.124  0.00  0.00    +0.000 A 
ATOM      6  C   UNL     1      -0.116   9.210  22.506  0.00  0.00    +0.000 A 
ATOM      7  C   UNL     1       0.618   8.346  21.705  0.00  0.00    +0.000 A 
ATOM      8  C   UNL     1       1.181   8.822  20.528  0.00  0.00    +0.000 A 
ATOM      9  N   UNL     1       1.047  10.125  20.162  0.00  0.00    +0.000 NA
ATOM     10  C   UNL     1       0.310  10.985  20.924  0.00  0.00    +0.000 A 
ENDROOT
BRANCH   8  11
ATOM     11  C   UNL     1       1.957   7.952  19.615  0.00  0.00    +0.000 A 
ATOM     12  C   UNL     1       2.368   6.663  20.005  0.00  0.00    +0.000 A 
ATOM     13  C   UNL     1       3.147   5.855  19.171  0.00  0.00    +0.000 A 
ATOM     14  C   UNL     1       3.531   6.320  17.919  0.00  0.00    +0.000 A 
ATOM     15  C   UNL     1       3.102   7.571  17.480  0.00  0.00    +0.000 A 
ATOM     16  C   UNL     1       2.325   8.375  18.324  0.00  0.00    +0.000 A 
BRANCH  14  17
ATOM     17  N   UNL     1       4.347   5.485  17.105  0.00  0.00    +0.000 N 
ATOM     18  H   UNL     1       4.079   4.500  17.074  0.00  0.00    +0.000 HD
BRANCH  17  19
ATOM     19  S   UNL     1       6.024   5.627  17.243  0.00  0.00    +0.000 S 
ATOM     20  C   UNL     1       6.574   4.433  16.047  0.00  0.00    +0.000 C 
ATOM     21  O   UNL     1       6.447   6.949  16.834  0.00  0.00    +0.000 OA
ATOM     22  O   UNL     1       6.345   5.112  18.559  0.00  0.00    +0.000 OA
ENDBRANCH  17  19
ENDBRANCH  14  17
ENDBRANCH   8  11
BRANCH   1  24
ATOM     23  N   UNL     1       2.072  13.094  19.348  0.00  0.00    +0.000 N 
ATOM     24  C   UNL     1       0.705  12.957  19.364  0.00  0.00    +0.000 C 
ATOM     25  O   UNL     1      -0.016  13.361  18.456  0.00  0.00    +0.000 OA
ATOM     26  H   UNL     1       2.596  12.599  20.068  0.00  0.00    +0.000 HD
BRANCH  23  27
ATOM     27  C   UNL     1       2.781  13.646  18.211  0.00  0.00    +0.000 C 
BRANCH  27  28
ATOM     28  C   UNL     1       3.113  15.142  18.395  0.00  0.00    +0.000 C 
BRANCH  28  30
ATOM     29  C   UNL     1       5.495  14.744  18.121  0.00  0.00    +0.000 C 
ATOM     30  N   UNL     1       4.465  15.392  18.938  0.00  0.00    +0.000 NA
ATOM     31  C   UNL     1       4.725  16.834  18.987  0.00  0.00    +0.000 C 
ENDBRANCH  28  30
ENDBRANCH  27  28
ENDBRANCH  23  27
ENDBRANCH   1  24
TORSDOF 7
ENDMDL
MODEL 9
REMARK VINA RESULT:      -7.2      3.742      9.414
REMARK  Name = 
REMARK  10 active torsions:
REMARK  status: ('A' for Active; 'I' for Inactive)
REMARK    1  A    between atoms: C_1  and  N_2
REMARK    2  A    between atoms: N_2  and  C_3
REMARK    3  A    between atoms: N_2  and  C_4
REMARK    4  A    between atoms: C_4  and  C_5
REMARK    5  A    between atoms: C_5  and  N_6
REMARK    6  A    between atoms: C_7  and  C_9
REMARK    7  A    between atoms: C_16  and  C_17
REMARK    8  A    between atoms: C_20  and  N_21
REMARK    9  A    between atoms: N_21  and  S_22
REMARK   10  A    between atoms: S_22  and  C_23
REMARK                            x       y       z     vdW  Elec       q    Type
REMARK                         _______ _______ _______ _____ _____    ______ ____
ROOT
ATOM      1  C   UNL     1       4.754   3.708  16.909  0.00  0.00    +0.000 A 
ATOM      2  C   UNL     1       5.586   3.067  15.970  0.00  0.00    +0.000 A 
ATOM      3  C   UNL     1       6.230   3.798  14.982  0.00  0.00    +0.000 A 
ATOM      4  C   UNL     1       6.029   5.169  14.919  0.00  0.00    +0.000 A 
ATOM      5  C   UNL     1       5.181   5.811  15.837  0.00  0.00    +0.000 A 
ATOM      6  C   UNL     1       4.980   7.189  15.746  0.00  0.00    +0.000 A 
ATOM      7  C   UNL     1       4.133   7.829  16.641  0.00  0.00    +0.000 A 
ATOM      8  C   UNL     1       3.498   7.086  17.627  0.00  0.00    +0.000 A 
ATOM      9  N   UNL     1       3.712   5.749  17.746  0.00  0.00    +0.000 NA
ATOM     10  C   UNL     1       4.522   5.096  16.862  0.00  0.00    +0.000 A 
ENDROOT
BRANCH   8  11
ATOM     11  C   UNL     1       2.566   7.699  18.601  0.00  0.00    +0.000 A 
ATOM     12  C   UNL     1       2.356   7.131  19.872  0.00  0.00    +0.000 A 
ATOM     13  C   UNL     1       1.439   7.673  20.777  0.00  0.00    +0.000 A 
ATOM     14  C   UNL     1       0.709   8.803  20.431  0.00  0.00    +0.000 A 
ATOM     15  C   UNL     1       0.926   9.421  19.201  0.00  0.00    +0.000 A 
ATOM     16  C   UNL     1       1.844   8.869  18.298  0.00  0.00    +0.000 A 
BRANCH  14  17
ATOM     17  N   UNL     1      -0.237   9.314  21.364  0.00  0.00    +0.000 N 
ATOM     18  H   UNL     1      -1.173   8.909  21.310  0.00  0.00    +0.000 HD
BRANCH  17  19
ATOM     19  S   UNL     1      -0.339  10.987  21.564  0.00  0.00    +0.000 S 
ATOM     20  C   UNL     1      -1.213  11.100  23.107  0.00  0.00    +0.000 C 
ATOM     21  O   UNL     1       0.985  11.552  21.718  0.00  0.00    +0.000 OA
ATOM     22  O   UNL     1      -1.231  11.445  20.518  0.00  0.00    +0.000 OA
ENDBRANCH  17  19
ENDBRANCH  14  17
ENDBRANCH   8  11
BRANCH   1  24
ATOM     23  N   UNL     1       4.753   2.852  19.197  0.00  0.00    +0.000 N 
ATOM     24  C   UNL     1       4.160   2.828  17.957  0.00  0.00    +0.000 C 
ATOM     25  O   UNL     1       3.215   2.093  17.683  0.00  0.00    +0.000 OA
ATOM     26  H   UNL     1       5.426   3.594  19.374  0.00  0.00    +0.000 HD
BRANCH  23  27
ATOM     27  C   UNL     1       4.248   2.073  20.310  0.00  0.00    +0.000 C 
BRANCH  27  28
ATOM     28  C   UNL     1       3.241   2.864  21.173  0.00  0.00    +0.000 C 
BRANCH  28  30
ATOM     29  C   UNL     1       1.081   2.327  22.151  0.00  0.00    +0.000 C 
ATOM     30  N   UNL     1       1.827   2.524  20.904  0.00  0.00    +0.000 NA
ATOM     31  C   UNL     1       1.195   3.596  20.128  0.00  0.00    +0.000 C 
ENDBRANCH  28  30
ENDBRANCH  27  28
ENDBRANCH  23  27
ENDBRANCH   1  24
TORSDOF 7
ENDMDL
