MODEL 1
REMARK VINA RESULT:      -8.7      0.000      0.000
REMARK  Name = 
REMARK  7 active torsions:
REMARK  status: ('A' for Active; 'I' for Inactive)
REMARK    1  A    between atoms: C_2  and  C_3
REMARK    2  A    between atoms: C_3  and  C_4
REMARK    3  A    between atoms: N_10  and  C_11
REMARK    4  A    between atoms: C_14  and  C_15
REMARK    5  A    between atoms: C_15  and  C_16
REMARK    6  A    between atoms: C_16  and  N_17
REMARK    7  A    between atoms: C_20  and  C_21
REMARK                            x       y       z     vdW  Elec       q    Type
REMARK                         _______ _______ _______ _____ _____    ______ ____
ROOT
ATOM      1  C   UNL     1       1.694   7.875  20.267  0.00  0.00    +0.000 C 
ENDROOT
BRANCH   1   5
ATOM      2  C   UNL     1      -0.452  11.299  22.052  0.00  0.00    +0.000 C 
ATOM      3  C   UNL     1      -0.330   9.962  22.800  0.00  0.00    +0.000 C 
ATOM      4  C   UNL     1       0.809   9.101  22.277  0.00  0.00    +0.000 C 
ATOM      5  C   UNL     1       0.603   8.820  20.788  0.00  0.00    +0.000 C 
ATOM      6  C   UNL     1       0.613  10.170  20.042  0.00  0.00    +0.000 C 
ATOM      7  C   UNL     1      -0.505  11.097  20.530  0.00  0.00    +0.000 C 
BRANCH   2  10
ATOM      8  O   UNL     1      -0.377  13.738  23.485  0.00  0.00    +0.000 OA
ATOM      9  C   UNL     1      -1.469  13.241  23.213  0.00  0.00    +0.000 C 
ATOM     10  N   UNL     1      -1.611  12.067  22.506  0.00  0.00    +0.000 N 
ATOM     11  H   UNL     1      -2.530  11.660  22.396  0.00  0.00    +0.000 HD
BRANCH   9  12
ATOM     12  C   UNL     1      -2.764  13.862  23.680  0.00  0.00    +0.000 C 
BRANCH  12  13
ATOM     13  C   UNL     1      -3.900  13.376  22.773  0.00  0.00    +0.000 C 
ATOM     14  C   UNL     1      -4.945  14.447  22.428  0.00  0.00    +0.000 C 
ATOM     15  C   UNL     1      -5.963  14.684  23.536  0.00  0.00    +0.000 C 
ATOM     16  C   UNL     1      -6.490  13.368  24.092  0.00  0.00    +0.000 C 
ATOM     17  C   UNL     1      -5.346  12.433  24.442  0.00  0.00    +0.000 C 
ATOM     18  O   UNL     1      -4.524  12.198  23.303  0.00  0.00    +0.000 OA
ENDBRANCH  12  13
ENDBRANCH   9  12
ENDBRANCH   2  10
ENDBRANCH   1   5
BRANCH   1  19
ATOM     19  C   UNL     1       1.904   6.570  21.083  0.00  0.00    +0.000 C 
BRANCH  19  20
ATOM     20  N   UNL     1       1.825   5.330  20.275  0.00  0.00    +0.000 NA
ATOM     21  C   UNL     1       1.882   5.628  18.838  0.00  0.00    +0.000 C 
ATOM     22  C   UNL     1       2.032   4.408  17.926  0.00  0.00    +0.000 C 
ATOM     23  C   UNL     1       3.105   3.404  18.372  0.00  0.00    +0.000 C 
ATOM     24  C   UNL     1       2.837   3.059  19.839  0.00  0.00    +0.000 C 
ATOM     25  C   UNL     1       2.769   4.300  20.738  0.00  0.00    +0.000 C 
BRANCH  23  26
ATOM     26  C   UNL     1       4.549   3.786  18.066  0.00  0.00    +0.000 A 
ATOM     27  N   UNL     1       5.447   3.964  19.048  0.00  0.00    +0.000 NA
ATOM     28  O   UNL     1       6.626   4.378  18.437  0.00  0.00    +0.000 OA
ATOM     29  C   UNL     1       6.442   4.442  17.081  0.00  0.00    +0.000 A 
ATOM     30  C   UNL     1       7.381   4.853  16.138  0.00  0.00    +0.000 A 
ATOM     31  C   UNL     1       6.949   4.877  14.812  0.00  0.00    +0.000 A 
ATOM     32 CL   UNL     1       8.009   5.385  13.546  0.00  0.00    +0.000 Cl
ATOM     33  C   UNL     1       5.652   4.502  14.459  0.00  0.00    +0.000 A 
ATOM     34  C   UNL     1       4.749   4.085  15.448  0.00  0.00    +0.000 A 
ATOM     35  C   UNL     1       5.144   4.088  16.802  0.00  0.00    +0.000 A 
ENDBRANCH  23  26
ENDBRANCH  19  20
ENDBRANCH   1  19
TORSDOF 7
ENDMDL
MODEL 2
REMARK VINA RESULT:      -8.3      1.218      1.345
REMARK  Name = 
REMARK  7 active torsions:
REMARK  status: ('A' for Active; 'I' for Inactive)
REMARK    1  A    between atoms: C_2  and  C_3
REMARK    2  A    between atoms: C_3  and  C_4
REMARK    3  A    between atoms: N_10  and  C_11
REMARK    4  A    between atoms: C_14  and  C_15
REMARK    5  A    between atoms: C_15  and  C_16
REMARK    6  A    between atoms: C_16  and  N_17
REMARK    7  A    between atoms: C_20  and  C_21
REMARK                            x       y       z     vdW  Elec       q    Type
REMARK                         _______ _______ _______ _____ _____    ______ ____
ROOT
ATOM      1  C   UNL     1       1.693   8.079  21.138  0.00  0.00    +0.000 C 
ENDROOT
BRANCH   1   5
ATOM      2  C   UNL     1      -0.982  11.479  22.026  0.00  0.00    +0.000 C 
ATOM      3  C   UNL     1      -0.900  10.267  22.968  0.00  0.00    +0.000 C 
ATOM      4  C   UNL     1       0.374   9.461  22.773  0.00  0.00    +0.000 C 
ATOM      5  C   UNL     1       0.460   8.972  21.327  0.00  0.00    +0.000 C 
ATOM      6  C   UNL     1       0.506  10.209  20.406  0.00  0.00    +0.000 C 
ATOM      7  C   UNL     1      -0.747  11.079  20.562  0.00  0.00    +0.000 C 
BRANCH   2  10
ATOM      8  O   UNL     1      -1.342  14.285  22.047  0.00  0.00    +0.000 OA
ATOM      9  C   UNL     1      -2.326  13.559  22.178  0.00  0.00    +0.000 C 
ATOM     10  N   UNL     1      -2.258  12.183  22.164  0.00  0.00    +0.000 N 
ATOM     11  H   UNL     1      -3.086  11.641  22.371  0.00  0.00    +0.000 HD
BRANCH   9  12
ATOM     12  C   UNL     1      -3.707  14.124  22.414  0.00  0.00    +0.000 C 
BRANCH  12  13
ATOM     13  C   UNL     1      -4.407  14.296  21.061  0.00  0.00    +0.000 C 
ATOM     14  C   UNL     1      -5.669  15.171  21.103  0.00  0.00    +0.000 C 
ATOM     15  C   UNL     1      -6.900  14.439  21.621  0.00  0.00    +0.000 C 
ATOM     16  C   UNL     1      -7.040  13.067  20.975  0.00  0.00    +0.000 C 
ATOM     17  C   UNL     1      -5.735  12.295  21.061  0.00  0.00    +0.000 C 
ATOM     18  O   UNL     1      -4.678  13.028  20.448  0.00  0.00    +0.000 OA
ENDBRANCH  12  13
ENDBRANCH   9  12
ENDBRANCH   2  10
ENDBRANCH   1   5
BRANCH   1  19
ATOM     19  C   UNL     1       1.979   7.621  19.680  0.00  0.00    +0.000 C 
BRANCH  19  20
ATOM     20  N   UNL     1       1.980   6.150  19.496  0.00  0.00    +0.000 NA
ATOM     21  C   UNL     1       2.050   5.794  18.073  0.00  0.00    +0.000 C 
ATOM     22  C   UNL     1       2.281   4.308  17.784  0.00  0.00    +0.000 C 
ATOM     23  C   UNL     1       3.395   3.661  18.618  0.00  0.00    +0.000 C 
ATOM     24  C   UNL     1       3.118   3.977  20.090  0.00  0.00    +0.000 C 
ATOM     25  C   UNL     1       2.968   5.481  20.357  0.00  0.00    +0.000 C 
BRANCH  23  26
ATOM     26  C   UNL     1       4.823   3.951  18.168  0.00  0.00    +0.000 A 
ATOM     27  N   UNL     1       5.821   4.086  19.055  0.00  0.00    +0.000 NA
ATOM     28  O   UNL     1       6.958   4.419  18.326  0.00  0.00    +0.000 OA
ATOM     29  C   UNL     1       6.648   4.477  16.993  0.00  0.00    +0.000 A 
ATOM     30  C   UNL     1       7.513   4.819  15.957  0.00  0.00    +0.000 A 
ATOM     31  C   UNL     1       6.957   4.853  14.679  0.00  0.00    +0.000 A 
ATOM     32 CL   UNL     1       7.917   5.280  13.307  0.00  0.00    +0.000 Cl
ATOM     33  C   UNL     1       5.611   4.554  14.459  0.00  0.00    +0.000 A 
ATOM     34  C   UNL     1       4.785   4.205  15.538  0.00  0.00    +0.000 A 
ATOM     35  C   UNL     1       5.310   4.200  16.847  0.00  0.00    +0.000 A 
ENDBRANCH  23  26
ENDBRANCH  19  20
ENDBRANCH   1  19
TORSDOF 7
ENDMDL
MODEL 3
REMARK VINA RESULT:      -8.2      4.719      9.817
REMARK  Name = 
REMARK  7 active torsions:
REMARK  status: ('A' for Active; 'I' for Inactive)
REMARK    1  A    between atoms: C_2  and  C_3
REMARK    2  A    between atoms: C_3  and  C_4
REMARK    3  A    between atoms: N_10  and  C_11
REMARK    4  A    between atoms: C_14  and  C_15
REMARK    5  A    between atoms: C_15  and  C_16
REMARK    6  A    between atoms: C_16  and  N_17
REMARK    7  A    between atoms: C_20  and  C_21
REMARK                            x       y       z     vdW  Elec       q    Type
REMARK                         _______ _______ _______ _____ _____    ______ ____
ROOT
ATOM      1  C   UNL     1       4.009   2.803  17.253  0.00  0.00    +0.000 C 
ENDROOT
BRANCH   1   5
ATOM      2  C   UNL     1       6.619   6.358  17.003  0.00  0.00    +0.000 C 
ATOM      3  C   UNL     1       6.137   5.822  18.361  0.00  0.00    +0.000 C 
ATOM      4  C   UNL     1       5.679   4.373  18.287  0.00  0.00    +0.000 C 
ATOM      5  C   UNL     1       4.545   4.241  17.271  0.00  0.00    +0.000 C 
ATOM      6  C   UNL     1       5.089   4.663  15.890  0.00  0.00    +0.000 C 
ATOM      7  C   UNL     1       5.584   6.114  15.895  0.00  0.00    +0.000 C 
BRANCH   2  10
ATOM      8  O   UNL     1       8.545   7.519  18.720  0.00  0.00    +0.000 OA
ATOM      9  C   UNL     1       7.908   8.248  17.961  0.00  0.00    +0.000 C 
ATOM     10  N   UNL     1       6.962   7.778  17.077  0.00  0.00    +0.000 N 
ATOM     11  H   UNL     1       6.406   8.435  16.547  0.00  0.00    +0.000 HD
BRANCH   9  12
ATOM     12  C   UNL     1       8.081   9.749  17.969  0.00  0.00    +0.000 C 
BRANCH  12  13
ATOM     13  C   UNL     1       9.450  10.084  18.572  0.00  0.00    +0.000 C 
ATOM     14  C   UNL     1       9.402  10.587  20.024  0.00  0.00    +0.000 C 
ATOM     15  C   UNL     1       9.012  12.054  20.148  0.00  0.00    +0.000 C 
ATOM     16  C   UNL     1       9.777  12.915  19.151  0.00  0.00    +0.000 C 
ATOM     17  C   UNL     1       9.688  12.330  17.752  0.00  0.00    +0.000 C 
ATOM     18  O   UNL     1      10.180  10.993  17.736  0.00  0.00    +0.000 OA
ENDBRANCH  12  13
ENDBRANCH   9  12
ENDBRANCH   2  10
ENDBRANCH   1   5
BRANCH   1  19
ATOM     19  C   UNL     1       4.025   2.059  18.617  0.00  0.00    +0.000 C 
BRANCH  19  20
ATOM     20  N   UNL     1       2.918   2.436  19.527  0.00  0.00    +0.000 NA
ATOM     21  C   UNL     1       3.413   3.205  20.676  0.00  0.00    +0.000 C 
ATOM     22  C   UNL     1       2.328   3.832  21.556  0.00  0.00    +0.000 C 
ATOM     23  C   UNL     1       1.218   4.558  20.783  0.00  0.00    +0.000 C 
ATOM     24  C   UNL     1       0.683   3.593  19.722  0.00  0.00    +0.000 C 
ATOM     25  C   UNL     1       1.787   3.043  18.808  0.00  0.00    +0.000 C 
BRANCH  23  26
ATOM     26  C   UNL     1       1.566   5.946  20.257  0.00  0.00    +0.000 A 
ATOM     27  N   UNL     1       2.551   6.127  19.362  0.00  0.00    +0.000 NA
ATOM     28  O   UNL     1       2.655   7.500  19.160  0.00  0.00    +0.000 OA
ATOM     29  C   UNL     1       1.726   8.149  19.928  0.00  0.00    +0.000 A 
ATOM     30  C   UNL     1       1.551   9.527  20.026  0.00  0.00    +0.000 A 
ATOM     31  C   UNL     1       0.564   9.959  20.911  0.00  0.00    +0.000 A 
ATOM     32 CL   UNL     1       0.258  11.644  21.140  0.00  0.00    +0.000 Cl
ATOM     33  C   UNL     1      -0.203   9.056  21.648  0.00  0.00    +0.000 A 
ATOM     34  C   UNL     1       0.006   7.677  21.503  0.00  0.00    +0.000 A 
ATOM     35  C   UNL     1       1.024   7.210  20.645  0.00  0.00    +0.000 A 
ENDBRANCH  23  26
ENDBRANCH  19  20
ENDBRANCH   1  19
TORSDOF 7
ENDMDL
MODEL 4
REMARK VINA RESULT:      -8.1      1.324      1.419
REMARK  Name = 
REMARK  7 active torsions:
REMARK  status: ('A' for Active; 'I' for Inactive)
REMARK    1  A    between atoms: C_2  and  C_3
REMARK    2  A    between atoms: C_3  and  C_4
REMARK    3  A    between atoms: N_10  and  C_11
REMARK    4  A    between atoms: C_14  and  C_15
REMARK    5  A    between atoms: C_15  and  C_16
REMARK    6  A    between atoms: C_16  and  N_17
REMARK    7  A    between atoms: C_20  and  C_21
REMARK                            x       y       z     vdW  Elec       q    Type
REMARK                         _______ _______ _______ _____ _____    ______ ____
ROOT
ATOM      1  C   UNL     1       0.917   7.444  21.290  0.00  0.00    +0.000 C 
ENDROOT
BRANCH   1   5
ATOM      2  C   UNL     1       0.003  11.738  21.781  0.00  0.00    +0.000 C 
ATOM      3  C   UNL     1      -0.635  10.682  22.697  0.00  0.00    +0.000 C 
ATOM      4  C   UNL     1       0.138   9.372  22.705  0.00  0.00    +0.000 C 
ATOM      5  C   UNL     1       0.221   8.812  21.285  0.00  0.00    +0.000 C 
ATOM      6  C   UNL     1       0.979   9.834  20.412  0.00  0.00    +0.000 C 
ATOM      7  C   UNL     1       0.261  11.187  20.370  0.00  0.00    +0.000 C 
BRANCH   2  10
ATOM      8  O   UNL     1       0.857  14.350  22.453  0.00  0.00    +0.000 OA
ATOM      9  C   UNL     1      -0.302  14.182  22.079  0.00  0.00    +0.000 C 
ATOM     10  N   UNL     1      -0.808  12.953  21.713  0.00  0.00    +0.000 N 
ATOM     11  H   UNL     1      -1.794  12.863  21.506  0.00  0.00    +0.000 HD
BRANCH   9  12
ATOM     12  C   UNL     1      -1.296  15.318  22.032  0.00  0.00    +0.000 C 
BRANCH  12  13
ATOM     13  C   UNL     1      -2.712  14.739  22.132  0.00  0.00    +0.000 C 
ATOM     14  C   UNL     1      -3.835  15.745  21.837  0.00  0.00    +0.000 C 
ATOM     15  C   UNL     1      -4.153  16.665  23.008  0.00  0.00    +0.000 C 
ATOM     16  C   UNL     1      -4.260  15.883  24.311  0.00  0.00    +0.000 C 
ATOM     17  C   UNL     1      -3.055  14.977  24.498  0.00  0.00    +0.000 C 
ATOM     18  O   UNL     1      -2.922  14.087  23.393  0.00  0.00    +0.000 OA
ENDBRANCH  12  13
ENDBRANCH   9  12
ENDBRANCH   2  10
ENDBRANCH   1   5
BRANCH   1  19
ATOM     19  C   UNL     1       1.859   7.161  20.088  0.00  0.00    +0.000 C 
BRANCH  19  20
ATOM     20  N   UNL     1       1.919   5.735  19.687  0.00  0.00    +0.000 NA
ATOM     21  C   UNL     1       1.989   5.597  18.227  0.00  0.00    +0.000 C 
ATOM     22  C   UNL     1       2.278   4.181  17.720  0.00  0.00    +0.000 C 
ATOM     23  C   UNL     1       3.427   3.465  18.445  0.00  0.00    +0.000 C 
ATOM     24  C   UNL     1       3.151   3.547  19.949  0.00  0.00    +0.000 C 
ATOM     25  C   UNL     1       2.942   4.988  20.436  0.00  0.00    +0.000 C 
BRANCH  23  26
ATOM     26  C   UNL     1       4.837   3.878  18.038  0.00  0.00    +0.000 A 
ATOM     27  N   UNL     1       5.784   4.126  18.956  0.00  0.00    +0.000 NA
ATOM     28  O   UNL     1       6.912   4.549  18.259  0.00  0.00    +0.000 OA
ATOM     29  C   UNL     1       6.647   4.548  16.915  0.00  0.00    +0.000 A 
ATOM     30  C   UNL     1       7.515   4.948  15.901  0.00  0.00    +0.000 A 
ATOM     31  C   UNL     1       7.005   4.901  14.604  0.00  0.00    +0.000 A 
ATOM     32 CL   UNL     1       7.972   5.386  13.256  0.00  0.00    +0.000 Cl
ATOM     33  C   UNL     1       5.702   4.472  14.345  0.00  0.00    +0.000 A 
ATOM     34  C   UNL     1       4.873   4.070  15.402  0.00  0.00    +0.000 A 
ATOM     35  C   UNL     1       5.347   4.143  16.729  0.00  0.00    +0.000 A 
ENDBRANCH  23  26
ENDBRANCH  19  20
ENDBRANCH   1  19
TORSDOF 7
ENDMDL
MODEL 5
REMARK VINA RESULT:      -8.0      3.491     11.217
REMARK  Name = 
REMARK  7 active torsions:
REMARK  status: ('A' for Active; 'I' for Inactive)
REMARK    1  A    between atoms: C_2  and  C_3
REMARK    2  A    between atoms: C_3  and  C_4
REMARK    3  A    between atoms: N_10  and  C_11
REMARK    4  A    between atoms: C_14  and  C_15
REMARK    5  A    between atoms: C_15  and  C_16
REMARK    6  A    between atoms: C_16  and  N_17
REMARK    7  A    between atoms: C_20  and  C_21
REMARK                            x       y       z     vdW  Elec       q    Type
REMARK                         _______ _______ _______ _____ _____    ______ ____
ROOT
ATOM      1  C   UNL     1      -1.382  11.370  23.114  0.00  0.00    +0.000 C 
ENDROOT
BRANCH   1   5
ATOM      2  C   UNL     1       0.825   8.854  20.232  0.00  0.00    +0.000 C 
ATOM      3  C   UNL     1       0.611   8.396  21.683  0.00  0.00    +0.000 C 
ATOM      4  C   UNL     1      -0.539   9.124  22.362  0.00  0.00    +0.000 C 
ATOM      5  C   UNL     1      -0.276  10.629  22.351  0.00  0.00    +0.000 C 
ATOM      6  C   UNL     1      -0.193  11.089  20.880  0.00  0.00    +0.000 C 
ATOM      7  C   UNL     1       0.940  10.383  20.128  0.00  0.00    +0.000 C 
BRANCH   2  10
ATOM      8  O   UNL     1       1.366   8.635  17.463  0.00  0.00    +0.000 OA
ATOM      9  C   UNL     1       2.159   8.144  18.265  0.00  0.00    +0.000 C 
ATOM     10  N   UNL     1       1.994   8.213  19.631  0.00  0.00    +0.000 N 
ATOM     11  H   UNL     1       2.630   7.709  20.235  0.00  0.00    +0.000 HD
BRANCH   9  12
ATOM     12  C   UNL     1       3.376   7.373  17.809  0.00  0.00    +0.000 C 
BRANCH  12  13
ATOM     13  C   UNL     1       3.559   6.156  18.723  0.00  0.00    +0.000 C 
ATOM     14  C   UNL     1       4.670   5.190  18.285  0.00  0.00    +0.000 C 
ATOM     15  C   UNL     1       4.254   4.253  17.159  0.00  0.00    +0.000 C 
ATOM     16  C   UNL     1       2.884   3.644  17.426  0.00  0.00    +0.000 C 
ATOM     17  C   UNL     1       1.875   4.720  17.789  0.00  0.00    +0.000 C 
ATOM     18  O   UNL     1       2.320   5.461  18.922  0.00  0.00    +0.000 OA
ENDBRANCH  12  13
ENDBRANCH   9  12
ENDBRANCH   2  10
ENDBRANCH   1   5
BRANCH   1  19
ATOM     19  C   UNL     1      -1.323  12.922  23.053  0.00  0.00    +0.000 C 
BRANCH  19  20
ATOM     20  N   UNL     1      -2.632  13.587  23.257  0.00  0.00    +0.000 NA
ATOM     21  C   UNL     1      -2.934  14.513  22.157  0.00  0.00    +0.000 C 
ATOM     22  C   UNL     1      -4.355  15.082  22.157  0.00  0.00    +0.000 C 
ATOM     23  C   UNL     1      -5.460  14.040  22.383  0.00  0.00    +0.000 C 
ATOM     24  C   UNL     1      -5.103  13.249  23.644  0.00  0.00    +0.000 C 
ATOM     25  C   UNL     1      -3.701  12.629  23.579  0.00  0.00    +0.000 C 
BRANCH  23  26
ATOM     26  C   UNL     1      -5.826  13.179  21.179  0.00  0.00    +0.000 A 
ATOM     27  N   UNL     1      -7.096  12.814  20.941  0.00  0.00    +0.000 NA
ATOM     28  O   UNL     1      -7.067  11.981  19.828  0.00  0.00    +0.000 OA
ATOM     29  C   UNL     1      -5.777  11.848  19.387  0.00  0.00    +0.000 A 
ATOM     30  C   UNL     1      -5.344  11.062  18.322  0.00  0.00    +0.000 A 
ATOM     31  C   UNL     1      -3.970  11.051  18.086  0.00  0.00    +0.000 A 
ATOM     32 CL   UNL     1      -3.299  10.104  16.807  0.00  0.00    +0.000 Cl
ATOM     33  C   UNL     1      -3.087  11.793  18.874  0.00  0.00    +0.000 A 
ATOM     34  C   UNL     1      -3.577  12.577  19.928  0.00  0.00    +0.000 A 
ATOM     35  C   UNL     1      -4.958  12.577  20.215  0.00  0.00    +0.000 A 
ENDBRANCH  23  26
ENDBRANCH  19  20
ENDBRANCH   1  19
TORSDOF 7
ENDMDL
MODEL 6
REMARK VINA RESULT:      -8.0      3.196      4.064
REMARK  Name = 
REMARK  7 active torsions:
REMARK  status: ('A' for Active; 'I' for Inactive)
REMARK    1  A    between atoms: C_2  and  C_3
REMARK    2  A    between atoms: C_3  and  C_4
REMARK    3  A    between atoms: N_10  and  C_11
REMARK    4  A    between atoms: C_14  and  C_15
REMARK    5  A    between atoms: C_15  and  C_16
REMARK    6  A    between atoms: C_16  and  N_17
REMARK    7  A    between atoms: C_20  and  C_21
REMARK                            x       y       z     vdW  Elec       q    Type
REMARK                         _______ _______ _______ _____ _____    ______ ____
ROOT
ATOM      1  C   UNL     1       2.425   5.908  20.795  0.00  0.00    +0.000 C 
ENDROOT
BRANCH   1   5
ATOM      2  C   UNL     1       0.515   9.604  19.311  0.00  0.00    +0.000 C 
ATOM      3  C   UNL     1       1.826   9.087  18.697  0.00  0.00    +0.000 C 
ATOM      4  C   UNL     1       2.063   7.612  18.981  0.00  0.00    +0.000 C 
ATOM      5  C   UNL     1       2.094   7.376  20.491  0.00  0.00    +0.000 C 
ATOM      6  C   UNL     1       0.722   7.782  21.068  0.00  0.00    +0.000 C 
ATOM      7  C   UNL     1       0.410   9.259  20.804  0.00  0.00    +0.000 C 
BRANCH   2  10
ATOM      8  O   UNL     1      -1.652  10.873  18.009  0.00  0.00    +0.000 OA
ATOM      9  C   UNL     1      -0.734  11.564  18.445  0.00  0.00    +0.000 C 
ATOM     10  N   UNL     1       0.356  11.044  19.108  0.00  0.00    +0.000 N 
ATOM     11  H   UNL     1       1.124  11.653  19.358  0.00  0.00    +0.000 HD
BRANCH   9  12
ATOM     12  C   UNL     1      -0.701  13.061  18.245  0.00  0.00    +0.000 C 
BRANCH  12  13
ATOM     13  C   UNL     1      -0.126  13.714  19.508  0.00  0.00    +0.000 C 
ATOM     14  C   UNL     1      -0.624  15.144  19.770  0.00  0.00    +0.000 C 
ATOM     15  C   UNL     1       0.082  16.199  18.930  0.00  0.00    +0.000 C 
ATOM     16  C   UNL     1       1.591  15.989  18.934  0.00  0.00    +0.000 C 
ATOM     17  C   UNL     1       1.936  14.548  18.602  0.00  0.00    +0.000 C 
ATOM     18  O   UNL     1       1.307  13.658  19.519  0.00  0.00    +0.000 OA
ENDBRANCH  12  13
ENDBRANCH   9  12
ENDBRANCH   2  10
ENDBRANCH   1   5
BRANCH   1  19
ATOM     19  C   UNL     1       1.289   4.887  20.512  0.00  0.00    +0.000 C 
BRANCH  19  20
ATOM     20  N   UNL     1       1.674   3.791  19.591  0.00  0.00    +0.000 NA
ATOM     21  C   UNL     1       1.592   4.222  18.190  0.00  0.00    +0.000 C 
ATOM     22  C   UNL     1       2.180   3.240  17.172  0.00  0.00    +0.000 C 
ATOM     23  C   UNL     1       3.559   2.681  17.547  0.00  0.00    +0.000 C 
ATOM     24  C   UNL     1       3.465   2.124  18.970  0.00  0.00    +0.000 C 
ATOM     25  C   UNL     1       2.944   3.158  19.978  0.00  0.00    +0.000 C 
BRANCH  23  26
ATOM     26  C   UNL     1       4.746   3.608  17.308  0.00  0.00    +0.000 A 
ATOM     27  N   UNL     1       5.233   4.385  18.289  0.00  0.00    +0.000 NA
ATOM     28  O   UNL     1       6.245   5.153  17.722  0.00  0.00    +0.000 OA
ATOM     29  C   UNL     1       6.375   4.833  16.397  0.00  0.00    +0.000 A 
ATOM     30  C   UNL     1       7.254   5.417  15.488  0.00  0.00    +0.000 A 
ATOM     31  C   UNL     1       7.175   4.955  14.175  0.00  0.00    +0.000 A 
ATOM     32 CL   UNL     1       8.197   5.609  12.944  0.00  0.00    +0.000 Cl
ATOM     33  C   UNL     1       6.270   3.960  13.802  0.00  0.00    +0.000 A 
ATOM     34  C   UNL     1       5.414   3.397  14.760  0.00  0.00    +0.000 A 
ATOM     35  C   UNL     1       5.443   3.872  16.089  0.00  0.00    +0.000 A 
ENDBRANCH  23  26
ENDBRANCH  19  20
ENDBRANCH   1  19
TORSDOF 7
ENDMDL
MODEL 7
REMARK VINA RESULT:      -8.0      1.494      2.071
REMARK  Name = 
REMARK  7 active torsions:
REMARK  status: ('A' for Active; 'I' for Inactive)
REMARK    1  A    between atoms: C_2  and  C_3
REMARK    2  A    between atoms: C_3  and  C_4
REMARK    3  A    between atoms: N_10  and  C_11
REMARK    4  A    between atoms: C_14  and  C_15
REMARK    5  A    between atoms: C_15  and  C_16
REMARK    6  A    between atoms: C_16  and  N_17
REMARK    7  A    between atoms: C_20  and  C_21
REMARK                            x       y       z     vdW  Elec       q    Type
REMARK                         _______ _______ _______ _____ _____    ______ ____
ROOT
ATOM      1  C   UNL     1       2.126   6.336  20.436  0.00  0.00    +0.000 C 
ENDROOT
BRANCH   1   5
ATOM      2  C   UNL     1       0.880  10.572  20.526  0.00  0.00    +0.000 C 
ATOM      3  C   UNL     1       0.522   9.616  21.675  0.00  0.00    +0.000 C 
ATOM      4  C   UNL     1       1.414   8.385  21.709  0.00  0.00    +0.000 C 
ATOM      5  C   UNL     1       1.304   7.631  20.383  0.00  0.00    +0.000 C 
ATOM      6  C   UNL     1       1.790   8.568  19.259  0.00  0.00    +0.000 C 
ATOM      7  C   UNL     1       0.942   9.843  19.176  0.00  0.00    +0.000 C 
BRANCH   2  10
ATOM      8  O   UNL     1       1.332  13.173  21.546  0.00  0.00    +0.000 OA
ATOM      9  C   UNL     1       0.259  12.927  20.997  0.00  0.00    +0.000 C 
ATOM     10  N   UNL     1      -0.050  11.699  20.455  0.00  0.00    +0.000 N 
ATOM     11  H   UNL     1      -0.983  11.531  20.102  0.00  0.00    +0.000 HD
BRANCH   9  12
ATOM     12  C   UNL     1      -0.844  13.955  20.913  0.00  0.00    +0.000 C 
BRANCH  12  13
ATOM     13  C   UNL     1      -1.363  14.239  22.328  0.00  0.00    +0.000 C 
ATOM     14  C   UNL     1      -1.663  12.984  23.162  0.00  0.00    +0.000 C 
ATOM     15  C   UNL     1      -2.999  12.335  22.827  0.00  0.00    +0.000 C 
ATOM     16  C   UNL     1      -4.109  13.374  22.731  0.00  0.00    +0.000 C 
ATOM     17  C   UNL     1      -3.695  14.525  21.830  0.00  0.00    +0.000 C 
ATOM     18  O   UNL     1      -2.492  15.124  22.303  0.00  0.00    +0.000 OA
ENDBRANCH  12  13
ENDBRANCH   9  12
ENDBRANCH   2  10
ENDBRANCH   1   5
BRANCH   1  19
ATOM     19  C   UNL     1       1.318   5.033  20.696  0.00  0.00    +0.000 C 
BRANCH  19  20
ATOM     20  N   UNL     1       1.667   3.912  19.792  0.00  0.00    +0.000 NA
ATOM     21  C   UNL     1       1.567   4.315  18.383  0.00  0.00    +0.000 C 
ATOM     22  C   UNL     1       2.119   3.302  17.376  0.00  0.00    +0.000 C 
ATOM     23  C   UNL     1       3.495   2.727  17.737  0.00  0.00    +0.000 C 
ATOM     24  C   UNL     1       3.418   2.202  19.173  0.00  0.00    +0.000 C 
ATOM     25  C   UNL     1       2.934   3.265  20.169  0.00  0.00    +0.000 C 
BRANCH  23  26
ATOM     26  C   UNL     1       4.692   3.629  17.458  0.00  0.00    +0.000 A 
ATOM     27  N   UNL     1       5.201   4.428  18.409  0.00  0.00    +0.000 NA
ATOM     28  O   UNL     1       6.219   5.162  17.807  0.00  0.00    +0.000 OA
ATOM     29  C   UNL     1       6.330   4.799  16.491  0.00  0.00    +0.000 A 
ATOM     30  C   UNL     1       7.208   5.342  15.556  0.00  0.00    +0.000 A 
ATOM     31  C   UNL     1       7.108   4.840  14.259  0.00  0.00    +0.000 A 
ATOM     32 CL   UNL     1       8.127   5.439  12.998  0.00  0.00    +0.000 Cl
ATOM     33  C   UNL     1       6.184   3.848  13.927  0.00  0.00    +0.000 A 
ATOM     34  C   UNL     1       5.330   3.328  14.911  0.00  0.00    +0.000 A 
ATOM     35  C   UNL     1       5.381   3.843  16.223  0.00  0.00    +0.000 A 
ENDBRANCH  23  26
ENDBRANCH  19  20
ENDBRANCH   1  19
TORSDOF 7
ENDMDL
MODEL 8
REMARK VINA RESULT:      -8.0      6.732     11.436
REMARK  Name = 
REMARK  7 active torsions:
REMARK  status: ('A' for Active; 'I' for Inactive)
REMARK    1  A    between atoms: C_2  and  C_3
REMARK    2  A    between atoms: C_3  and  C_4
REMARK    3  A    between atoms: N_10  and  C_11
REMARK    4  A    between atoms: C_14  and  C_15
REMARK    5  A    between atoms: C_15  and  C_16
REMARK    6  A    between atoms: C_16  and  N_17
REMARK    7  A    between atoms: C_20  and  C_21
REMARK                            x       y       z     vdW  Elec       q    Type
REMARK                         _______ _______ _______ _____ _____    ______ ____
ROOT
ATOM      1  C   UNL     1       8.972   8.922  18.275  0.00  0.00    +0.000 C 
ENDROOT
BRANCH   1   5
ATOM      2  C   UNL     1       6.169   5.557  17.697  0.00  0.00    +0.000 C 
ATOM      3  C   UNL     1       5.885   6.940  17.089  0.00  0.00    +0.000 C 
ATOM      4  C   UNL     1       7.136   7.797  16.976  0.00  0.00    +0.000 C 
ATOM      5  C   UNL     1       7.762   7.982  18.358  0.00  0.00    +0.000 C 
ATOM      6  C   UNL     1       8.156   6.591  18.895  0.00  0.00    +0.000 C 
ATOM      7  C   UNL     1       6.941   5.666  19.021  0.00  0.00    +0.000 C 
BRANCH   2  10
ATOM      8  O   UNL     1       4.873   3.982  15.737  0.00  0.00    +0.000 OA
ATOM      9  C   UNL     1       4.377   4.062  16.859  0.00  0.00    +0.000 C 
ATOM     10  N   UNL     1       4.939   4.788  17.885  0.00  0.00    +0.000 N 
ATOM     11  H   UNL     1       4.435   4.893  18.756  0.00  0.00    +0.000 HD
BRANCH   9  12
ATOM     12  C   UNL     1       3.063   3.396  17.196  0.00  0.00    +0.000 C 
BRANCH  12  13
ATOM     13  C   UNL     1       3.121   2.899  18.645  0.00  0.00    +0.000 C 
ATOM     14  C   UNL     1       2.052   1.856  19.005  0.00  0.00    +0.000 C 
ATOM     15  C   UNL     1       0.683   2.460  19.290  0.00  0.00    +0.000 C 
ATOM     16  C   UNL     1       0.794   3.670  20.208  0.00  0.00    +0.000 C 
ATOM     17  C   UNL     1       1.844   4.641  19.698  0.00  0.00    +0.000 C 
ATOM     18  O   UNL     1       3.107   3.993  19.574  0.00  0.00    +0.000 OA
ENDBRANCH  12  13
ENDBRANCH   9  12
ENDBRANCH   2  10
ENDBRANCH   1   5
BRANCH   1  19
ATOM     19  C   UNL     1       8.648  10.421  18.025  0.00  0.00    +0.000 C 
BRANCH  19  20
ATOM     20  N   UNL     1       9.470  11.361  18.822  0.00  0.00    +0.000 NA
ATOM     21  C   UNL     1       9.091  12.755  18.557  0.00  0.00    +0.000 C 
ATOM     22  C   UNL     1       9.724  13.790  19.491  0.00  0.00    +0.000 C 
ATOM     23  C   UNL     1       9.665  13.428  20.981  0.00  0.00    +0.000 C 
ATOM     24  C   UNL     1      10.231  12.014  21.139  0.00  0.00    +0.000 C 
ATOM     25  C   UNL     1       9.524  10.987  20.245  0.00  0.00    +0.000 C 
BRANCH  23  26
ATOM     26  C   UNL     1       8.324  13.651  21.673  0.00  0.00    +0.000 A 
ATOM     27  N   UNL     1       7.450  14.565  21.222  0.00  0.00    +0.000 NA
ATOM     28  O   UNL     1       6.383  14.568  22.114  0.00  0.00    +0.000 OA
ATOM     29  C   UNL     1       6.609  13.647  23.103  0.00  0.00    +0.000 A 
ATOM     30  C   UNL     1       5.786  13.389  24.197  0.00  0.00    +0.000 A 
ATOM     31  C   UNL     1       6.248  12.432  25.099  0.00  0.00    +0.000 A 
ATOM     32 CL   UNL     1       5.332  12.031  26.509  0.00  0.00    +0.000 Cl
ATOM     33  C   UNL     1       7.463  11.772  24.907  0.00  0.00    +0.000 A 
ATOM     34  C   UNL     1       8.248  12.061  23.782  0.00  0.00    +0.000 A 
ATOM     35  C   UNL     1       7.826  13.053  22.871  0.00  0.00    +0.000 A 
ENDBRANCH  23  26
ENDBRANCH  19  20
ENDBRANCH   1  19
TORSDOF 7
ENDMDL
MODEL 9
REMARK VINA RESULT:      -7.9      6.679     11.297
REMARK  Name = 
REMARK  7 active torsions:
REMARK  status: ('A' for Active; 'I' for Inactive)
REMARK    1  A    between atoms: C_2  and  C_3
REMARK    2  A    between atoms: C_3  and  C_4
REMARK    3  A    between atoms: N_10  and  C_11
REMARK    4  A    between atoms: C_14  and  C_15
REMARK    5  A    between atoms: C_15  and  C_16
REMARK    6  A    between atoms: C_16  and  N_17
REMARK    7  A    between atoms: C_20  and  C_21
REMARK                            x       y       z     vdW  Elec       q    Type
REMARK                         _______ _______ _______ _____ _____    ______ ____
ROOT
ATOM      1  C   UNL     1       8.927   8.951  18.175  0.00  0.00    +0.000 C 
ENDROOT
BRANCH   1   5
ATOM      2  C   UNL     1       6.404   5.336  17.890  0.00  0.00    +0.000 C 
ATOM      3  C   UNL     1       5.981   6.653  17.221  0.00  0.00    +0.000 C 
ATOM      4  C   UNL     1       7.149   7.604  17.012  0.00  0.00    +0.000 C 
ATOM      5  C   UNL     1       7.805   7.919  18.357  0.00  0.00    +0.000 C 
ATOM      6  C   UNL     1       8.336   6.598  18.950  0.00  0.00    +0.000 C 
ATOM      7  C   UNL     1       7.210   5.583  19.174  0.00  0.00    +0.000 C 
BRANCH   2  10
ATOM      8  O   UNL     1       4.941   3.842  15.984  0.00  0.00    +0.000 OA
ATOM      9  C   UNL     1       4.596   3.802  17.163  0.00  0.00    +0.000 C 
ATOM     10  N   UNL     1       5.252   4.478  18.168  0.00  0.00    +0.000 N 
ATOM     11  H   UNL     1       4.865   4.482  19.102  0.00  0.00    +0.000 HD
BRANCH   9  12
ATOM     12  C   UNL     1       3.376   3.030  17.609  0.00  0.00    +0.000 C 
BRANCH  12  13
ATOM     13  C   UNL     1       2.184   3.992  17.683  0.00  0.00    +0.000 C 
ATOM     14  C   UNL     1       2.390   5.192  18.620  0.00  0.00    +0.000 C 
ATOM     15  C   UNL     1       2.182   4.858  20.092  0.00  0.00    +0.000 C 
ATOM     16  C   UNL     1       0.916   4.037  20.298  0.00  0.00    +0.000 C 
ATOM     17  C   UNL     1       0.878   2.854  19.346  0.00  0.00    +0.000 C 
ATOM     18  O   UNL     1       0.970   3.295  17.995  0.00  0.00    +0.000 OA
ENDBRANCH  12  13
ENDBRANCH   9  12
ENDBRANCH   2  10
ENDBRANCH   1   5
BRANCH   1  19
ATOM     19  C   UNL     1       8.470  10.431  18.050  0.00  0.00    +0.000 C 
BRANCH  19  20
ATOM     20  N   UNL     1       9.317  11.392  18.795  0.00  0.00    +0.000 NA
ATOM     21  C   UNL     1       8.917  12.778  18.518  0.00  0.00    +0.000 C 
ATOM     22  C   UNL     1       9.579  13.836  19.404  0.00  0.00    +0.000 C 
ATOM     23  C   UNL     1       9.583  13.503  20.903  0.00  0.00    +0.000 C 
ATOM     24  C   UNL     1      10.167  12.097  21.065  0.00  0.00    +0.000 C 
ATOM     25  C   UNL     1       9.431  11.047  20.221  0.00  0.00    +0.000 C 
BRANCH  23  26
ATOM     26  C   UNL     1       8.270  13.731  21.644  0.00  0.00    +0.000 A 
ATOM     27  N   UNL     1       7.441  14.731  21.303  0.00  0.00    +0.000 NA
ATOM     28  O   UNL     1       6.392  14.705  22.217  0.00  0.00    +0.000 OA
ATOM     29  C   UNL     1       6.584  13.681  23.106  0.00  0.00    +0.000 A 
ATOM     30  C   UNL     1       5.767  13.363  24.189  0.00  0.00    +0.000 A 
ATOM     31  C   UNL     1       6.191  12.300  24.985  0.00  0.00    +0.000 A 
ATOM     32 CL   UNL     1       5.279  11.814  26.370  0.00  0.00    +0.000 Cl
ATOM     33  C   UNL     1       7.362  11.595  24.702  0.00  0.00    +0.000 A 
ATOM     34  C   UNL     1       8.142  11.950  23.591  0.00  0.00    +0.000 A 
ATOM     35  C   UNL     1       7.761  13.047  22.790  0.00  0.00    +0.000 A 
ENDBRANCH  23  26
ENDBRANCH  19  20
ENDBRANCH   1  19
TORSDOF 7
ENDMDL
