MODEL 1
REMARK VINA RESULT:      -9.0      0.000      0.000
REMARK  Name = 
REMARK  7 active torsions:
REMARK  status: ('A' for Active; 'I' for Inactive)
REMARK    1  A    between atoms: C_1  and  C_2
REMARK    2  A    between atoms: C_9  and  S_10
REMARK    3  A    between atoms: S_10  and  C_11
REMARK    4  A    between atoms: C_11  and  C_12
REMARK    5  A    between atoms: N_14  and  C_15
REMARK    6  A    between atoms: C_27  and  C_28
REMARK    7  A    between atoms: C_27  and  C_29
REMARK                            x       y       z     vdW  Elec       q    Type
REMARK                         _______ _______ _______ _____ _____    ______ ____
ROOT
ATOM      1  S   UNL     1       9.281   9.968  19.143  0.00  0.00    +0.000 S 
ENDROOT
BRANCH   1  10
ATOM      2  C   UNL     1       8.123  15.245  18.455  0.00  0.00    +0.000 C 
ATOM      3  C   UNL     1       9.558  14.993  18.881  0.00  0.00    +0.000 C 
ATOM      4  C   UNL     1      10.426  16.236  18.529  0.00  0.00    +0.000 C 
ATOM      5  C   UNL     1      11.825  15.871  19.040  0.00  0.00    +0.000 C 
ATOM      6  C   UNL     1      11.547  14.588  19.857  0.00  0.00    +0.000 C 
ATOM      7  C   UNL     1      11.433  13.536  18.788  0.00  0.00    +0.000 A 
ATOM      8  N   UNL     1      12.172  12.416  18.818  0.00  0.00    +0.000 NA
ATOM      9  N   UNL     1      11.522  11.290  18.578  0.00  0.00    +0.000 NA
ATOM     10  C   UNL     1      10.173  11.345  18.418  0.00  0.00    +0.000 A 
ATOM     11  N   UNL     1       9.458  12.483  18.148  0.00  0.00    +0.000 NA
ATOM     12  C   UNL     1      10.149  13.635  18.286  0.00  0.00    +0.000 A 
ATOM     13  C   UNL     1      10.032  14.734  20.352  0.00  0.00    +0.000 C 
ATOM     14  C   UNL     1       9.226  13.548  20.952  0.00  0.00    +0.000 C 
ATOM     15  C   UNL     1      10.085  15.775  21.483  0.00  0.00    +0.000 C 
ENDBRANCH   1  10
BRANCH   1  16
ATOM     16  C   UNL     1       8.165   9.456  17.767  0.00  0.00    +0.000 C 
BRANCH  16  17
ATOM     17  C   UNL     1       7.691   7.993  17.811  0.00  0.00    +0.000 C 
ATOM     18  O   UNL     1       8.183   7.180  18.587  0.00  0.00    +0.000 OA
ATOM     19  N   UNL     1       6.646   7.731  16.920  0.00  0.00    +0.000 N 
ATOM     20  H   UNL     1       6.720   8.280  16.065  0.00  0.00    +0.000 HD
BRANCH  19  21
ATOM     21  C   UNL     1       6.065   6.438  16.732  0.00  0.00    +0.000 A 
ATOM     22  C   UNL     1       6.858   5.530  16.019  0.00  0.00    +0.000 A 
ATOM     23  C   UNL     1       6.474   4.198  15.881  0.00  0.00    +0.000 A 
ATOM     24  C   UNL     1       5.273   3.764  16.428  0.00  0.00    +0.000 A 
ATOM     25  C   UNL     1       4.411   4.667  17.058  0.00  0.00    +0.000 A 
ATOM     26  C   UNL     1       3.165   4.218  17.530  0.00  0.00    +0.000 A 
ATOM     27  C   UNL     1       2.236   5.103  18.074  0.00  0.00    +0.000 A 
ATOM     28  C   UNL     1       2.542   6.456  18.138  0.00  0.00    +0.000 A 
ATOM     29  C   UNL     1       3.794   6.912  17.705  0.00  0.00    +0.000 A 
ATOM     30  C   UNL     1       4.772   6.038  17.185  0.00  0.00    +0.000 A 
ENDBRANCH  19  21
ENDBRANCH  16  17
ENDBRANCH   1  16
TORSDOF 4
ENDMDL
MODEL 2
REMARK VINA RESULT:      -8.9      2.317     10.406
REMARK  Name = 
REMARK  7 active torsions:
REMARK  status: ('A' for Active; 'I' for Inactive)
REMARK    1  A    between atoms: C_1  and  C_2
REMARK    2  A    between atoms: C_9  and  S_10
REMARK    3  A    between atoms: S_10  and  C_11
REMARK    4  A    between atoms: C_11  and  C_12
REMARK    5  A    between atoms: N_14  and  C_15
REMARK    6  A    between atoms: C_27  and  C_28
REMARK    7  A    between atoms: C_27  and  C_29
REMARK                            x       y       z     vdW  Elec       q    Type
REMARK                         _______ _______ _______ _____ _____    ______ ____
ROOT
ATOM      1  S   UNL     1       7.585   6.541  18.905  0.00  0.00    +0.000 S 
ENDROOT
BRANCH   1  10
ATOM      2  C   UNL     1       4.402   2.320  20.211  0.00  0.00    +0.000 C 
ATOM      3  C   UNL     1       3.940   3.063  18.970  0.00  0.00    +0.000 C 
ATOM      4  C   UNL     1       2.998   2.143  18.139  0.00  0.00    +0.000 C 
ATOM      5  C   UNL     1       2.578   3.015  16.950  0.00  0.00    +0.000 C 
ATOM      6  C   UNL     1       3.104   4.408  17.368  0.00  0.00    +0.000 C 
ATOM      7  C   UNL     1       4.571   4.313  17.050  0.00  0.00    +0.000 A 
ATOM      8  N   UNL     1       5.185   5.216  16.270  0.00  0.00    +0.000 NA
ATOM      9  N   UNL     1       6.344   5.670  16.717  0.00  0.00    +0.000 NA
ATOM     10  C   UNL     1       6.766   5.267  17.944  0.00  0.00    +0.000 A 
ATOM     11  N   UNL     1       6.279   4.182  18.626  0.00  0.00    +0.000 NA
ATOM     12  C   UNL     1       5.153   3.645  18.112  0.00  0.00    +0.000 A 
ATOM     13  C   UNL     1       3.103   4.387  18.968  0.00  0.00    +0.000 C 
ATOM     14  C   UNL     1       3.834   5.460  19.824  0.00  0.00    +0.000 C 
ATOM     15  C   UNL     1       1.622   4.523  19.363  0.00  0.00    +0.000 C 
ENDBRANCH   1  10
BRANCH   1  16
ATOM     16  C   UNL     1       8.031   7.780  17.613  0.00  0.00    +0.000 C 
BRANCH  16  17
ATOM     17  C   UNL     1       8.201   9.225  18.115  0.00  0.00    +0.000 C 
ATOM     18  O   UNL     1       7.496  10.138  17.697  0.00  0.00    +0.000 OA
ATOM     19  N   UNL     1       9.190   9.349  19.095  0.00  0.00    +0.000 N 
ATOM     20  H   UNL     1       9.963   8.703  18.947  0.00  0.00    +0.000 HD
BRANCH  19  21
ATOM     21  C   UNL     1       9.576  10.595  19.683  0.00  0.00    +0.000 A 
ATOM     22  C   UNL     1       9.024  10.850  20.945  0.00  0.00    +0.000 A 
ATOM     23  C   UNL     1       9.420  11.959  21.687  0.00  0.00    +0.000 A 
ATOM     24  C   UNL     1      10.352  12.847  21.163  0.00  0.00    +0.000 A 
ATOM     25  C   UNL     1      10.846  12.676  19.867  0.00  0.00    +0.000 A 
ATOM     26  C   UNL     1      11.725  13.632  19.329  0.00  0.00    +0.000 A 
ATOM     27  C   UNL     1      12.162  13.553  18.009  0.00  0.00    +0.000 A 
ATOM     28  C   UNL     1      11.710  12.516  17.204  0.00  0.00    +0.000 A 
ATOM     29  C   UNL     1      10.863  11.534  17.736  0.00  0.00    +0.000 A 
ATOM     30  C   UNL     1      10.433  11.564  19.080  0.00  0.00    +0.000 A 
ENDBRANCH  19  21
ENDBRANCH  16  17
ENDBRANCH   1  16
TORSDOF 4
ENDMDL
MODEL 3
REMARK VINA RESULT:      -8.9      7.380      9.610
REMARK  Name = 
REMARK  7 active torsions:
REMARK  status: ('A' for Active; 'I' for Inactive)
REMARK    1  A    between atoms: C_1  and  C_2
REMARK    2  A    between atoms: C_9  and  S_10
REMARK    3  A    between atoms: S_10  and  C_11
REMARK    4  A    between atoms: C_11  and  C_12
REMARK    5  A    between atoms: N_14  and  C_15
REMARK    6  A    between atoms: C_27  and  C_28
REMARK    7  A    between atoms: C_27  and  C_29
REMARK                            x       y       z     vdW  Elec       q    Type
REMARK                         _______ _______ _______ _____ _____    ______ ____
ROOT
ATOM      1  S   UNL     1       2.267   3.011  20.298  0.00  0.00    +0.000 S 
ENDROOT
BRANCH   1  10
ATOM      2  C   UNL     1       4.220   7.155  17.353  0.00  0.00    +0.000 C 
ATOM      3  C   UNL     1       4.806   5.810  16.966  0.00  0.00    +0.000 C 
ATOM      4  C   UNL     1       5.415   5.906  15.536  0.00  0.00    +0.000 C 
ATOM      5  C   UNL     1       6.000   4.511  15.285  0.00  0.00    +0.000 C 
ATOM      6  C   UNL     1       5.901   3.861  16.684  0.00  0.00    +0.000 C 
ATOM      7  C   UNL     1       4.451   3.469  16.762  0.00  0.00    +0.000 A 
ATOM      8  N   UNL     1       4.073   2.214  17.048  0.00  0.00    +0.000 NA
ATOM      9  N   UNL     1       3.109   2.093  17.945  0.00  0.00    +0.000 NA
ATOM     10  C   UNL     1       2.653   3.217  18.559  0.00  0.00    +0.000 A 
ATOM     11  N   UNL     1       2.854   4.496  18.108  0.00  0.00    +0.000 NA
ATOM     12  C   UNL     1       3.761   4.613  17.115  0.00  0.00    +0.000 A 
ATOM     13  C   UNL     1       5.976   5.084  17.714  0.00  0.00    +0.000 C 
ATOM     14  C   UNL     1       5.614   4.940  19.219  0.00  0.00    +0.000 C 
ATOM     15  C   UNL     1       7.454   5.510  17.712  0.00  0.00    +0.000 C 
ENDBRANCH   1  10
BRANCH   1  16
ATOM     16  C   UNL     1       2.665   4.674  20.988  0.00  0.00    +0.000 C 
BRANCH  16  17
ATOM     17  C   UNL     1       1.668   5.791  20.635  0.00  0.00    +0.000 C 
ATOM     18  O   UNL     1       0.464   5.575  20.547  0.00  0.00    +0.000 OA
ATOM     19  N   UNL     1       2.280   7.038  20.476  0.00  0.00    +0.000 N 
ATOM     20  H   UNL     1       3.214   6.962  20.078  0.00  0.00    +0.000 HD
BRANCH  19  21
ATOM     21  C   UNL     1       1.580   8.226  20.096  0.00  0.00    +0.000 A 
ATOM     22  C   UNL     1       1.723   8.594  18.752  0.00  0.00    +0.000 A 
ATOM     23  C   UNL     1       0.990   9.650  18.217  0.00  0.00    +0.000 A 
ATOM     24  C   UNL     1       0.124  10.373  19.029  0.00  0.00    +0.000 A 
ATOM     25  C   UNL     1       0.034  10.097  20.396  0.00  0.00    +0.000 A 
ATOM     26  C   UNL     1      -0.787  10.896  21.210  0.00  0.00    +0.000 A 
ATOM     27  C   UNL     1      -0.830  10.718  22.592  0.00  0.00    +0.000 A 
ATOM     28  C   UNL     1      -0.036   9.740  23.176  0.00  0.00    +0.000 A 
ATOM     29  C   UNL     1       0.759   8.911  22.374  0.00  0.00    +0.000 A 
ATOM     30  C   UNL     1       0.796   9.040  20.969  0.00  0.00    +0.000 A 
ENDBRANCH  19  21
ENDBRANCH  16  17
ENDBRANCH   1  16
TORSDOF 4
ENDMDL
MODEL 4
REMARK VINA RESULT:      -8.8      2.122     10.295
REMARK  Name = 
REMARK  7 active torsions:
REMARK  status: ('A' for Active; 'I' for Inactive)
REMARK    1  A    between atoms: C_1  and  C_2
REMARK    2  A    between atoms: C_9  and  S_10
REMARK    3  A    between atoms: S_10  and  C_11
REMARK    4  A    between atoms: C_11  and  C_12
REMARK    5  A    between atoms: N_14  and  C_15
REMARK    6  A    between atoms: C_27  and  C_28
REMARK    7  A    between atoms: C_27  and  C_29
REMARK                            x       y       z     vdW  Elec       q    Type
REMARK                         _______ _______ _______ _____ _____    ______ ____
ROOT
ATOM      1  S   UNL     1       6.729   7.562  17.343  0.00  0.00    +0.000 S 
ENDROOT
BRANCH   1  10
ATOM      2  C   UNL     1       3.356   4.742  20.557  0.00  0.00    +0.000 C 
ATOM      3  C   UNL     1       3.553   4.113  19.190  0.00  0.00    +0.000 C 
ATOM      4  C   UNL     1       3.147   2.612  19.250  0.00  0.00    +0.000 C 
ATOM      5  C   UNL     1       3.354   2.111  17.815  0.00  0.00    +0.000 C 
ATOM      6  C   UNL     1       3.595   3.429  17.044  0.00  0.00    +0.000 C 
ATOM      7  C   UNL     1       5.030   3.740  17.366  0.00  0.00    +0.000 A 
ATOM      8  N   UNL     1       5.938   3.963  16.403  0.00  0.00    +0.000 NA
ATOM      9  N   UNL     1       6.726   5.009  16.585  0.00  0.00    +0.000 NA
ATOM     10  C   UNL     1       6.497   5.812  17.659  0.00  0.00    +0.000 A 
ATOM     11  N   UNL     1       5.750   5.465  18.754  0.00  0.00    +0.000 NA
ATOM     12  C   UNL     1       5.025   4.335  18.614  0.00  0.00    +0.000 A 
ATOM     13  C   UNL     1       2.811   4.546  17.880  0.00  0.00    +0.000 C 
ATOM     14  C   UNL     1       3.019   6.070  17.649  0.00  0.00    +0.000 C 
ATOM     15  C   UNL     1       1.325   4.308  17.560  0.00  0.00    +0.000 C 
ENDBRANCH   1  10
BRANCH   1  16
ATOM     16  C   UNL     1       8.215   7.951  18.363  0.00  0.00    +0.000 C 
BRANCH  16  17
ATOM     17  C   UNL     1       8.578   9.443  18.459  0.00  0.00    +0.000 C 
ATOM     18  O   UNL     1       8.122  10.268  17.674  0.00  0.00    +0.000 OA
ATOM     19  N   UNL     1       9.424   9.730  19.534  0.00  0.00    +0.000 N 
ATOM     20  H   UNL     1      10.077   8.972  19.725  0.00  0.00    +0.000 HD
BRANCH  19  21
ATOM     21  C   UNL     1       9.948  11.033  19.809  0.00  0.00    +0.000 A 
ATOM     22  C   UNL     1      10.964  11.458  18.943  0.00  0.00    +0.000 A 
ATOM     23  C   UNL     1      11.468  12.754  19.012  0.00  0.00    +0.000 A 
ATOM     24  C   UNL     1      10.984  13.635  19.972  0.00  0.00    +0.000 A 
ATOM     25  C   UNL     1      10.043  13.211  20.916  0.00  0.00    +0.000 A 
ATOM     26  C   UNL     1       9.630  14.096  21.926  0.00  0.00    +0.000 A 
ATOM     27  C   UNL     1       8.771  13.685  22.943  0.00  0.00    +0.000 A 
ATOM     28  C   UNL     1       8.325  12.371  22.966  0.00  0.00    +0.000 A 
ATOM     29  C   UNL     1       8.698  11.486  21.945  0.00  0.00    +0.000 A 
ATOM     30  C   UNL     1       9.536  11.881  20.879  0.00  0.00    +0.000 A 
ENDBRANCH  19  21
ENDBRANCH  16  17
ENDBRANCH   1  16
TORSDOF 4
ENDMDL
MODEL 5
REMARK VINA RESULT:      -8.7      7.248      9.017
REMARK  Name = 
REMARK  7 active torsions:
REMARK  status: ('A' for Active; 'I' for Inactive)
REMARK    1  A    between atoms: C_1  and  C_2
REMARK    2  A    between atoms: C_9  and  S_10
REMARK    3  A    between atoms: S_10  and  C_11
REMARK    4  A    between atoms: C_11  and  C_12
REMARK    5  A    between atoms: N_14  and  C_15
REMARK    6  A    between atoms: C_27  and  C_28
REMARK    7  A    between atoms: C_27  and  C_29
REMARK                            x       y       z     vdW  Elec       q    Type
REMARK                         _______ _______ _______ _____ _____    ______ ____
ROOT
ATOM      1  S   UNL     1       1.151   8.735  20.980  0.00  0.00    +0.000 S 
ENDROOT
BRANCH   1  10
ATOM      2  C   UNL     1      -0.041  13.915  19.792  0.00  0.00    +0.000 C 
ATOM      3  C   UNL     1      -0.900  13.337  20.902  0.00  0.00    +0.000 C 
ATOM      4  C   UNL     1      -1.531  14.499  21.723  0.00  0.00    +0.000 C 
ATOM      5  C   UNL     1      -2.394  13.789  22.774  0.00  0.00    +0.000 C 
ATOM      6  C   UNL     1      -2.374  12.326  22.274  0.00  0.00    +0.000 C 
ATOM      7  C   UNL     1      -1.030  11.838  22.741  0.00  0.00    +0.000 A 
ATOM      8  N   UNL     1      -0.901  10.728  23.485  0.00  0.00    +0.000 NA
ATOM      9  N   UNL     1       0.053   9.892  23.111  0.00  0.00    +0.000 NA
ATOM     10  C   UNL     1       0.748  10.170  21.977  0.00  0.00    +0.000 A 
ATOM     11  N   UNL     1       0.791  11.394  21.361  0.00  0.00    +0.000 NA
ATOM     12  C   UNL     1      -0.111  12.291  21.813  0.00  0.00    +0.000 A 
ATOM     13  C   UNL     1      -2.162  12.433  20.691  0.00  0.00    +0.000 C 
ATOM     14  C   UNL     1      -1.779  11.211  19.809  0.00  0.00    +0.000 C 
ATOM     15  C   UNL     1      -3.523  12.893  20.142  0.00  0.00    +0.000 C 
ENDBRANCH   1  10
BRANCH   1  16
ATOM     16  C   UNL     1       1.293   9.459  19.290  0.00  0.00    +0.000 C 
BRANCH  16  17
ATOM     17  C   UNL     1       2.042   8.593  18.261  0.00  0.00    +0.000 C 
ATOM     18  O   UNL     1       2.169   8.947  17.094  0.00  0.00    +0.000 OA
ATOM     19  N   UNL     1       2.570   7.423  18.814  0.00  0.00    +0.000 N 
ATOM     20  H   UNL     1       1.981   7.046  19.555  0.00  0.00    +0.000 HD
BRANCH  19  21
ATOM     21  C   UNL     1       3.262   6.426  18.057  0.00  0.00    +0.000 A 
ATOM     22  C   UNL     1       4.359   6.896  17.323  0.00  0.00    +0.000 A 
ATOM     23  C   UNL     1       5.201   6.014  16.651  0.00  0.00    +0.000 A 
ATOM     24  C   UNL     1       4.939   4.650  16.679  0.00  0.00    +0.000 A 
ATOM     25  C   UNL     1       3.797   4.158  17.317  0.00  0.00    +0.000 A 
ATOM     26  C   UNL     1       3.511   2.783  17.261  0.00  0.00    +0.000 A 
ATOM     27  C   UNL     1       2.334   2.266  17.798  0.00  0.00    +0.000 A 
ATOM     28  C   UNL     1       1.420   3.127  18.389  0.00  0.00    +0.000 A 
ATOM     29  C   UNL     1       1.708   4.495  18.486  0.00  0.00    +0.000 A 
ATOM     30  C   UNL     1       2.908   5.046  17.987  0.00  0.00    +0.000 A 
ENDBRANCH  19  21
ENDBRANCH  16  17
ENDBRANCH   1  16
TORSDOF 4
ENDMDL
MODEL 6
REMARK VINA RESULT:      -8.6      7.304      9.448
REMARK  Name = 
REMARK  7 active torsions:
REMARK  status: ('A' for Active; 'I' for Inactive)
REMARK    1  A    between atoms: C_1  and  C_2
REMARK    2  A    between atoms: C_9  and  S_10
REMARK    3  A    between atoms: S_10  and  C_11
REMARK    4  A    between atoms: C_11  and  C_12
REMARK    5  A    between atoms: N_14  and  C_15
REMARK    6  A    between atoms: C_27  and  C_28
REMARK    7  A    between atoms: C_27  and  C_29
REMARK                            x       y       z     vdW  Elec       q    Type
REMARK                         _______ _______ _______ _____ _____    ______ ____
ROOT
ATOM      1  S   UNL     1       0.811  11.129  19.238  0.00  0.00    +0.000 S 
ENDROOT
BRANCH   1  10
ATOM      2  C   UNL     1      -2.104  15.380  20.995  0.00  0.00    +0.000 C 
ATOM      3  C   UNL     1      -2.219  14.159  21.889  0.00  0.00    +0.000 C 
ATOM      4  C   UNL     1      -2.723  14.596  23.295  0.00  0.00    +0.000 C 
ATOM      5  C   UNL     1      -2.831  13.281  24.078  0.00  0.00    +0.000 C 
ATOM      6  C   UNL     1      -2.638  12.225  22.965  0.00  0.00    +0.000 C 
ATOM      7  C   UNL     1      -1.147  12.228  22.766  0.00  0.00    +0.000 A 
ATOM      8  N   UNL     1      -0.423  11.100  22.835  0.00  0.00    +0.000 NA
ATOM      9  N   UNL     1       0.464  10.926  21.870  0.00  0.00    +0.000 NA
ATOM     10  C   UNL     1       0.506  11.834  20.859  0.00  0.00    +0.000 A 
ATOM     11  N   UNL     1      -0.045  13.087  20.905  0.00  0.00    +0.000 NA
ATOM     12  C   UNL     1      -0.870  13.308  21.950  0.00  0.00    +0.000 A 
ATOM     13  C   UNL     1      -3.160  12.933  21.628  0.00  0.00    +0.000 C 
ATOM     14  C   UNL     1      -2.880  12.361  20.210  0.00  0.00    +0.000 C 
ATOM     15  C   UNL     1      -4.693  12.926  21.751  0.00  0.00    +0.000 C 
ENDBRANCH   1  10
BRANCH   1  16
ATOM     16  C   UNL     1       1.173   9.366  19.639  0.00  0.00    +0.000 C 
BRANCH  16  17
ATOM     17  C   UNL     1       1.901   8.574  18.539  0.00  0.00    +0.000 C 
ATOM     18  O   UNL     1       1.978   8.993  17.388  0.00  0.00    +0.000 OA
ATOM     19  N   UNL     1       2.472   7.387  19.007  0.00  0.00    +0.000 N 
ATOM     20  H   UNL     1       1.919   6.957  19.746  0.00  0.00    +0.000 HD
BRANCH  19  21
ATOM     21  C   UNL     1       3.157   6.449  18.172  0.00  0.00    +0.000 A 
ATOM     22  C   UNL     1       4.196   6.988  17.404  0.00  0.00    +0.000 A 
ATOM     23  C   UNL     1       5.031   6.166  16.651  0.00  0.00    +0.000 A 
ATOM     24  C   UNL     1       4.817   4.793  16.632  0.00  0.00    +0.000 A 
ATOM     25  C   UNL     1       3.727   4.234  17.307  0.00  0.00    +0.000 A 
ATOM     26  C   UNL     1       3.484   2.854  17.205  0.00  0.00    +0.000 A 
ATOM     27  C   UNL     1       2.356   2.272  17.779  0.00  0.00    +0.000 A 
ATOM     28  C   UNL     1       1.446   3.075  18.453  0.00  0.00    +0.000 A 
ATOM     29  C   UNL     1       1.693   4.447  18.595  0.00  0.00    +0.000 A 
ATOM     30  C   UNL     1       2.845   5.061  18.059  0.00  0.00    +0.000 A 
ENDBRANCH  19  21
ENDBRANCH  16  17
ENDBRANCH   1  16
TORSDOF 4
ENDMDL
MODEL 7
REMARK VINA RESULT:      -8.5      6.901      8.952
REMARK  Name = 
REMARK  7 active torsions:
REMARK  status: ('A' for Active; 'I' for Inactive)
REMARK    1  A    between atoms: C_1  and  C_2
REMARK    2  A    between atoms: C_9  and  S_10
REMARK    3  A    between atoms: S_10  and  C_11
REMARK    4  A    between atoms: C_11  and  C_12
REMARK    5  A    between atoms: N_14  and  C_15
REMARK    6  A    between atoms: C_27  and  C_28
REMARK    7  A    between atoms: C_27  and  C_29
REMARK                            x       y       z     vdW  Elec       q    Type
REMARK                         _______ _______ _______ _____ _____    ______ ____
ROOT
ATOM      1  S   UNL     1       1.258   8.559  20.980  0.00  0.00    +0.000 S 
ENDROOT
BRANCH   1  10
ATOM      2  C   UNL     1       0.146  13.665  19.445  0.00  0.00    +0.000 C 
ATOM      3  C   UNL     1      -0.695  13.190  20.615  0.00  0.00    +0.000 C 
ATOM      4  C   UNL     1      -1.279  14.423  21.364  0.00  0.00    +0.000 C 
ATOM      5  C   UNL     1      -2.129  13.812  22.486  0.00  0.00    +0.000 C 
ATOM      6  C   UNL     1      -2.153  12.316  22.094  0.00  0.00    +0.000 C 
ATOM      7  C   UNL     1      -0.808  11.832  22.563  0.00  0.00    +0.000 A 
ATOM      8  N   UNL     1      -0.683  10.777  23.382  0.00  0.00    +0.000 NA
ATOM      9  N   UNL     1       0.243   9.894  23.048  0.00  0.00    +0.000 NA
ATOM     10  C   UNL     1       0.913  10.073  21.878  0.00  0.00    +0.000 A 
ATOM     11  N   UNL     1       0.965  11.247  21.173  0.00  0.00    +0.000 NA
ATOM     12  C   UNL     1       0.095  12.195  21.581  0.00  0.00    +0.000 A 
ATOM     13  C   UNL     1      -1.982  12.302  20.503  0.00  0.00    +0.000 C 
ATOM     14  C   UNL     1      -1.648  11.011  19.704  0.00  0.00    +0.000 C 
ATOM     15  C   UNL     1      -3.347  12.752  19.956  0.00  0.00    +0.000 C 
ENDBRANCH   1  10
BRANCH   1  16
ATOM     16  C   UNL     1       1.631   9.185  19.286  0.00  0.00    +0.000 C 
BRANCH  16  17
ATOM     17  C   UNL     1       2.207   8.145  18.309  0.00  0.00    +0.000 C 
ATOM     18  O   UNL     1       2.382   8.404  17.123  0.00  0.00    +0.000 OA
ATOM     19  N   UNL     1       2.528   6.934  18.929  0.00  0.00    +0.000 N 
ATOM     20  H   UNL     1       1.889   6.708  19.689  0.00  0.00    +0.000 HD
BRANCH  19  21
ATOM     21  C   UNL     1       3.028   5.790  18.230  0.00  0.00    +0.000 A 
ATOM     22  C   UNL     1       2.164   4.689  18.200  0.00  0.00    +0.000 A 
ATOM     23  C   UNL     1       2.467   3.561  17.442  0.00  0.00    +0.000 A 
ATOM     24  C   UNL     1       3.658   3.507  16.727  0.00  0.00    +0.000 A 
ATOM     25  C   UNL     1       4.588   4.547  16.817  0.00  0.00    +0.000 A 
ATOM     26  C   UNL     1       5.820   4.431  16.150  0.00  0.00    +0.000 A 
ATOM     27  C   UNL     1       6.814   5.398  16.292  0.00  0.00    +0.000 A 
ATOM     28  C   UNL     1       6.588   6.489  17.120  0.00  0.00    +0.000 A 
ATOM     29  C   UNL     1       5.351   6.636  17.762  0.00  0.00    +0.000 A 
ATOM     30  C   UNL     1       4.309   5.696  17.609  0.00  0.00    +0.000 A 
ENDBRANCH  19  21
ENDBRANCH  16  17
ENDBRANCH   1  16
TORSDOF 4
ENDMDL
MODEL 8
REMARK VINA RESULT:      -8.4      7.367     11.188
REMARK  Name = 
REMARK  7 active torsions:
REMARK  status: ('A' for Active; 'I' for Inactive)
REMARK    1  A    between atoms: C_1  and  C_2
REMARK    2  A    between atoms: C_9  and  S_10
REMARK    3  A    between atoms: S_10  and  C_11
REMARK    4  A    between atoms: C_11  and  C_12
REMARK    5  A    between atoms: N_14  and  C_15
REMARK    6  A    between atoms: C_27  and  C_28
REMARK    7  A    between atoms: C_27  and  C_29
REMARK                            x       y       z     vdW  Elec       q    Type
REMARK                         _______ _______ _______ _____ _____    ______ ____
ROOT
ATOM      1  S   UNL     1       1.962   8.333  17.578  0.00  0.00    +0.000 S 
ENDROOT
BRANCH   1  10
ATOM      2  C   UNL     1       1.180   3.995  20.777  0.00  0.00    +0.000 C 
ATOM      3  C   UNL     1       2.420   3.888  19.908  0.00  0.00    +0.000 C 
ATOM      4  C   UNL     1       3.382   2.824  20.511  0.00  0.00    +0.000 C 
ATOM      5  C   UNL     1       4.560   2.787  19.530  0.00  0.00    +0.000 C 
ATOM      6  C   UNL     1       4.024   3.627  18.348  0.00  0.00    +0.000 C 
ATOM      7  C   UNL     1       4.205   5.037  18.840  0.00  0.00    +0.000 A 
ATOM      8  N   UNL     1       4.877   5.953  18.126  0.00  0.00    +0.000 NA
ATOM      9  N   UNL     1       4.300   7.139  18.021  0.00  0.00    +0.000 NA
ATOM     10  C   UNL     1       3.059   7.302  18.553  0.00  0.00    +0.000 A 
ATOM     11  N   UNL     1       2.482   6.468  19.474  0.00  0.00    +0.000 NA
ATOM     12  C   UNL     1       3.128   5.298  19.666  0.00  0.00    +0.000 A 
ATOM     13  C   UNL     1       2.435   3.451  18.403  0.00  0.00    +0.000 C 
ATOM     14  C   UNL     1       1.460   4.353  17.595  0.00  0.00    +0.000 C 
ATOM     15  C   UNL     1       2.177   2.031  17.871  0.00  0.00    +0.000 C 
ENDBRANCH   1  10
BRANCH   1  16
ATOM     16  C   UNL     1       1.623   9.738  18.723  0.00  0.00    +0.000 C 
BRANCH  16  17
ATOM     17  C   UNL     1       0.141   9.968  19.066  0.00  0.00    +0.000 C 
ATOM     18  O   UNL     1      -0.358   9.524  20.095  0.00  0.00    +0.000 OA
ATOM     19  N   UNL     1      -0.524  10.748  18.116  0.00  0.00    +0.000 N 
ATOM     20  H   UNL     1      -0.176  10.587  17.172  0.00  0.00    +0.000 HD
BRANCH  19  21
ATOM     21  C   UNL     1      -1.918  11.061  18.177  0.00  0.00    +0.000 A 
ATOM     22  C   UNL     1      -2.715  10.403  17.232  0.00  0.00    +0.000 A 
ATOM     23  C   UNL     1      -4.103  10.511  17.265  0.00  0.00    +0.000 A 
ATOM     24  C   UNL     1      -4.712  11.307  18.229  0.00  0.00    +0.000 A 
ATOM     25  C   UNL     1      -3.942  12.057  19.122  0.00  0.00    +0.000 A 
ATOM     26  C   UNL     1      -4.580  12.917  20.032  0.00  0.00    +0.000 A 
ATOM     27  C   UNL     1      -3.848  13.754  20.872  0.00  0.00    +0.000 A 
ATOM     28  C   UNL     1      -2.462  13.749  20.798  0.00  0.00    +0.000 A 
ATOM     29  C   UNL     1      -1.811  12.870  19.922  0.00  0.00    +0.000 A 
ATOM     30  C   UNL     1      -2.520  11.982  19.086  0.00  0.00    +0.000 A 
ENDBRANCH  19  21
ENDBRANCH  16  17
ENDBRANCH   1  16
TORSDOF 4
ENDMDL
MODEL 9
REMARK VINA RESULT:      -8.4      6.954     10.051
REMARK  Name = 
REMARK  7 active torsions:
REMARK  status: ('A' for Active; 'I' for Inactive)
REMARK    1  A    between atoms: C_1  and  C_2
REMARK    2  A    between atoms: C_9  and  S_10
REMARK    3  A    between atoms: S_10  and  C_11
REMARK    4  A    between atoms: C_11  and  C_12
REMARK    5  A    between atoms: N_14  and  C_15
REMARK    6  A    between atoms: C_27  and  C_28
REMARK    7  A    between atoms: C_27  and  C_29
REMARK                            x       y       z     vdW  Elec       q    Type
REMARK                         _______ _______ _______ _____ _____    ______ ____
ROOT
ATOM      1  S   UNL     1       1.908   5.543  20.425  0.00  0.00    +0.000 S 
ENDROOT
BRANCH   1  10
ATOM      2  C   UNL     1       5.554   7.450  16.858  0.00  0.00    +0.000 C 
ATOM      3  C   UNL     1       5.386   5.942  16.801  0.00  0.00    +0.000 C 
ATOM      4  C   UNL     1       5.914   5.416  15.435  0.00  0.00    +0.000 C 
ATOM      5  C   UNL     1       5.725   3.896  15.522  0.00  0.00    +0.000 C 
ATOM      6  C   UNL     1       5.364   3.699  17.013  0.00  0.00    +0.000 C 
ATOM      7  C   UNL     1       3.913   4.094  17.054  0.00  0.00    +0.000 A 
ATOM      8  N   UNL     1       2.974   3.281  17.561  0.00  0.00    +0.000 NA
ATOM      9  N   UNL     1       2.107   3.845  18.384  0.00  0.00    +0.000 NA
ATOM     10  C   UNL     1       2.287   5.151  18.717  0.00  0.00    +0.000 A 
ATOM     11  N   UNL     1       3.079   6.035  18.031  0.00  0.00    +0.000 NA
ATOM     12  C   UNL     1       3.891   5.475  17.110  0.00  0.00    +0.000 A 
ATOM     13  C   UNL     1       6.068   4.919  17.773  0.00  0.00    +0.000 C 
ATOM     14  C   UNL     1       5.732   5.301  19.242  0.00  0.00    +0.000 C 
ATOM     15  C   UNL     1       7.563   4.556  17.801  0.00  0.00    +0.000 C 
ENDBRANCH   1  10
BRANCH   1  16
ATOM     16  C   UNL     1       2.151   7.370  20.472  0.00  0.00    +0.000 C 
BRANCH  16  17
ATOM     17  C   UNL     1       0.878   8.200  20.712  0.00  0.00    +0.000 C 
ATOM     18  O   UNL     1       0.014   7.839  21.504  0.00  0.00    +0.000 OA
ATOM     19  N   UNL     1       0.854   9.388  19.974  0.00  0.00    +0.000 N 
ATOM     20  H   UNL     1       1.306   9.288  19.067  0.00  0.00    +0.000 HD
BRANCH  19  21
ATOM     21  C   UNL     1      -0.241  10.307  19.981  0.00  0.00    +0.000 A 
ATOM     22  C   UNL     1      -0.401  11.030  21.171  0.00  0.00    +0.000 A 
ATOM     23  C   UNL     1      -1.341  12.052  21.267  0.00  0.00    +0.000 A 
ATOM     24  C   UNL     1      -2.158  12.346  20.181  0.00  0.00    +0.000 A 
ATOM     25  C   UNL     1      -2.094  11.577  19.015  0.00  0.00    +0.000 A 
ATOM     26  C   UNL     1      -2.987  11.842  17.963  0.00  0.00    +0.000 A 
ATOM     27  C   UNL     1      -3.023  11.039  16.825  0.00  0.00    +0.000 A 
ATOM     28  C   UNL     1      -2.170   9.948  16.734  0.00  0.00    +0.000 A 
ATOM     29  C   UNL     1      -1.248   9.693  17.759  0.00  0.00    +0.000 A 
ATOM     30  C   UNL     1      -1.159  10.509  18.907  0.00  0.00    +0.000 A 
ENDBRANCH  19  21
ENDBRANCH  16  17
ENDBRANCH   1  16
TORSDOF 4
ENDMDL
