MODEL 1
REMARK VINA RESULT:      -8.2      0.000      0.000
REMARK  Name = 
REMARK  3 active torsions:
REMARK  status: ('A' for Active; 'I' for Inactive)
REMARK    1  A    between atoms: C_1  and  N_2
REMARK    2  A    between atoms: C_4  and  C_5
REMARK    3  A    between atoms: C_12  and  C_13
REMARK                            x       y       z     vdW  Elec       q    Type
REMARK                         _______ _______ _______ _____ _____    ______ ____
ROOT
ATOM      1  C   UNL     1       5.909   3.711  15.282  0.00  0.00    +0.000 C 
ATOM      2  N   UNL     1       4.964   4.182  16.267  0.00  0.00    +0.000 N 
ATOM      3  N   UNL     1       4.432   3.385  17.216  0.00  0.00    +0.000 NA
ATOM      4  C   UNL     1       3.708   4.178  17.953  0.00  0.00    +0.000 C 
ATOM      5  C   UNL     1       3.711   5.619  17.498  0.00  0.00    +0.000 C 
ATOM      6  C   UNL     1       4.930   5.608  16.576  0.00  0.00    +0.000 C 
ENDROOT
BRANCH   6   7
ATOM      7  C   UNL     1       6.145   6.179  17.301  0.00  0.00    +0.000 A 
ATOM      8  C   UNL     1       6.553   7.497  17.014  0.00  0.00    +0.000 A 
ATOM      9  C   UNL     1       7.624   8.084  17.695  0.00  0.00    +0.000 A 
ATOM     10  C   UNL     1       8.304   7.367  18.676  0.00  0.00    +0.000 A 
ATOM     11  C   UNL     1       7.904   6.069  18.970  0.00  0.00    +0.000 A 
ATOM     12  F   UNL     1       8.554   5.383  19.919  0.00  0.00    +0.000 F 
ATOM     13  C   UNL     1       6.836   5.478  18.303  0.00  0.00    +0.000 A 
ENDBRANCH   6   7
BRANCH   4  14
ATOM     14  C   UNL     1       2.907   3.726  19.114  0.00  0.00    +0.000 A 
ATOM     15  C   UNL     1       1.554   4.073  19.189  0.00  0.00    +0.000 A 
ATOM     16  C   UNL     1       0.786   3.674  20.284  0.00  0.00    +0.000 A 
ATOM     17  C   UNL     1       1.366   2.927  21.310  0.00  0.00    +0.000 A 
ATOM     18  C   UNL     1       2.712   2.575  21.239  0.00  0.00    +0.000 A 
ATOM     19  C   UNL     1       3.483   2.974  20.145  0.00  0.00    +0.000 A 
ENDBRANCH   4  14
TORSDOF 2
ENDMDL
MODEL 2
REMARK VINA RESULT:      -8.1      2.612      6.356
REMARK  Name = 
REMARK  3 active torsions:
REMARK  status: ('A' for Active; 'I' for Inactive)
REMARK    1  A    between atoms: C_1  and  N_2
REMARK    2  A    between atoms: C_4  and  C_5
REMARK    3  A    between atoms: C_12  and  C_13
REMARK                            x       y       z     vdW  Elec       q    Type
REMARK                         _______ _______ _______ _____ _____    ______ ____
ROOT
ATOM      1  C   UNL     1       6.498   5.329  19.330  0.00  0.00    +0.000 C 
ATOM      2  N   UNL     1       6.121   5.530  17.950  0.00  0.00    +0.000 N 
ATOM      3  N   UNL     1       6.722   4.894  16.923  0.00  0.00    +0.000 NA
ATOM      4  C   UNL     1       6.058   5.265  15.866  0.00  0.00    +0.000 C 
ATOM      5  C   UNL     1       4.930   6.229  16.149  0.00  0.00    +0.000 C 
ATOM      6  C   UNL     1       4.783   6.036  17.659  0.00  0.00    +0.000 C 
ENDROOT
BRANCH   6   7
ATOM      7  C   UNL     1       3.618   5.099  17.960  0.00  0.00    +0.000 A 
ATOM      8  C   UNL     1       3.454   3.940  17.176  0.00  0.00    +0.000 A 
ATOM      9  C   UNL     1       2.436   3.022  17.451  0.00  0.00    +0.000 A 
ATOM     10  C   UNL     1       1.566   3.242  18.515  0.00  0.00    +0.000 A 
ATOM     11  C   UNL     1       1.725   4.380  19.298  0.00  0.00    +0.000 A 
ATOM     12  F   UNL     1       0.892   4.587  20.327  0.00  0.00    +0.000 F 
ATOM     13  C   UNL     1       2.738   5.297  19.037  0.00  0.00    +0.000 A 
ENDBRANCH   6   7
BRANCH   4  14
ATOM     14  C   UNL     1       6.386   4.828  14.489  0.00  0.00    +0.000 A 
ATOM     15  C   UNL     1       5.574   3.878  13.860  0.00  0.00    +0.000 A 
ATOM     16  C   UNL     1       5.877   3.439  12.570  0.00  0.00    +0.000 A 
ATOM     17  C   UNL     1       6.991   3.946  11.902  0.00  0.00    +0.000 A 
ATOM     18  C   UNL     1       7.802   4.895  12.522  0.00  0.00    +0.000 A 
ATOM     19  C   UNL     1       7.502   5.336  13.813  0.00  0.00    +0.000 A 
ENDBRANCH   4  14
TORSDOF 2
ENDMDL
MODEL 3
REMARK VINA RESULT:      -8.1      0.686      1.042
REMARK  Name = 
REMARK  3 active torsions:
REMARK  status: ('A' for Active; 'I' for Inactive)
REMARK    1  A    between atoms: C_1  and  N_2
REMARK    2  A    between atoms: C_4  and  C_5
REMARK    3  A    between atoms: C_12  and  C_13
REMARK                            x       y       z     vdW  Elec       q    Type
REMARK                         _______ _______ _______ _____ _____    ______ ____
ROOT
ATOM      1  C   UNL     1       6.055   3.943  15.154  0.00  0.00    +0.000 C 
ATOM      2  N   UNL     1       5.067   4.455  16.075  0.00  0.00    +0.000 N 
ATOM      3  N   UNL     1       4.400   3.672  16.948  0.00  0.00    +0.000 NA
ATOM      4  C   UNL     1       3.677   4.495  17.651  0.00  0.00    +0.000 C 
ATOM      5  C   UNL     1       3.824   5.946  17.251  0.00  0.00    +0.000 C 
ATOM      6  C   UNL     1       5.112   5.869  16.432  0.00  0.00    +0.000 C 
ENDROOT
BRANCH   6   7
ATOM      7  C   UNL     1       6.300   6.324  17.273  0.00  0.00    +0.000 A 
ATOM      8  C   UNL     1       6.842   7.606  17.053  0.00  0.00    +0.000 A 
ATOM      9  C   UNL     1       7.892   8.090  17.838  0.00  0.00    +0.000 A 
ATOM     10  C   UNL     1       8.418   7.305  18.860  0.00  0.00    +0.000 A 
ATOM     11  C   UNL     1       7.886   6.042  19.089  0.00  0.00    +0.000 A 
ATOM     12  F   UNL     1       8.387   5.290  20.078  0.00  0.00    +0.000 F 
ATOM     13  C   UNL     1       6.836   5.553  18.318  0.00  0.00    +0.000 A 
ENDBRANCH   6   7
BRANCH   4  14
ATOM     14  C   UNL     1       2.750   4.071  18.726  0.00  0.00    +0.000 A 
ATOM     15  C   UNL     1       2.988   4.491  20.040  0.00  0.00    +0.000 A 
ATOM     16  C   UNL     1       2.138   4.086  21.071  0.00  0.00    +0.000 A 
ATOM     17  C   UNL     1       1.048   3.261  20.795  0.00  0.00    +0.000 A 
ATOM     18  C   UNL     1       0.804   2.843  19.489  0.00  0.00    +0.000 A 
ATOM     19  C   UNL     1       1.653   3.246  18.455  0.00  0.00    +0.000 A 
ENDBRANCH   4  14
TORSDOF 2
ENDMDL
MODEL 4
REMARK VINA RESULT:      -8.1      1.042      1.513
REMARK  Name = 
REMARK  3 active torsions:
REMARK  status: ('A' for Active; 'I' for Inactive)
REMARK    1  A    between atoms: C_1  and  N_2
REMARK    2  A    between atoms: C_4  and  C_5
REMARK    3  A    between atoms: C_12  and  C_13
REMARK                            x       y       z     vdW  Elec       q    Type
REMARK                         _______ _______ _______ _____ _____    ______ ____
ROOT
ATOM      1  C   UNL     1       5.627   4.064  15.253  0.00  0.00    +0.000 C 
ATOM      2  N   UNL     1       4.727   4.442  16.318  0.00  0.00    +0.000 N 
ATOM      3  N   UNL     1       4.220   3.558  17.202  0.00  0.00    +0.000 NA
ATOM      4  C   UNL     1       3.537   4.279  18.043  0.00  0.00    +0.000 C 
ATOM      5  C   UNL     1       3.542   5.759  17.737  0.00  0.00    +0.000 C 
ATOM      6  C   UNL     1       4.725   5.830  16.771  0.00  0.00    +0.000 C 
ENDROOT
BRANCH   6   7
ATOM      7  C   UNL     1       5.974   6.311  17.501  0.00  0.00    +0.000 A 
ATOM      8  C   UNL     1       6.530   5.500  18.510  0.00  0.00    +0.000 A 
ATOM      9  C   UNL     1       7.708   5.872  19.167  0.00  0.00    +0.000 A 
ATOM     10  C   UNL     1       8.352   7.058  18.826  0.00  0.00    +0.000 A 
ATOM     11  C   UNL     1       7.815   7.860  17.827  0.00  0.00    +0.000 A 
ATOM     12  F   UNL     1       8.440   8.998  17.494  0.00  0.00    +0.000 F 
ATOM     13  C   UNL     1       6.647   7.498  17.163  0.00  0.00    +0.000 A 
ENDBRANCH   6   7
BRANCH   4  14
ATOM     14  C   UNL     1       2.775   3.720  19.183  0.00  0.00    +0.000 A 
ATOM     15  C   UNL     1       1.378   3.803  19.180  0.00  0.00    +0.000 A 
ATOM     16  C   UNL     1       0.642   3.300  20.254  0.00  0.00    +0.000 A 
ATOM     17  C   UNL     1       1.297   2.710  21.336  0.00  0.00    +0.000 A 
ATOM     18  C   UNL     1       2.687   2.621  21.343  0.00  0.00    +0.000 A 
ATOM     19  C   UNL     1       3.426   3.124  20.270  0.00  0.00    +0.000 A 
ENDBRANCH   4  14
TORSDOF 2
ENDMDL
MODEL 5
REMARK VINA RESULT:      -8.0      2.569      6.369
REMARK  Name = 
REMARK  3 active torsions:
REMARK  status: ('A' for Active; 'I' for Inactive)
REMARK    1  A    between atoms: C_1  and  N_2
REMARK    2  A    between atoms: C_4  and  C_5
REMARK    3  A    between atoms: C_12  and  C_13
REMARK                            x       y       z     vdW  Elec       q    Type
REMARK                         _______ _______ _______ _____ _____    ______ ____
ROOT
ATOM      1  C   UNL     1       6.604   5.195  19.269  0.00  0.00    +0.000 C 
ATOM      2  N   UNL     1       6.186   5.379  17.899  0.00  0.00    +0.000 N 
ATOM      3  N   UNL     1       6.848   4.849  16.850  0.00  0.00    +0.000 NA
ATOM      4  C   UNL     1       6.128   5.157  15.810  0.00  0.00    +0.000 C 
ATOM      5  C   UNL     1       4.889   5.962  16.130  0.00  0.00    +0.000 C 
ATOM      6  C   UNL     1       4.790   5.716  17.636  0.00  0.00    +0.000 C 
ENDROOT
BRANCH   6   7
ATOM      7  C   UNL     1       3.758   4.632  17.926  0.00  0.00    +0.000 A 
ATOM      8  C   UNL     1       2.395   4.984  17.982  0.00  0.00    +0.000 A 
ATOM      9  C   UNL     1       1.408   4.015  18.187  0.00  0.00    +0.000 A 
ATOM     10  C   UNL     1       1.763   2.678  18.336  0.00  0.00    +0.000 A 
ATOM     11  C   UNL     1       3.105   2.320  18.275  0.00  0.00    +0.000 A 
ATOM     12  F   UNL     1       3.445   1.031  18.410  0.00  0.00    +0.000 F 
ATOM     13  C   UNL     1       4.095   3.275  18.065  0.00  0.00    +0.000 A 
ENDBRANCH   6   7
BRANCH   4  14
ATOM     14  C   UNL     1       6.490   4.798  14.419  0.00  0.00    +0.000 A 
ATOM     15  C   UNL     1       5.778   3.786  13.766  0.00  0.00    +0.000 A 
ATOM     16  C   UNL     1       6.116   3.420  12.462  0.00  0.00    +0.000 A 
ATOM     17  C   UNL     1       7.165   4.062  11.804  0.00  0.00    +0.000 A 
ATOM     18  C   UNL     1       7.875   5.073  12.448  0.00  0.00    +0.000 A 
ATOM     19  C   UNL     1       7.540   5.442  13.753  0.00  0.00    +0.000 A 
ENDBRANCH   4  14
TORSDOF 2
ENDMDL
MODEL 6
REMARK VINA RESULT:      -8.0      1.053      1.865
REMARK  Name = 
REMARK  3 active torsions:
REMARK  status: ('A' for Active; 'I' for Inactive)
REMARK    1  A    between atoms: C_1  and  N_2
REMARK    2  A    between atoms: C_4  and  C_5
REMARK    3  A    between atoms: C_12  and  C_13
REMARK                            x       y       z     vdW  Elec       q    Type
REMARK                         _______ _______ _______ _____ _____    ______ ____
ROOT
ATOM      1  C   UNL     1       5.755   4.041  15.221  0.00  0.00    +0.000 C 
ATOM      2  N   UNL     1       4.819   4.447  16.243  0.00  0.00    +0.000 N 
ATOM      3  N   UNL     1       4.276   3.585  17.127  0.00  0.00    +0.000 NA
ATOM      4  C   UNL     1       3.566   4.328  17.926  0.00  0.00    +0.000 C 
ATOM      5  C   UNL     1       3.591   5.801  17.588  0.00  0.00    +0.000 C 
ATOM      6  C   UNL     1       4.808   5.844  16.664  0.00  0.00    +0.000 C 
ENDROOT
BRANCH   6   7
ATOM      7  C   UNL     1       6.032   6.337  17.428  0.00  0.00    +0.000 A 
ATOM      8  C   UNL     1       6.592   5.513  18.425  0.00  0.00    +0.000 A 
ATOM      9  C   UNL     1       7.748   5.896  19.112  0.00  0.00    +0.000 A 
ATOM     10  C   UNL     1       8.368   7.105  18.815  0.00  0.00    +0.000 A 
ATOM     11  C   UNL     1       7.827   7.921  17.828  0.00  0.00    +0.000 A 
ATOM     12  F   UNL     1       8.430   9.082  17.536  0.00  0.00    +0.000 F 
ATOM     13  C   UNL     1       6.681   7.548  17.134  0.00  0.00    +0.000 A 
ENDBRANCH   6   7
BRANCH   4  14
ATOM     14  C   UNL     1       2.760   3.798  19.050  0.00  0.00    +0.000 A 
ATOM     15  C   UNL     1       3.409   3.340  20.202  0.00  0.00    +0.000 A 
ATOM     16  C   UNL     1       2.670   2.818  21.265  0.00  0.00    +0.000 A 
ATOM     17  C   UNL     1       1.279   2.752  21.183  0.00  0.00    +0.000 A 
ATOM     18  C   UNL     1       0.626   3.210  20.040  0.00  0.00    +0.000 A 
ATOM     19  C   UNL     1       1.364   3.732  18.975  0.00  0.00    +0.000 A 
ENDBRANCH   4  14
TORSDOF 2
ENDMDL
MODEL 7
REMARK VINA RESULT:      -7.9      2.588      6.306
REMARK  Name = 
REMARK  3 active torsions:
REMARK  status: ('A' for Active; 'I' for Inactive)
REMARK    1  A    between atoms: C_1  and  N_2
REMARK    2  A    between atoms: C_4  and  C_5
REMARK    3  A    between atoms: C_12  and  C_13
REMARK                            x       y       z     vdW  Elec       q    Type
REMARK                         _______ _______ _______ _____ _____    ______ ____
ROOT
ATOM      1  C   UNL     1       6.999   5.551  19.217  0.00  0.00    +0.000 C 
ATOM      2  N   UNL     1       6.528   5.696  17.860  0.00  0.00    +0.000 N 
ATOM      3  N   UNL     1       7.038   4.996  16.825  0.00  0.00    +0.000 NA
ATOM      4  C   UNL     1       6.308   5.332  15.801  0.00  0.00    +0.000 C 
ATOM      5  C   UNL     1       5.224   6.337  16.116  0.00  0.00    +0.000 C 
ATOM      6  C   UNL     1       5.183   6.220  17.640  0.00  0.00    +0.000 C 
ENDROOT
BRANCH   6   7
ATOM      7  C   UNL     1       4.024   5.328  18.070  0.00  0.00    +0.000 A 
ATOM      8  C   UNL     1       3.167   5.771  19.097  0.00  0.00    +0.000 A 
ATOM      9  C   UNL     1       2.056   5.015  19.485  0.00  0.00    +0.000 A 
ATOM     10  C   UNL     1       1.779   3.806  18.853  0.00  0.00    +0.000 A 
ATOM     11  C   UNL     1       2.615   3.365  17.834  0.00  0.00    +0.000 A 
ATOM     12  F   UNL     1       2.343   2.205  17.221  0.00  0.00    +0.000 F 
ATOM     13  C   UNL     1       3.719   4.112  17.436  0.00  0.00    +0.000 A 
ENDBRANCH   6   7
BRANCH   4  14
ATOM     14  C   UNL     1       6.526   4.822  14.427  0.00  0.00    +0.000 A 
ATOM     15  C   UNL     1       7.572   5.347  13.660  0.00  0.00    +0.000 A 
ATOM     16  C   UNL     1       7.783   4.894  12.357  0.00  0.00    +0.000 A 
ATOM     17  C   UNL     1       6.950   3.916  11.813  0.00  0.00    +0.000 A 
ATOM     18  C   UNL     1       5.909   3.387  12.573  0.00  0.00    +0.000 A 
ATOM     19  C   UNL     1       5.696   3.838  13.878  0.00  0.00    +0.000 A 
ENDBRANCH   4  14
TORSDOF 2
ENDMDL
MODEL 8
REMARK VINA RESULT:      -7.9      2.423      6.296
REMARK  Name = 
REMARK  3 active torsions:
REMARK  status: ('A' for Active; 'I' for Inactive)
REMARK    1  A    between atoms: C_1  and  N_2
REMARK    2  A    between atoms: C_4  and  C_5
REMARK    3  A    between atoms: C_12  and  C_13
REMARK                            x       y       z     vdW  Elec       q    Type
REMARK                         _______ _______ _______ _____ _____    ______ ____
ROOT
ATOM      1  C   UNL     1       7.467   5.439  18.995  0.00  0.00    +0.000 C 
ATOM      2  N   UNL     1       6.814   5.462  17.707  0.00  0.00    +0.000 N 
ATOM      3  N   UNL     1       7.380   4.971  16.586  0.00  0.00    +0.000 NA
ATOM      4  C   UNL     1       6.465   5.092  15.667  0.00  0.00    +0.000 C 
ATOM      5  C   UNL     1       5.177   5.716  16.155  0.00  0.00    +0.000 C 
ATOM      6  C   UNL     1       5.358   5.561  17.665  0.00  0.00    +0.000 C 
ENDROOT
BRANCH   6   7
ATOM      7  C   UNL     1       4.576   4.353  18.168  0.00  0.00    +0.000 A 
ATOM      8  C   UNL     1       3.578   3.795  17.345  0.00  0.00    +0.000 A 
ATOM      9  C   UNL     1       2.875   2.652  17.738  0.00  0.00    +0.000 A 
ATOM     10  C   UNL     1       3.158   2.044  18.958  0.00  0.00    +0.000 A 
ATOM     11  C   UNL     1       4.145   2.583  19.773  0.00  0.00    +0.000 A 
ATOM     12  F   UNL     1       4.423   1.992  20.943  0.00  0.00    +0.000 F 
ATOM     13  C   UNL     1       4.855   3.716  19.389  0.00  0.00    +0.000 A 
ENDBRANCH   6   7
BRANCH   4  14
ATOM     14  C   UNL     1       6.656   4.700  14.252  0.00  0.00    +0.000 A 
ATOM     15  C   UNL     1       7.641   5.341  13.492  0.00  0.00    +0.000 A 
ATOM     16  C   UNL     1       7.825   5.000  12.150  0.00  0.00    +0.000 A 
ATOM     17  C   UNL     1       7.027   4.018  11.562  0.00  0.00    +0.000 A 
ATOM     18  C   UNL     1       6.048   3.374  12.315  0.00  0.00    +0.000 A 
ATOM     19  C   UNL     1       5.861   3.713  13.658  0.00  0.00    +0.000 A 
ENDBRANCH   4  14
TORSDOF 2
ENDMDL
MODEL 9
REMARK VINA RESULT:      -7.9      2.485      6.201
REMARK  Name = 
REMARK  3 active torsions:
REMARK  status: ('A' for Active; 'I' for Inactive)
REMARK    1  A    between atoms: C_1  and  N_2
REMARK    2  A    between atoms: C_4  and  C_5
REMARK    3  A    between atoms: C_12  and  C_13
REMARK                            x       y       z     vdW  Elec       q    Type
REMARK                         _______ _______ _______ _____ _____    ______ ____
ROOT
ATOM      1  C   UNL     1       6.986   5.543  19.255  0.00  0.00    +0.000 C 
ATOM      2  N   UNL     1       6.532   5.712  17.894  0.00  0.00    +0.000 N 
ATOM      3  N   UNL     1       6.965   4.945  16.873  0.00  0.00    +0.000 NA
ATOM      4  C   UNL     1       6.273   5.337  15.842  0.00  0.00    +0.000 C 
ATOM      5  C   UNL     1       5.301   6.457  16.138  0.00  0.00    +0.000 C 
ATOM      6  C   UNL     1       5.250   6.372  17.664  0.00  0.00    +0.000 C 
ENDROOT
BRANCH   6   7
ATOM      7  C   UNL     1       4.003   5.616  18.108  0.00  0.00    +0.000 A 
ATOM      8  C   UNL     1       3.475   4.616  17.267  0.00  0.00    +0.000 A 
ATOM      9  C   UNL     1       2.367   3.856  17.657  0.00  0.00    +0.000 A 
ATOM     10  C   UNL     1       1.770   4.078  18.894  0.00  0.00    +0.000 A 
ATOM     11  C   UNL     1       2.288   5.057  19.734  0.00  0.00    +0.000 A 
ATOM     12  F   UNL     1       1.717   5.264  20.928  0.00  0.00    +0.000 F 
ATOM     13  C   UNL     1       3.393   5.815  19.358  0.00  0.00    +0.000 A 
ENDBRANCH   6   7
BRANCH   4  14
ATOM     14  C   UNL     1       6.435   4.783  14.478  0.00  0.00    +0.000 A 
ATOM     15  C   UNL     1       7.528   5.183  13.702  0.00  0.00    +0.000 A 
ATOM     16  C   UNL     1       7.688   4.688  12.407  0.00  0.00    +0.000 A 
ATOM     17  C   UNL     1       6.759   3.791  11.881  0.00  0.00    +0.000 A 
ATOM     18  C   UNL     1       5.670   3.386  12.650  0.00  0.00    +0.000 A 
ATOM     19  C   UNL     1       5.507   3.881  13.946  0.00  0.00    +0.000 A 
ENDBRANCH   4  14
TORSDOF 2
ENDMDL
