MODEL 1
REMARK VINA RESULT:      -7.2      0.000      0.000
REMARK  Name = 
REMARK  5 active torsions:
REMARK  status: ('A' for Active; 'I' for Inactive)
REMARK    1  A    between atoms: C_2  and  C_3
REMARK    2  A    between atoms: C_8  and  C_9
REMARK    3  A    between atoms: C_9  and  O_10
REMARK    4  A    between atoms: O_10  and  C_11
REMARK    5  A    between atoms: C_11  and  C_13
REMARK                            x       y       z     vdW  Elec       q    Type
REMARK                         _______ _______ _______ _____ _____    ______ ____
ROOT
ATOM      1  C   UNL     1       4.943   5.185  19.410  0.00  0.00    +0.000 C 
ENDROOT
BRANCH   1   7
ATOM      2  C   UNL     1       3.482   3.081  19.278  0.00  0.00    +0.000 A 
ATOM      3  C   UNL     1       2.306   2.450  18.844  0.00  0.00    +0.000 A 
ATOM      4  C   UNL     1       1.368   3.143  18.080  0.00  0.00    +0.000 A 
ATOM      5  C   UNL     1       1.603   4.471  17.735  0.00  0.00    +0.000 A 
ATOM      6  C   UNL     1       2.766   5.110  18.165  0.00  0.00    +0.000 A 
ATOM      7  C   UNL     1       3.712   4.433  18.956  0.00  0.00    +0.000 A 
BRANCH   2   9
ATOM      8  N   UNL     1       5.176   1.690  20.670  0.00  0.00    +0.000 NA
ATOM      9  C   UNL     1       4.413   2.314  20.058  0.00  0.00    +0.000 C 
ENDBRANCH   2   9
ENDBRANCH   1   7
BRANCH   1  10
ATOM     10  O   UNL     1       5.619   5.709  18.264  0.00  0.00    +0.000 OA
BRANCH  10  11
ATOM     11  C   UNL     1       6.654   4.969  17.779  0.00  0.00    +0.000 C 
ATOM     12  O   UNL     1       7.591   4.550  18.451  0.00  0.00    +0.000 OA
BRANCH  11  13
ATOM     13  C   UNL     1       6.491   4.739  16.363  0.00  0.00    +0.000 A 
ATOM     14  C   UNL     1       5.516   4.043  15.668  0.00  0.00    +0.000 A 
ATOM     15  C   UNL     1       5.842   4.140  14.292  0.00  0.00    +0.000 A 
ATOM     16  C   UNL     1       6.994   4.889  14.227  0.00  0.00    +0.000 A 
ATOM     17 BR   UNL     1       7.893   5.341  12.657  0.00  0.00    +0.000 Br
ATOM     18  O   UNL     1       7.394   5.257  15.471  0.00  0.00    +0.000 OA
ENDBRANCH  11  13
ENDBRANCH  10  11
ENDBRANCH   1  10
TORSDOF 5
ENDMDL
MODEL 2
REMARK VINA RESULT:      -6.8      1.690      2.207
REMARK  Name = 
REMARK  5 active torsions:
REMARK  status: ('A' for Active; 'I' for Inactive)
REMARK    1  A    between atoms: C_2  and  C_3
REMARK    2  A    between atoms: C_8  and  C_9
REMARK    3  A    between atoms: C_9  and  O_10
REMARK    4  A    between atoms: O_10  and  C_11
REMARK    5  A    between atoms: C_11  and  C_13
REMARK                            x       y       z     vdW  Elec       q    Type
REMARK                         _______ _______ _______ _____ _____    ______ ____
ROOT
ATOM      1  C   UNL     1       5.200   4.853  19.309  0.00  0.00    +0.000 C 
ENDROOT
BRANCH   1   7
ATOM      2  C   UNL     1       2.663   4.753  18.949  0.00  0.00    +0.000 A 
ATOM      3  C   UNL     1       1.516   4.015  18.616  0.00  0.00    +0.000 A 
ATOM      4  C   UNL     1       1.605   2.653  18.333  0.00  0.00    +0.000 A 
ATOM      5  C   UNL     1       2.840   2.014  18.391  0.00  0.00    +0.000 A 
ATOM      6  C   UNL     1       3.987   2.738  18.717  0.00  0.00    +0.000 A 
ATOM      7  C   UNL     1       3.920   4.118  18.982  0.00  0.00    +0.000 A 
BRANCH   2   9
ATOM      8  N   UNL     1       2.394   7.280  19.483  0.00  0.00    +0.000 NA
ATOM      9  C   UNL     1       2.508   6.152  19.235  0.00  0.00    +0.000 C 
ENDBRANCH   2   9
ENDBRANCH   1   7
BRANCH   1  10
ATOM     10  O   UNL     1       6.277   4.267  18.574  0.00  0.00    +0.000 OA
BRANCH  10  11
ATOM     11  C   UNL     1       6.987   5.104  17.768  0.00  0.00    +0.000 C 
ATOM     12  O   UNL     1       7.705   6.016  18.164  0.00  0.00    +0.000 OA
BRANCH  11  13
ATOM     13  C   UNL     1       6.781   4.764  16.379  0.00  0.00    +0.000 A 
ATOM     14  C   UNL     1       5.900   3.873  15.790  0.00  0.00    +0.000 A 
ATOM     15  C   UNL     1       6.122   3.938  14.392  0.00  0.00    +0.000 A 
ATOM     16  C   UNL     1       7.121   4.866  14.208  0.00  0.00    +0.000 A 
ATOM     17 BR   UNL     1       7.832   5.367  12.559  0.00  0.00    +0.000 Br
ATOM     18  O   UNL     1       7.526   5.371  15.402  0.00  0.00    +0.000 OA
ENDBRANCH  11  13
ENDBRANCH  10  11
ENDBRANCH   1  10
TORSDOF 5
ENDMDL
MODEL 3
REMARK VINA RESULT:      -6.6      2.871      3.740
REMARK  Name = 
REMARK  5 active torsions:
REMARK  status: ('A' for Active; 'I' for Inactive)
REMARK    1  A    between atoms: C_2  and  C_3
REMARK    2  A    between atoms: C_8  and  C_9
REMARK    3  A    between atoms: C_9  and  O_10
REMARK    4  A    between atoms: O_10  and  C_11
REMARK    5  A    between atoms: C_11  and  C_13
REMARK                            x       y       z     vdW  Elec       q    Type
REMARK                         _______ _______ _______ _____ _____    ______ ____
ROOT
ATOM      1  C   UNL     1       1.361   2.842  18.337  0.00  0.00    +0.000 C 
ENDROOT
BRANCH   1   7
ATOM      2  C   UNL     1       1.857   4.491  20.238  0.00  0.00    +0.000 A 
ATOM      3  C   UNL     1       2.195   5.786  20.659  0.00  0.00    +0.000 A 
ATOM      4  C   UNL     1       2.361   6.813  19.731  0.00  0.00    +0.000 A 
ATOM      5  C   UNL     1       2.181   6.557  18.375  0.00  0.00    +0.000 A 
ATOM      6  C   UNL     1       1.849   5.272  17.944  0.00  0.00    +0.000 A 
ATOM      7  C   UNL     1       1.700   4.217  18.865  0.00  0.00    +0.000 A 
BRANCH   2   9
ATOM      8  N   UNL     1       1.563   2.639  22.035  0.00  0.00    +0.000 NA
ATOM      9  C   UNL     1       1.694   3.475  21.240  0.00  0.00    +0.000 C 
ENDBRANCH   2   9
ENDBRANCH   1   7
BRANCH   1  10
ATOM     10  O   UNL     1       2.363   2.440  17.400  0.00  0.00    +0.000 OA
BRANCH  10  11
ATOM     11  C   UNL     1       3.581   2.116  17.917  0.00  0.00    +0.000 C 
ATOM     12  O   UNL     1       3.838   1.068  18.499  0.00  0.00    +0.000 OA
BRANCH  11  13
ATOM     13  C   UNL     1       4.530   3.178  17.677  0.00  0.00    +0.000 A 
ATOM     14  C   UNL     1       4.836   3.869  16.517  0.00  0.00    +0.000 A 
ATOM     15  C   UNL     1       5.842   4.810  16.851  0.00  0.00    +0.000 A 
ATOM     16  C   UNL     1       6.090   4.640  18.194  0.00  0.00    +0.000 A 
ATOM     17 BR   UNL     1       7.332   5.613  19.188  0.00  0.00    +0.000 Br
ATOM     18  O   UNL     1       5.303   3.658  18.703  0.00  0.00    +0.000 OA
ENDBRANCH  11  13
ENDBRANCH  10  11
ENDBRANCH   1  10
TORSDOF 5
ENDMDL
MODEL 4
REMARK VINA RESULT:      -6.5      2.018      2.685
REMARK  Name = 
REMARK  5 active torsions:
REMARK  status: ('A' for Active; 'I' for Inactive)
REMARK    1  A    between atoms: C_2  and  C_3
REMARK    2  A    between atoms: C_8  and  C_9
REMARK    3  A    between atoms: C_9  and  O_10
REMARK    4  A    between atoms: O_10  and  C_11
REMARK    5  A    between atoms: C_11  and  C_13
REMARK                            x       y       z     vdW  Elec       q    Type
REMARK                         _______ _______ _______ _____ _____    ______ ____
ROOT
ATOM      1  C   UNL     1       5.024   3.862  16.672  0.00  0.00    +0.000 C 
ENDROOT
BRANCH   1   7
ATOM      2  C   UNL     1       4.279   4.728  18.968  0.00  0.00    +0.000 A 
ATOM      3  C   UNL     1       3.251   4.995  19.886  0.00  0.00    +0.000 A 
ATOM      4  C   UNL     1       1.928   4.685  19.579  0.00  0.00    +0.000 A 
ATOM      5  C   UNL     1       1.621   4.094  18.357  0.00  0.00    +0.000 A 
ATOM      6  C   UNL     1       2.634   3.827  17.435  0.00  0.00    +0.000 A 
ATOM      7  C   UNL     1       3.973   4.156  17.718  0.00  0.00    +0.000 A 
BRANCH   2   9
ATOM      8  N   UNL     1       6.706   5.358  19.645  0.00  0.00    +0.000 NA
ATOM      9  C   UNL     1       5.625   5.065  19.342  0.00  0.00    +0.000 C 
ENDBRANCH   2   9
ENDBRANCH   1   7
BRANCH   1  10
ATOM     10  O   UNL     1       5.283   5.052  15.922  0.00  0.00    +0.000 OA
BRANCH  10  11
ATOM     11  C   UNL     1       6.566   5.236  15.503  0.00  0.00    +0.000 C 
ATOM     12  O   UNL     1       7.455   5.749  16.173  0.00  0.00    +0.000 OA
BRANCH  11  13
ATOM     13  C   UNL     1       6.735   4.735  14.158  0.00  0.00    +0.000 A 
ATOM     14  C   UNL     1       7.583   5.144  13.144  0.00  0.00    +0.000 A 
ATOM     15  C   UNL     1       7.334   4.301  12.032  0.00  0.00    +0.000 A 
ATOM     16  C   UNL     1       6.350   3.426  12.433  0.00  0.00    +0.000 A 
ATOM     17 BR   UNL     1       5.615   2.079  11.374  0.00  0.00    +0.000 Br
ATOM     18  O   UNL     1       5.982   3.679  13.715  0.00  0.00    +0.000 OA
ENDBRANCH  11  13
ENDBRANCH  10  11
ENDBRANCH   1  10
TORSDOF 5
ENDMDL
MODEL 5
REMARK VINA RESULT:      -6.5      1.508      1.763
REMARK  Name = 
REMARK  5 active torsions:
REMARK  status: ('A' for Active; 'I' for Inactive)
REMARK    1  A    between atoms: C_2  and  C_3
REMARK    2  A    between atoms: C_8  and  C_9
REMARK    3  A    between atoms: C_9  and  O_10
REMARK    4  A    between atoms: O_10  and  C_11
REMARK    5  A    between atoms: C_11  and  C_13
REMARK                            x       y       z     vdW  Elec       q    Type
REMARK                         _______ _______ _______ _____ _____    ______ ____
ROOT
ATOM      1  C   UNL     1       5.181   4.328  18.123  0.00  0.00    +0.000 C 
ENDROOT
BRANCH   1   7
ATOM      2  C   UNL     1       3.406   2.855  19.246  0.00  0.00    +0.000 A 
ATOM      3  C   UNL     1       2.059   2.502  19.417  0.00  0.00    +0.000 A 
ATOM      4  C   UNL     1       1.059   3.143  18.687  0.00  0.00    +0.000 A 
ATOM      5  C   UNL     1       1.398   4.134  17.771  0.00  0.00    +0.000 A 
ATOM      6  C   UNL     1       2.734   4.496  17.595  0.00  0.00    +0.000 A 
ATOM      7  C   UNL     1       3.755   3.878  18.342  0.00  0.00    +0.000 A 
BRANCH   2   9
ATOM      8  N   UNL     1       5.174   1.579  20.656  0.00  0.00    +0.000 NA
ATOM      9  C   UNL     1       4.392   2.157  20.023  0.00  0.00    +0.000 C 
ENDBRANCH   2   9
ENDBRANCH   1   7
BRANCH   1  10
ATOM     10  O   UNL     1       5.642   3.829  16.865  0.00  0.00    +0.000 OA
BRANCH  10  11
ATOM     11  C   UNL     1       6.745   4.431  16.341  0.00  0.00    +0.000 C 
ATOM     12  O   UNL     1       7.643   4.944  17.001  0.00  0.00    +0.000 OA
BRANCH  11  13
ATOM     13  C   UNL     1       6.713   4.377  14.898  0.00  0.00    +0.000 A 
ATOM     14  C   UNL     1       7.547   4.954  13.955  0.00  0.00    +0.000 A 
ATOM     15  C   UNL     1       7.057   4.572  12.682  0.00  0.00    +0.000 A 
ATOM     16  C   UNL     1       5.955   3.784  12.921  0.00  0.00    +0.000 A 
ATOM     17 BR   UNL     1       4.894   2.993  11.606  0.00  0.00    +0.000 Br
ATOM     18  O   UNL     1       5.738   3.659  14.256  0.00  0.00    +0.000 OA
ENDBRANCH  11  13
ENDBRANCH  10  11
ENDBRANCH   1  10
TORSDOF 5
ENDMDL
MODEL 6
REMARK VINA RESULT:      -6.4      2.574      3.473
REMARK  Name = 
REMARK  5 active torsions:
REMARK  status: ('A' for Active; 'I' for Inactive)
REMARK    1  A    between atoms: C_2  and  C_3
REMARK    2  A    between atoms: C_8  and  C_9
REMARK    3  A    between atoms: C_9  and  O_10
REMARK    4  A    between atoms: O_10  and  C_11
REMARK    5  A    between atoms: C_11  and  C_13
REMARK                            x       y       z     vdW  Elec       q    Type
REMARK                         _______ _______ _______ _____ _____    ______ ____
ROOT
ATOM      1  C   UNL     1       1.278   2.895  18.291  0.00  0.00    +0.000 C 
ENDROOT
BRANCH   1   7
ATOM      2  C   UNL     1       1.803   4.505  20.217  0.00  0.00    +0.000 A 
ATOM      3  C   UNL     1       2.167   5.787  20.658  0.00  0.00    +0.000 A 
ATOM      4  C   UNL     1       2.358   6.823  19.746  0.00  0.00    +0.000 A 
ATOM      5  C   UNL     1       2.176   6.590  18.386  0.00  0.00    +0.000 A 
ATOM      6  C   UNL     1       1.818   5.320  17.936  0.00  0.00    +0.000 A 
ATOM      7  C   UNL     1       1.645   4.255  18.840  0.00  0.00    +0.000 A 
BRANCH   2   9
ATOM      8  N   UNL     1       1.474   2.635  21.989  0.00  0.00    +0.000 NA
ATOM      9  C   UNL     1       1.616   3.478  21.204  0.00  0.00    +0.000 C 
ENDBRANCH   2   9
ENDBRANCH   1   7
BRANCH   1  10
ATOM     10  O   UNL     1       2.305   2.458  17.398  0.00  0.00    +0.000 OA
BRANCH  10  11
ATOM     11  C   UNL     1       3.490   2.099  17.966  0.00  0.00    +0.000 C 
ATOM     12  O   UNL     1       3.678   1.065  18.597  0.00  0.00    +0.000 OA
BRANCH  11  13
ATOM     13  C   UNL     1       4.496   3.104  17.714  0.00  0.00    +0.000 A 
ATOM     14  C   UNL     1       5.155   3.957  18.584  0.00  0.00    +0.000 A 
ATOM     15  C   UNL     1       6.044   4.735  17.801  0.00  0.00    +0.000 A 
ATOM     16  C   UNL     1       5.879   4.312  16.503  0.00  0.00    +0.000 A 
ATOM     17 BR   UNL     1       6.796   4.988  15.027  0.00  0.00    +0.000 Br
ATOM     18  O   UNL     1       4.946   3.326  16.439  0.00  0.00    +0.000 OA
ENDBRANCH  11  13
ENDBRANCH  10  11
ENDBRANCH   1  10
TORSDOF 5
ENDMDL
MODEL 7
REMARK VINA RESULT:      -6.4      1.506      1.682
REMARK  Name = 
REMARK  5 active torsions:
REMARK  status: ('A' for Active; 'I' for Inactive)
REMARK    1  A    between atoms: C_2  and  C_3
REMARK    2  A    between atoms: C_8  and  C_9
REMARK    3  A    between atoms: C_9  and  O_10
REMARK    4  A    between atoms: O_10  and  C_11
REMARK    5  A    between atoms: C_11  and  C_13
REMARK                            x       y       z     vdW  Elec       q    Type
REMARK                         _______ _______ _______ _____ _____    ______ ____
ROOT
ATOM      1  C   UNL     1       4.550   3.342  18.341  0.00  0.00    +0.000 C 
ENDROOT
BRANCH   1   7
ATOM      2  C   UNL     1       3.451   2.627  20.546  0.00  0.00    +0.000 A 
ATOM      3  C   UNL     1       2.364   2.688  21.432  0.00  0.00    +0.000 A 
ATOM      4  C   UNL     1       1.231   3.435  21.115  0.00  0.00    +0.000 A 
ATOM      5  C   UNL     1       1.170   4.120  19.905  0.00  0.00    +0.000 A 
ATOM      6  C   UNL     1       2.246   4.070  19.018  0.00  0.00    +0.000 A 
ATOM      7  C   UNL     1       3.408   3.341  19.332  0.00  0.00    +0.000 A 
BRANCH   2   9
ATOM      8  N   UNL     1       5.499   1.194  21.250  0.00  0.00    +0.000 NA
ATOM      9  C   UNL     1       4.589   1.837  20.925  0.00  0.00    +0.000 C 
ENDBRANCH   2   9
ENDBRANCH   1   7
BRANCH   1  10
ATOM     10  O   UNL     1       5.399   4.461  18.607  0.00  0.00    +0.000 OA
BRANCH  10  11
ATOM     11  C   UNL     1       6.526   4.560  17.848  0.00  0.00    +0.000 C 
ATOM     12  O   UNL     1       7.670   4.452  18.275  0.00  0.00    +0.000 OA
BRANCH  11  13
ATOM     13  C   UNL     1       6.184   4.806  16.466  0.00  0.00    +0.000 A 
ATOM     14  C   UNL     1       5.569   5.893  15.869  0.00  0.00    +0.000 A 
ATOM     15  C   UNL     1       5.482   5.607  14.483  0.00  0.00    +0.000 A 
ATOM     16  C   UNL     1       6.050   4.366  14.316  0.00  0.00    +0.000 A 
ATOM     17 BR   UNL     1       6.214   3.471  12.688  0.00  0.00    +0.000 Br
ATOM     18  O   UNL     1       6.477   3.872  15.507  0.00  0.00    +0.000 OA
ENDBRANCH  11  13
ENDBRANCH  10  11
ENDBRANCH   1  10
TORSDOF 5
ENDMDL
MODEL 8
REMARK VINA RESULT:      -6.3      2.436      3.305
REMARK  Name = 
REMARK  5 active torsions:
REMARK  status: ('A' for Active; 'I' for Inactive)
REMARK    1  A    between atoms: C_2  and  C_3
REMARK    2  A    between atoms: C_8  and  C_9
REMARK    3  A    between atoms: C_9  and  O_10
REMARK    4  A    between atoms: O_10  and  C_11
REMARK    5  A    between atoms: C_11  and  C_13
REMARK                            x       y       z     vdW  Elec       q    Type
REMARK                         _______ _______ _______ _____ _____    ______ ____
ROOT
ATOM      1  C   UNL     1       3.788   4.121  17.263  0.00  0.00    +0.000 C 
ENDROOT
BRANCH   1   7
ATOM      2  C   UNL     1       2.261   4.337  19.312  0.00  0.00    +0.000 A 
ATOM      3  C   UNL     1       1.654   5.141  20.289  0.00  0.00    +0.000 A 
ATOM      4  C   UNL     1       1.842   6.522  20.290  0.00  0.00    +0.000 A 
ATOM      5  C   UNL     1       2.630   7.113  19.307  0.00  0.00    +0.000 A 
ATOM      6  C   UNL     1       3.242   6.324  18.333  0.00  0.00    +0.000 A 
ATOM      7  C   UNL     1       3.083   4.926  18.331  0.00  0.00    +0.000 A 
BRANCH   2   9
ATOM      8  N   UNL     1       1.845   1.775  19.378  0.00  0.00    +0.000 NA
ATOM      9  C   UNL     1       2.026   2.921  19.359  0.00  0.00    +0.000 C 
ENDBRANCH   2   9
ENDBRANCH   1   7
BRANCH   1  10
ATOM     10  O   UNL     1       4.500   5.012  16.400  0.00  0.00    +0.000 OA
BRANCH  10  11
ATOM     11  C   UNL     1       5.824   4.749  16.216  0.00  0.00    +0.000 C 
ATOM     12  O   UNL     1       6.272   3.942  15.408  0.00  0.00    +0.000 OA
BRANCH  11  13
ATOM     13  C   UNL     1       6.628   5.557  17.103  0.00  0.00    +0.000 A 
ATOM     14  C   UNL     1       7.267   5.234  18.288  0.00  0.00    +0.000 A 
ATOM     15  C   UNL     1       7.917   6.409  18.740  0.00  0.00    +0.000 A 
ATOM     16  C   UNL     1       7.639   7.380  17.805  0.00  0.00    +0.000 A 
ATOM     17 BR   UNL     1       8.236   9.145  17.880  0.00  0.00    +0.000 Br
ATOM     18  O   UNL     1       6.862   6.876  16.812  0.00  0.00    +0.000 OA
ENDBRANCH  11  13
ENDBRANCH  10  11
ENDBRANCH   1  10
TORSDOF 5
ENDMDL
MODEL 9
REMARK VINA RESULT:      -6.3      2.249      2.913
REMARK  Name = 
REMARK  5 active torsions:
REMARK  status: ('A' for Active; 'I' for Inactive)
REMARK    1  A    between atoms: C_2  and  C_3
REMARK    2  A    between atoms: C_8  and  C_9
REMARK    3  A    between atoms: C_9  and  O_10
REMARK    4  A    between atoms: O_10  and  C_11
REMARK    5  A    between atoms: C_11  and  C_13
REMARK                            x       y       z     vdW  Elec       q    Type
REMARK                         _______ _______ _______ _____ _____    ______ ____
ROOT
ATOM      1  C   UNL     1       4.222   3.138  18.476  0.00  0.00    +0.000 C 
ENDROOT
BRANCH   1   7
ATOM      2  C   UNL     1       1.813   3.448  19.300  0.00  0.00    +0.000 A 
ATOM      3  C   UNL     1       0.859   3.330  20.322  0.00  0.00    +0.000 A 
ATOM      4  C   UNL     1       1.221   2.846  21.578  0.00  0.00    +0.000 A 
ATOM      5  C   UNL     1       2.543   2.487  21.827  0.00  0.00    +0.000 A 
ATOM      6  C   UNL     1       3.499   2.597  20.817  0.00  0.00    +0.000 A 
ATOM      7  C   UNL     1       3.147   3.060  19.535  0.00  0.00    +0.000 A 
BRANCH   2   9
ATOM      8  N   UNL     1       1.052   4.376  16.997  0.00  0.00    +0.000 NA
ATOM      9  C   UNL     1       1.381   3.958  18.028  0.00  0.00    +0.000 C 
ENDBRANCH   2   9
ENDBRANCH   1   7
BRANCH   1  10
ATOM     10  O   UNL     1       5.458   3.509  19.090  0.00  0.00    +0.000 OA
BRANCH  10  11
ATOM     11  C   UNL     1       5.906   4.770  18.836  0.00  0.00    +0.000 C 
ATOM     12  O   UNL     1       6.387   5.524  19.675  0.00  0.00    +0.000 OA
BRANCH  11  13
ATOM     13  C   UNL     1       5.741   5.093  17.438  0.00  0.00    +0.000 A 
ATOM     14  C   UNL     1       5.167   6.196  16.829  0.00  0.00    +0.000 A 
ATOM     15  C   UNL     1       5.277   5.999  15.430  0.00  0.00    +0.000 A 
ATOM     16  C   UNL     1       5.913   4.790  15.266  0.00  0.00    +0.000 A 
ATOM     17 BR   UNL     1       6.329   4.008  13.625  0.00  0.00    +0.000 Br
ATOM     18  O   UNL     1       6.198   4.235  16.473  0.00  0.00    +0.000 OA
ENDBRANCH  11  13
ENDBRANCH  10  11
ENDBRANCH   1  10
TORSDOF 5
ENDMDL
