MODEL 1
REMARK VINA RESULT:      -6.7      0.000      0.000
REMARK  Name = 
REMARK  5 active torsions:
REMARK  status: ('A' for Active; 'I' for Inactive)
REMARK    1  A    between atoms: C_2  and  O_3
REMARK    2  A    between atoms: C_2  and  C_13
REMARK    3  A    between atoms: O_3  and  C_4
REMARK    4  A    between atoms: C_4  and  C_5
REMARK    5  A    between atoms: C_5  and  C_7
REMARK                            x       y       z     vdW  Elec       q    Type
REMARK                         _______ _______ _______ _____ _____    ______ ____
ROOT
ATOM      1  O   UNL     1       6.173   4.389  16.694  0.00  0.00    +0.000 OA
ENDROOT
BRANCH   1   3
ATOM      2  O   UNL     1       5.204   6.319  15.928  0.00  0.00    +0.000 OA
ATOM      3  C   UNL     1       5.830   5.284  15.736  0.00  0.00    +0.000 C 
BRANCH   3   4
ATOM      4  C   UNL     1       6.352   4.873  14.394  0.00  0.00    +0.000 A 
ATOM      5  C   UNL     1       5.667   3.887  13.690  0.00  0.00    +0.000 A 
ATOM      6  C   UNL     1       6.150   3.500  12.443  0.00  0.00    +0.000 A 
ATOM      7  C   UNL     1       7.295   4.107  11.939  0.00  0.00    +0.000 A 
ATOM      8  C   UNL     1       7.910   5.087  12.703  0.00  0.00    +0.000 A 
ATOM      9  N   UNL     1       7.467   5.489  13.915  0.00  0.00    +0.000 NA
ENDBRANCH   3   4
ENDBRANCH   1   3
BRANCH   1  10
ATOM     10  C   UNL     1       7.034   4.905  17.709  0.00  0.00    +0.000 C 
BRANCH  10  11
ATOM     11  C   UNL     1       6.383   5.021  19.097  0.00  0.00    +0.000 C 
ATOM     12  O   UNL     1       7.049   5.355  20.080  0.00  0.00    +0.000 OA
BRANCH  11  13
ATOM     13  C   UNL     1       4.945   4.762  19.209  0.00  0.00    +0.000 A 
ATOM     14  C   UNL     1       3.925   5.700  19.130  0.00  0.00    +0.000 A 
ATOM     15  C   UNL     1       2.628   5.118  19.261  0.00  0.00    +0.000 A 
ATOM     16  C   UNL     1       2.716   3.764  19.441  0.00  0.00    +0.000 A 
ATOM     17 CL   UNL     1       1.411   2.666  19.640  0.00  0.00    +0.000 Cl
ATOM     18  S   UNL     1       4.305   3.188  19.453  0.00  0.00    +0.000 S 
ENDBRANCH  11  13
ENDBRANCH  10  11
ENDBRANCH   1  10
TORSDOF 5
ENDMDL
MODEL 2
REMARK VINA RESULT:      -6.7      1.866      2.185
REMARK  Name = 
REMARK  5 active torsions:
REMARK  status: ('A' for Active; 'I' for Inactive)
REMARK    1  A    between atoms: C_2  and  O_3
REMARK    2  A    between atoms: C_2  and  C_13
REMARK    3  A    between atoms: O_3  and  C_4
REMARK    4  A    between atoms: C_4  and  C_5
REMARK    5  A    between atoms: C_5  and  C_7
REMARK                            x       y       z     vdW  Elec       q    Type
REMARK                         _______ _______ _______ _____ _____    ______ ____
ROOT
ATOM      1  O   UNL     1       7.103   4.429  17.008  0.00  0.00    +0.000 OA
ENDROOT
BRANCH   1   3
ATOM      2  O   UNL     1       6.814   6.628  16.431  0.00  0.00    +0.000 OA
ATOM      3  C   UNL     1       6.923   5.447  16.130  0.00  0.00    +0.000 C 
BRANCH   3   4
ATOM      4  C   UNL     1       6.914   4.951  14.717  0.00  0.00    +0.000 A 
ATOM      5  C   UNL     1       6.025   3.935  14.377  0.00  0.00    +0.000 A 
ATOM      6  C   UNL     1       6.014   3.470  13.065  0.00  0.00    +0.000 A 
ATOM      7  C   UNL     1       6.885   4.032  12.137  0.00  0.00    +0.000 A 
ATOM      8  C   UNL     1       7.731   5.046  12.559  0.00  0.00    +0.000 A 
ATOM      9  N   UNL     1       7.765   5.524  13.823  0.00  0.00    +0.000 NA
ENDBRANCH   3   4
ENDBRANCH   1   3
BRANCH   1  10
ATOM     10  C   UNL     1       6.285   4.502  18.176  0.00  0.00    +0.000 C 
BRANCH  10  11
ATOM     11  C   UNL     1       4.776   4.378  17.905  0.00  0.00    +0.000 C 
ATOM     12  O   UNL     1       4.315   3.377  17.352  0.00  0.00    +0.000 OA
BRANCH  11  13
ATOM     13  C   UNL     1       3.903   5.464  18.358  0.00  0.00    +0.000 A 
ATOM     14  C   UNL     1       3.556   6.601  17.643  0.00  0.00    +0.000 A 
ATOM     15  C   UNL     1       2.669   7.458  18.363  0.00  0.00    +0.000 A 
ATOM     16  C   UNL     1       2.386   6.940  19.598  0.00  0.00    +0.000 A 
ATOM     17 CL   UNL     1       1.366   7.631  20.794  0.00  0.00    +0.000 Cl
ATOM     18  S   UNL     1       3.151   5.464  19.900  0.00  0.00    +0.000 S 
ENDBRANCH  11  13
ENDBRANCH  10  11
ENDBRANCH   1  10
TORSDOF 5
ENDMDL
MODEL 3
REMARK VINA RESULT:      -6.6      1.445      1.789
REMARK  Name = 
REMARK  5 active torsions:
REMARK  status: ('A' for Active; 'I' for Inactive)
REMARK    1  A    between atoms: C_2  and  O_3
REMARK    2  A    between atoms: C_2  and  C_13
REMARK    3  A    between atoms: O_3  and  C_4
REMARK    4  A    between atoms: C_4  and  C_5
REMARK    5  A    between atoms: C_5  and  C_7
REMARK                            x       y       z     vdW  Elec       q    Type
REMARK                         _______ _______ _______ _____ _____    ______ ____
ROOT
ATOM      1  O   UNL     1       6.864   4.650  17.185  0.00  0.00    +0.000 OA
ENDROOT
BRANCH   1   3
ATOM      2  O   UNL     1       7.537   6.720  16.470  0.00  0.00    +0.000 OA
ATOM      3  C   UNL     1       7.160   5.578  16.242  0.00  0.00    +0.000 C 
BRANCH   3   4
ATOM      4  C   UNL     1       7.008   5.020  14.861  0.00  0.00    +0.000 A 
ATOM      5  C   UNL     1       6.001   4.087  14.631  0.00  0.00    +0.000 A 
ATOM      6  C   UNL     1       5.857   3.564  13.349  0.00  0.00    +0.000 A 
ATOM      7  C   UNL     1       6.717   3.986  12.341  0.00  0.00    +0.000 A 
ATOM      8  C   UNL     1       7.687   4.926  12.656  0.00  0.00    +0.000 A 
ATOM      9  N   UNL     1       7.852   5.457  13.888  0.00  0.00    +0.000 NA
ENDBRANCH   3   4
ENDBRANCH   1   3
BRANCH   1  10
ATOM     10  C   UNL     1       6.456   5.190  18.442  0.00  0.00    +0.000 C 
BRANCH  10  11
ATOM     11  C   UNL     1       4.938   5.385  18.588  0.00  0.00    +0.000 C 
ATOM     12  O   UNL     1       4.372   6.346  18.061  0.00  0.00    +0.000 OA
BRANCH  11  13
ATOM     13  C   UNL     1       4.181   4.377  19.336  0.00  0.00    +0.000 A 
ATOM     14  C   UNL     1       4.507   3.037  19.483  0.00  0.00    +0.000 A 
ATOM     15  C   UNL     1       3.569   2.325  20.291  0.00  0.00    +0.000 A 
ATOM     16  C   UNL     1       2.564   3.153  20.716  0.00  0.00    +0.000 A 
ATOM     17 CL   UNL     1       1.229   2.724  21.706  0.00  0.00    +0.000 Cl
ATOM     18  S   UNL     1       2.729   4.744  20.173  0.00  0.00    +0.000 S 
ENDBRANCH  11  13
ENDBRANCH  10  11
ENDBRANCH   1  10
TORSDOF 5
ENDMDL
MODEL 4
REMARK VINA RESULT:      -6.6      2.331      3.797
REMARK  Name = 
REMARK  5 active torsions:
REMARK  status: ('A' for Active; 'I' for Inactive)
REMARK    1  A    between atoms: C_2  and  O_3
REMARK    2  A    between atoms: C_2  and  C_13
REMARK    3  A    between atoms: O_3  and  C_4
REMARK    4  A    between atoms: C_4  and  C_5
REMARK    5  A    between atoms: C_5  and  C_7
REMARK                            x       y       z     vdW  Elec       q    Type
REMARK                         _______ _______ _______ _____ _____    ______ ____
ROOT
ATOM      1  O   UNL     1       5.112   5.075  15.454  0.00  0.00    +0.000 OA
ENDROOT
BRANCH   1   3
ATOM      2  O   UNL     1       7.137   4.463  14.574  0.00  0.00    +0.000 OA
ATOM      3  C   UNL     1       6.465   4.995  15.448  0.00  0.00    +0.000 C 
BRANCH   3   4
ATOM      4  C   UNL     1       7.057   5.682  16.639  0.00  0.00    +0.000 A 
ATOM      5  C   UNL     1       7.487   4.902  17.709  0.00  0.00    +0.000 A 
ATOM      6  C   UNL     1       8.036   5.536  18.819  0.00  0.00    +0.000 A 
ATOM      7  C   UNL     1       8.140   6.923  18.828  0.00  0.00    +0.000 A 
ATOM      8  C   UNL     1       7.695   7.622  17.716  0.00  0.00    +0.000 A 
ATOM      9  N   UNL     1       7.161   7.039  16.621  0.00  0.00    +0.000 NA
ENDBRANCH   3   4
ENDBRANCH   1   3
BRANCH   1  10
ATOM     10  C   UNL     1       4.471   4.230  16.409  0.00  0.00    +0.000 C 
BRANCH  10  11
ATOM     11  C   UNL     1       3.623   4.977  17.451  0.00  0.00    +0.000 C 
ATOM     12  O   UNL     1       3.651   6.208  17.522  0.00  0.00    +0.000 OA
BRANCH  11  13
ATOM     13  C   UNL     1       2.753   4.187  18.327  0.00  0.00    +0.000 A 
ATOM     14  C   UNL     1       1.734   3.331  17.931  0.00  0.00    +0.000 A 
ATOM     15  C   UNL     1       1.086   2.697  19.033  0.00  0.00    +0.000 A 
ATOM     16  C   UNL     1       1.633   3.102  20.221  0.00  0.00    +0.000 A 
ATOM     17 CL   UNL     1       1.167   2.595  21.793  0.00  0.00    +0.000 Cl
ATOM     18  S   UNL     1       2.894   4.212  20.037  0.00  0.00    +0.000 S 
ENDBRANCH  11  13
ENDBRANCH  10  11
ENDBRANCH   1  10
TORSDOF 5
ENDMDL
MODEL 5
REMARK VINA RESULT:      -6.5      2.915      3.979
REMARK  Name = 
REMARK  5 active torsions:
REMARK  status: ('A' for Active; 'I' for Inactive)
REMARK    1  A    between atoms: C_2  and  O_3
REMARK    2  A    between atoms: C_2  and  C_13
REMARK    3  A    between atoms: O_3  and  C_4
REMARK    4  A    between atoms: C_4  and  C_5
REMARK    5  A    between atoms: C_5  and  C_7
REMARK                            x       y       z     vdW  Elec       q    Type
REMARK                         _______ _______ _______ _____ _____    ______ ____
ROOT
ATOM      1  O   UNL     1       4.549   4.221  16.650  0.00  0.00    +0.000 OA
ENDROOT
BRANCH   1   3
ATOM      2  O   UNL     1       6.357   3.532  15.422  0.00  0.00    +0.000 OA
ATOM      3  C   UNL     1       5.864   4.206  16.316  0.00  0.00    +0.000 C 
BRANCH   3   4
ATOM      4  C   UNL     1       6.651   5.160  17.161  0.00  0.00    +0.000 A 
ATOM      5  C   UNL     1       6.674   6.503  16.797  0.00  0.00    +0.000 A 
ATOM      6  C   UNL     1       7.405   7.394  17.578  0.00  0.00    +0.000 A 
ATOM      7  C   UNL     1       8.088   6.918  18.693  0.00  0.00    +0.000 A 
ATOM      8  C   UNL     1       8.004   5.566  18.987  0.00  0.00    +0.000 A 
ATOM      9  N   UNL     1       7.300   4.675  18.253  0.00  0.00    +0.000 NA
ENDBRANCH   3   4
ENDBRANCH   1   3
BRANCH   1  10
ATOM     10  C   UNL     1       4.107   3.071  17.370  0.00  0.00    +0.000 C 
BRANCH  10  11
ATOM     11  C   UNL     1       4.135   3.229  18.900  0.00  0.00    +0.000 C 
ATOM     12  O   UNL     1       4.964   2.623  19.581  0.00  0.00    +0.000 OA
BRANCH  11  13
ATOM     13  C   UNL     1       3.175   4.150  19.516  0.00  0.00    +0.000 A 
ATOM     14  C   UNL     1       2.027   3.805  20.216  0.00  0.00    +0.000 A 
ATOM     15  C   UNL     1       1.316   4.942  20.706  0.00  0.00    +0.000 A 
ATOM     16  C   UNL     1       1.948   6.103  20.351  0.00  0.00    +0.000 A 
ATOM     17 CL   UNL     1       1.449   7.702  20.729  0.00  0.00    +0.000 Cl
ATOM     18  S   UNL     1       3.360   5.855  19.457  0.00  0.00    +0.000 S 
ENDBRANCH  11  13
ENDBRANCH  10  11
ENDBRANCH   1  10
TORSDOF 5
ENDMDL
MODEL 6
REMARK VINA RESULT:      -6.5      1.552      2.286
REMARK  Name = 
REMARK  5 active torsions:
REMARK  status: ('A' for Active; 'I' for Inactive)
REMARK    1  A    between atoms: C_2  and  O_3
REMARK    2  A    between atoms: C_2  and  C_13
REMARK    3  A    between atoms: O_3  and  C_4
REMARK    4  A    between atoms: C_4  and  C_5
REMARK    5  A    between atoms: C_5  and  C_7
REMARK                            x       y       z     vdW  Elec       q    Type
REMARK                         _______ _______ _______ _____ _____    ______ ____
ROOT
ATOM      1  O   UNL     1       5.306   4.773  17.378  0.00  0.00    +0.000 OA
ENDROOT
BRANCH   1   3
ATOM      2  O   UNL     1       7.519   4.357  17.803  0.00  0.00    +0.000 OA
ATOM      3  C   UNL     1       6.595   4.549  17.023  0.00  0.00    +0.000 C 
BRANCH   3   4
ATOM      4  C   UNL     1       6.754   4.522  15.534  0.00  0.00    +0.000 A 
ATOM      5  C   UNL     1       5.980   3.628  14.801  0.00  0.00    +0.000 A 
ATOM      6  C   UNL     1       6.125   3.599  13.417  0.00  0.00    +0.000 A 
ATOM      7  C   UNL     1       7.034   4.459  12.810  0.00  0.00    +0.000 A 
ATOM      8  C   UNL     1       7.759   5.325  13.616  0.00  0.00    +0.000 A 
ATOM      9  N   UNL     1       7.640   5.382  14.961  0.00  0.00    +0.000 NA
ENDBRANCH   3   4
ENDBRANCH   1   3
BRANCH   1  10
ATOM     10  C   UNL     1       4.846   6.103  17.136  0.00  0.00    +0.000 C 
BRANCH  10  11
ATOM     11  C   UNL     1       3.539   6.465  17.860  0.00  0.00    +0.000 C 
ATOM     12  O   UNL     1       3.172   7.639  17.948  0.00  0.00    +0.000 OA
BRANCH  11  13
ATOM     13  C   UNL     1       2.726   5.374  18.404  0.00  0.00    +0.000 A 
ATOM     14  C   UNL     1       1.780   4.625  17.720  0.00  0.00    +0.000 A 
ATOM     15  C   UNL     1       1.174   3.621  18.536  0.00  0.00    +0.000 A 
ATOM     16  C   UNL     1       1.680   3.655  19.808  0.00  0.00    +0.000 A 
ATOM     17 CL   UNL     1       1.244   2.632  21.115  0.00  0.00    +0.000 Cl
ATOM     18  S   UNL     1       2.853   4.850  20.033  0.00  0.00    +0.000 S 
ENDBRANCH  11  13
ENDBRANCH  10  11
ENDBRANCH   1  10
TORSDOF 5
ENDMDL
MODEL 7
REMARK VINA RESULT:      -6.5      1.498      2.056
REMARK  Name = 
REMARK  5 active torsions:
REMARK  status: ('A' for Active; 'I' for Inactive)
REMARK    1  A    between atoms: C_2  and  O_3
REMARK    2  A    between atoms: C_2  and  C_13
REMARK    3  A    between atoms: O_3  and  C_4
REMARK    4  A    between atoms: C_4  and  C_5
REMARK    5  A    between atoms: C_5  and  C_7
REMARK                            x       y       z     vdW  Elec       q    Type
REMARK                         _______ _______ _______ _____ _____    ______ ____
ROOT
ATOM      1  O   UNL     1       5.204   5.161  16.349  0.00  0.00    +0.000 OA
ENDROOT
BRANCH   1   3
ATOM      2  O   UNL     1       7.313   4.538  16.995  0.00  0.00    +0.000 OA
ATOM      3  C   UNL     1       6.487   4.783  16.125  0.00  0.00    +0.000 C 
BRANCH   3   4
ATOM      4  C   UNL     1       6.771   4.660  14.660  0.00  0.00    +0.000 A 
ATOM      5  C   UNL     1       6.041   3.736  13.919  0.00  0.00    +0.000 A 
ATOM      6  C   UNL     1       6.302   3.616  12.557  0.00  0.00    +0.000 A 
ATOM      7  C   UNL     1       7.280   4.419  11.980  0.00  0.00    +0.000 A 
ATOM      8  C   UNL     1       7.955   5.319  12.790  0.00  0.00    +0.000 A 
ATOM      9  N   UNL     1       7.724   5.464  14.114  0.00  0.00    +0.000 NA
ENDBRANCH   3   4
ENDBRANCH   1   3
BRANCH   1  10
ATOM     10  C   UNL     1       5.045   6.530  16.722  0.00  0.00    +0.000 C 
BRANCH  10  11
ATOM     11  C   UNL     1       3.829   6.806  17.622  0.00  0.00    +0.000 C 
ATOM     12  O   UNL     1       3.312   7.925  17.658  0.00  0.00    +0.000 OA
BRANCH  11  13
ATOM     13  C   UNL     1       3.280   5.693  18.402  0.00  0.00    +0.000 A 
ATOM     14  C   UNL     1       3.728   5.246  19.637  0.00  0.00    +0.000 A 
ATOM     15  C   UNL     1       2.964   4.148  20.138  0.00  0.00    +0.000 A 
ATOM     16  C   UNL     1       1.973   3.802  19.259  0.00  0.00    +0.000 A 
ATOM     17 CL   UNL     1       0.819   2.546  19.454  0.00  0.00    +0.000 Cl
ATOM     18  S   UNL     1       1.943   4.760  17.867  0.00  0.00    +0.000 S 
ENDBRANCH  11  13
ENDBRANCH  10  11
ENDBRANCH   1  10
TORSDOF 5
ENDMDL
MODEL 8
REMARK VINA RESULT:      -6.5      1.508      1.960
REMARK  Name = 
REMARK  5 active torsions:
REMARK  status: ('A' for Active; 'I' for Inactive)
REMARK    1  A    between atoms: C_2  and  O_3
REMARK    2  A    between atoms: C_2  and  C_13
REMARK    3  A    between atoms: O_3  and  C_4
REMARK    4  A    between atoms: C_4  and  C_5
REMARK    5  A    between atoms: C_5  and  C_7
REMARK                            x       y       z     vdW  Elec       q    Type
REMARK                         _______ _______ _______ _____ _____    ______ ____
ROOT
ATOM      1  O   UNL     1       5.362   5.624  16.099  0.00  0.00    +0.000 OA
ENDROOT
BRANCH   1   3
ATOM      2  O   UNL     1       7.124   4.339  16.806  0.00  0.00    +0.000 OA
ATOM      3  C   UNL     1       6.468   4.860  15.914  0.00  0.00    +0.000 C 
BRANCH   3   4
ATOM      4  C   UNL     1       6.776   4.692  14.458  0.00  0.00    +0.000 A 
ATOM      5  C   UNL     1       6.083   3.720  13.742  0.00  0.00    +0.000 A 
ATOM      6  C   UNL     1       6.367   3.559  12.389  0.00  0.00    +0.000 A 
ATOM      7  C   UNL     1       7.328   4.370  11.795  0.00  0.00    +0.000 A 
ATOM      8  C   UNL     1       7.965   5.319  12.580  0.00  0.00    +0.000 A 
ATOM      9  N   UNL     1       7.711   5.504  13.894  0.00  0.00    +0.000 NA
ENDBRANCH   3   4
ENDBRANCH   1   3
BRANCH   1  10
ATOM     10  C   UNL     1       4.366   5.033  16.933  0.00  0.00    +0.000 C 
BRANCH  10  11
ATOM     11  C   UNL     1       3.736   5.997  17.952  0.00  0.00    +0.000 C 
ATOM     12  O   UNL     1       3.824   7.218  17.803  0.00  0.00    +0.000 OA
BRANCH  11  13
ATOM     13  C   UNL     1       2.996   5.423  19.079  0.00  0.00    +0.000 A 
ATOM     14  C   UNL     1       2.122   6.093  19.924  0.00  0.00    +0.000 A 
ATOM     15  C   UNL     1       1.549   5.240  20.916  0.00  0.00    +0.000 A 
ATOM     16  C   UNL     1       2.018   3.960  20.788  0.00  0.00    +0.000 A 
ATOM     17 CL   UNL     1       1.597   2.609  21.761  0.00  0.00    +0.000 Cl
ATOM     18  S   UNL     1       3.113   3.768  19.516  0.00  0.00    +0.000 S 
ENDBRANCH  11  13
ENDBRANCH  10  11
ENDBRANCH   1  10
TORSDOF 5
ENDMDL
MODEL 9
REMARK VINA RESULT:      -6.5      3.247      6.356
REMARK  Name = 
REMARK  5 active torsions:
REMARK  status: ('A' for Active; 'I' for Inactive)
REMARK    1  A    between atoms: C_2  and  O_3
REMARK    2  A    between atoms: C_2  and  C_13
REMARK    3  A    between atoms: O_3  and  C_4
REMARK    4  A    between atoms: C_4  and  C_5
REMARK    5  A    between atoms: C_5  and  C_7
REMARK                            x       y       z     vdW  Elec       q    Type
REMARK                         _______ _______ _______ _____ _____    ______ ____
ROOT
ATOM      1  O   UNL     1       5.393   2.931  19.485  0.00  0.00    +0.000 OA
ENDROOT
BRANCH   1   3
ATOM      2  O   UNL     1       4.979   1.630  21.325  0.00  0.00    +0.000 OA
ATOM      3  C   UNL     1       4.590   2.292  20.372  0.00  0.00    +0.000 C 
BRANCH   3   4
ATOM      4  C   UNL     1       3.144   2.530  20.068  0.00  0.00    +0.000 A 
ATOM      5  C   UNL     1       2.375   3.220  21.001  0.00  0.00    +0.000 A 
ATOM      6  C   UNL     1       1.029   3.442  20.723  0.00  0.00    +0.000 A 
ATOM      7  C   UNL     1       0.495   2.971  19.528  0.00  0.00    +0.000 A 
ATOM      8  C   UNL     1       1.334   2.300  18.652  0.00  0.00    +0.000 A 
ATOM      9  N   UNL     1       2.645   2.071  18.888  0.00  0.00    +0.000 NA
ENDBRANCH   3   4
ENDBRANCH   1   3
BRANCH   1  10
ATOM     10  C   UNL     1       5.092   4.314  19.301  0.00  0.00    +0.000 C 
BRANCH  10  11
ATOM     11  C   UNL     1       6.162   5.100  18.525  0.00  0.00    +0.000 C 
ATOM     12  O   UNL     1       6.943   5.852  19.113  0.00  0.00    +0.000 OA
BRANCH  11  13
ATOM     13  C   UNL     1       6.252   4.897  17.077  0.00  0.00    +0.000 A 
ATOM     14  C   UNL     1       7.332   5.206  16.262  0.00  0.00    +0.000 A 
ATOM     15  C   UNL     1       7.107   4.867  14.893  0.00  0.00    +0.000 A 
ATOM     16  C   UNL     1       5.862   4.323  14.724  0.00  0.00    +0.000 A 
ATOM     17 CL   UNL     1       5.173   3.771  13.251  0.00  0.00    +0.000 Cl
ATOM     18  S   UNL     1       4.975   4.211  16.158  0.00  0.00    +0.000 S 
ENDBRANCH  11  13
ENDBRANCH  10  11
ENDBRANCH   1  10
TORSDOF 5
ENDMDL
