MODEL 1
REMARK VINA RESULT:      -8.0      0.000      0.000
REMARK  Name = 
REMARK  5 active torsions:
REMARK  status: ('A' for Active; 'I' for Inactive)
REMARK    1  A    between atoms: C_1  and  O_2
REMARK    2  A    between atoms: O_2  and  C_3
REMARK    3  A    between atoms: C_8  and  C_9
REMARK    4  A    between atoms: N_11  and  C_12
REMARK    5  A    between atoms: C_12  and  C_13
REMARK                            x       y       z     vdW  Elec       q    Type
REMARK                         _______ _______ _______ _____ _____    ______ ____
ROOT
ATOM      1  C   UNL     1       2.502   3.489  19.520  0.00  0.00    +0.000 A 
ATOM      2  C   UNL     1       2.047   4.297  18.468  0.00  0.00    +0.000 A 
ATOM      3  C   UNL     1       2.917   5.190  17.829  0.00  0.00    +0.000 A 
ATOM      4  C   UNL     1       4.245   5.288  18.246  0.00  0.00    +0.000 A 
ATOM      5  C   UNL     1       5.210   6.187  17.633  0.00  0.00    +0.000 A 
ATOM      6  C   UNL     1       6.476   6.259  18.084  0.00  0.00    +0.000 A 
ATOM      7  C   UNL     1       6.918   5.427  19.223  0.00  0.00    +0.000 A 
ATOM      8  O   UNL     1       8.061   5.490  19.675  0.00  0.00    +0.000 OA
ATOM      9  O   UNL     1       5.996   4.546  19.767  0.00  0.00    +0.000 OA
ATOM     10  C   UNL     1       4.675   4.484  19.290  0.00  0.00    +0.000 A 
ATOM     11  C   UNL     1       3.830   3.584  19.924  0.00  0.00    +0.000 A 
ENDROOT
BRANCH   6  12
ATOM     12  C   UNL     1       7.392   7.196  17.358  0.00  0.00    +0.000 C 
ATOM     13  O   UNL     1       7.844   6.904  16.256  0.00  0.00    +0.000 OA
ATOM     14  N   UNL     1       7.698   8.377  17.987  0.00  0.00    +0.000 N 
ATOM     15  H   UNL     1       7.298   8.580  18.902  0.00  0.00    +0.000 HD
BRANCH  14  16
ATOM     16  C   UNL     1       8.592   9.349  17.398  0.00  0.00    +0.000 C 
BRANCH  16  17
ATOM     17  C   UNL     1       8.924  10.458  18.362  0.00  0.00    +0.000 A 
ATOM     18  C   UNL     1       9.270  10.178  19.692  0.00  0.00    +0.000 A 
ATOM     19  C   UNL     1       9.537  11.215  20.588  0.00  0.00    +0.000 A 
ATOM     20  C   UNL     1       9.462  12.542  20.166  0.00  0.00    +0.000 A 
ATOM     21  C   UNL     1       9.136  12.832  18.843  0.00  0.00    +0.000 A 
ATOM     22  C   UNL     1       8.867  11.796  17.946  0.00  0.00    +0.000 A 
ENDBRANCH  16  17
ENDBRANCH  14  16
ENDBRANCH   6  12
BRANCH   1  24
ATOM     23  C   UNL     1       1.424   2.767  21.493  0.00  0.00    +0.000 C 
ATOM     24  O   UNL     1       1.576   2.650  20.080  0.00  0.00    +0.000 OA
ENDBRANCH   1  24
TORSDOF 4
ENDMDL
MODEL 2
REMARK VINA RESULT:      -7.8      4.328      6.769
REMARK  Name = 
REMARK  5 active torsions:
REMARK  status: ('A' for Active; 'I' for Inactive)
REMARK    1  A    between atoms: C_1  and  O_2
REMARK    2  A    between atoms: O_2  and  C_3
REMARK    3  A    between atoms: C_8  and  C_9
REMARK    4  A    between atoms: N_11  and  C_12
REMARK    5  A    between atoms: C_12  and  C_13
REMARK                            x       y       z     vdW  Elec       q    Type
REMARK                         _______ _______ _______ _____ _____    ______ ____
ROOT
ATOM      1  C   UNL     1       2.371   4.128  20.358  0.00  0.00    +0.000 A 
ATOM      2  C   UNL     1       1.692   4.521  19.196  0.00  0.00    +0.000 A 
ATOM      3  C   UNL     1       2.398   4.804  18.019  0.00  0.00    +0.000 A 
ATOM      4  C   UNL     1       3.790   4.704  18.002  0.00  0.00    +0.000 A 
ATOM      5  C   UNL     1       4.595   4.976  16.821  0.00  0.00    +0.000 A 
ATOM      6  C   UNL     1       5.937   4.885  16.859  0.00  0.00    +0.000 A 
ATOM      7  C   UNL     1       6.630   4.509  18.110  0.00  0.00    +0.000 A 
ATOM      8  O   UNL     1       7.857   4.443  18.183  0.00  0.00    +0.000 OA
ATOM      9  O   UNL     1       5.844   4.212  19.212  0.00  0.00    +0.000 OA
ATOM     10  C   UNL     1       4.443   4.317  19.160  0.00  0.00    +0.000 A 
ATOM     11  C   UNL     1       3.758   4.020  20.331  0.00  0.00    +0.000 A 
ENDROOT
BRANCH   6  12
ATOM     12  C   UNL     1       6.662   5.157  15.577  0.00  0.00    +0.000 C 
ATOM     13  O   UNL     1       7.590   5.957  15.538  0.00  0.00    +0.000 OA
ATOM     14  N   UNL     1       6.234   4.475  14.465  0.00  0.00    +0.000 N 
ATOM     15  H   UNL     1       5.460   3.817  14.542  0.00  0.00    +0.000 HD
BRANCH  14  16
ATOM     16  C   UNL     1       6.839   4.673  13.166  0.00  0.00    +0.000 C 
BRANCH  16  17
ATOM     17  C   UNL     1       6.604   3.496  12.257  0.00  0.00    +0.000 A 
ATOM     18  C   UNL     1       5.304   3.052  11.973  0.00  0.00    +0.000 A 
ATOM     19  C   UNL     1       5.098   1.935  11.161  0.00  0.00    +0.000 A 
ATOM     20  C   UNL     1       6.186   1.251  10.622  0.00  0.00    +0.000 A 
ATOM     21  C   UNL     1       7.482   1.692  10.883  0.00  0.00    +0.000 A 
ATOM     22  C   UNL     1       7.689   2.807  11.697  0.00  0.00    +0.000 A 
ENDBRANCH  16  17
ENDBRANCH  14  16
ENDBRANCH   6  12
BRANCH   1  24
ATOM     23  C   UNL     1       1.494   2.503  21.828  0.00  0.00    +0.000 C 
ATOM     24  O   UNL     1       1.592   3.876  21.455  0.00  0.00    +0.000 OA
ENDBRANCH   1  24
TORSDOF 4
ENDMDL
MODEL 3
REMARK VINA RESULT:      -7.7      0.643      1.162
REMARK  Name = 
REMARK  5 active torsions:
REMARK  status: ('A' for Active; 'I' for Inactive)
REMARK    1  A    between atoms: C_1  and  O_2
REMARK    2  A    between atoms: O_2  and  C_3
REMARK    3  A    between atoms: C_8  and  C_9
REMARK    4  A    between atoms: N_11  and  C_12
REMARK    5  A    between atoms: C_12  and  C_13
REMARK                            x       y       z     vdW  Elec       q    Type
REMARK                         _______ _______ _______ _____ _____    ______ ____
ROOT
ATOM      1  C   UNL     1       2.415   3.670  19.440  0.00  0.00    +0.000 A 
ATOM      2  C   UNL     1       1.993   4.496  18.388  0.00  0.00    +0.000 A 
ATOM      3  C   UNL     1       2.891   5.374  17.768  0.00  0.00    +0.000 A 
ATOM      4  C   UNL     1       4.215   5.438  18.204  0.00  0.00    +0.000 A 
ATOM      5  C   UNL     1       5.209   6.320  17.611  0.00  0.00    +0.000 A 
ATOM      6  C   UNL     1       6.470   6.360  18.080  0.00  0.00    +0.000 A 
ATOM      7  C   UNL     1       6.877   5.509  19.218  0.00  0.00    +0.000 A 
ATOM      8  O   UNL     1       8.015   5.542  19.685  0.00  0.00    +0.000 OA
ATOM      9  O   UNL     1       5.928   4.644  19.741  0.00  0.00    +0.000 OA
ATOM     10  C   UNL     1       4.613   4.617  19.246  0.00  0.00    +0.000 A 
ATOM     11  C   UNL     1       3.739   3.730  19.862  0.00  0.00    +0.000 A 
ENDROOT
BRANCH   6  12
ATOM     12  C   UNL     1       7.417   7.281  17.374  0.00  0.00    +0.000 C 
ATOM     13  O   UNL     1       7.941   6.953  16.316  0.00  0.00    +0.000 OA
ATOM     14  N   UNL     1       7.666   8.491  17.971  0.00  0.00    +0.000 N 
ATOM     15  H   UNL     1       7.207   8.725  18.850  0.00  0.00    +0.000 HD
BRANCH  14  16
ATOM     16  C   UNL     1       8.581   9.454  17.399  0.00  0.00    +0.000 C 
BRANCH  16  17
ATOM     17  C   UNL     1       9.102  10.414  18.436  0.00  0.00    +0.000 A 
ATOM     18  C   UNL     1       9.739  11.606  18.061  0.00  0.00    +0.000 A 
ATOM     19  C   UNL     1      10.254  12.470  19.029  0.00  0.00    +0.000 A 
ATOM     20  C   UNL     1      10.137  12.154  20.382  0.00  0.00    +0.000 A 
ATOM     21  C   UNL     1       9.492  10.981  20.769  0.00  0.00    +0.000 A 
ATOM     22  C   UNL     1       8.979  10.115  19.800  0.00  0.00    +0.000 A 
ENDBRANCH  16  17
ENDBRANCH  14  16
ENDBRANCH   6  12
BRANCH   1  24
ATOM     23  C   UNL     1       0.625   2.183  19.034  0.00  0.00    +0.000 C 
ATOM     24  O   UNL     1       1.462   2.847  19.979  0.00  0.00    +0.000 OA
ENDBRANCH   1  24
TORSDOF 4
ENDMDL
MODEL 4
REMARK VINA RESULT:      -7.6      4.883      7.453
REMARK  Name = 
REMARK  5 active torsions:
REMARK  status: ('A' for Active; 'I' for Inactive)
REMARK    1  A    between atoms: C_1  and  O_2
REMARK    2  A    between atoms: O_2  and  C_3
REMARK    3  A    between atoms: C_8  and  C_9
REMARK    4  A    between atoms: N_11  and  C_12
REMARK    5  A    between atoms: C_12  and  C_13
REMARK                            x       y       z     vdW  Elec       q    Type
REMARK                         _______ _______ _______ _____ _____    ______ ____
ROOT
ATOM      1  C   UNL     1       5.412   4.422  15.947  0.00  0.00    +0.000 A 
ATOM      2  C   UNL     1       5.510   5.763  15.548  0.00  0.00    +0.000 A 
ATOM      3  C   UNL     1       4.807   6.763  16.233  0.00  0.00    +0.000 A 
ATOM      4  C   UNL     1       3.995   6.425  17.316  0.00  0.00    +0.000 A 
ATOM      5  C   UNL     1       3.238   7.404  18.081  0.00  0.00    +0.000 A 
ATOM      6  C   UNL     1       2.452   7.026  19.106  0.00  0.00    +0.000 A 
ATOM      7  C   UNL     1       2.334   5.601  19.479  0.00  0.00    +0.000 A 
ATOM      8  O   UNL     1       1.603   5.222  20.394  0.00  0.00    +0.000 OA
ATOM      9  O   UNL     1       3.096   4.689  18.766  0.00  0.00    +0.000 OA
ATOM     10  C   UNL     1       3.908   5.095  17.693  0.00  0.00    +0.000 A 
ATOM     11  C   UNL     1       4.609   4.094  17.034  0.00  0.00    +0.000 A 
ENDROOT
BRANCH   6  12
ATOM     12  C   UNL     1       1.742   8.120  19.843  0.00  0.00    +0.000 C 
ATOM     13  O   UNL     1       1.522   8.028  21.045  0.00  0.00    +0.000 OA
ATOM     14  N   UNL     1       1.353   9.213  19.108  0.00  0.00    +0.000 N 
ATOM     15  H   UNL     1       1.558   9.250  18.111  0.00  0.00    +0.000 HD
BRANCH  14  16
ATOM     16  C   UNL     1       0.638  10.320  19.703  0.00  0.00    +0.000 C 
BRANCH  16  17
ATOM     17  C   UNL     1      -0.661  10.593  18.990  0.00  0.00    +0.000 A 
ATOM     18  C   UNL     1      -0.974   9.944  17.787  0.00  0.00    +0.000 A 
ATOM     19  C   UNL     1      -2.162  10.234  17.114  0.00  0.00    +0.000 A 
ATOM     20  C   UNL     1      -3.050  11.174  17.635  0.00  0.00    +0.000 A 
ATOM     21  C   UNL     1      -2.759  11.813  18.838  0.00  0.00    +0.000 A 
ATOM     22  C   UNL     1      -1.569  11.525  19.511  0.00  0.00    +0.000 A 
ENDBRANCH  16  17
ENDBRANCH  14  16
ENDBRANCH   6  12
BRANCH   1  24
ATOM     23  C   UNL     1       6.280   3.839  13.830  0.00  0.00    +0.000 C 
ATOM     24  O   UNL     1       6.136   3.521  15.213  0.00  0.00    +0.000 OA
ENDBRANCH   1  24
TORSDOF 4
ENDMDL
MODEL 5
REMARK VINA RESULT:      -7.6      4.268      6.802
REMARK  Name = 
REMARK  5 active torsions:
REMARK  status: ('A' for Active; 'I' for Inactive)
REMARK    1  A    between atoms: C_1  and  O_2
REMARK    2  A    between atoms: O_2  and  C_3
REMARK    3  A    between atoms: C_8  and  C_9
REMARK    4  A    between atoms: N_11  and  C_12
REMARK    5  A    between atoms: C_12  and  C_13
REMARK                            x       y       z     vdW  Elec       q    Type
REMARK                         _______ _______ _______ _____ _____    ______ ____
ROOT
ATOM      1  C   UNL     1       2.068   3.791  20.124  0.00  0.00    +0.000 A 
ATOM      2  C   UNL     1       1.918   2.838  19.106  0.00  0.00    +0.000 A 
ATOM      3  C   UNL     1       2.786   2.828  18.007  0.00  0.00    +0.000 A 
ATOM      4  C   UNL     1       3.805   3.777  17.915  0.00  0.00    +0.000 A 
ATOM      5  C   UNL     1       4.748   3.831  16.809  0.00  0.00    +0.000 A 
ATOM      6  C   UNL     1       5.702   4.779  16.755  0.00  0.00    +0.000 A 
ATOM      7  C   UNL     1       5.812   5.797  17.821  0.00  0.00    +0.000 A 
ATOM      8  O   UNL     1       6.656   6.692  17.787  0.00  0.00    +0.000 OA
ATOM      9  O   UNL     1       4.931   5.704  18.888  0.00  0.00    +0.000 OA
ATOM     10  C   UNL     1       3.935   4.712  18.929  0.00  0.00    +0.000 A 
ATOM     11  C   UNL     1       3.093   4.728  20.032  0.00  0.00    +0.000 A 
ENDROOT
BRANCH   6  12
ATOM     12  C   UNL     1       6.638   4.720  15.588  0.00  0.00    +0.000 C 
ATOM     13  O   UNL     1       7.845   4.583  15.756  0.00  0.00    +0.000 OA
ATOM     14  N   UNL     1       6.080   4.832  14.339  0.00  0.00    +0.000 N 
ATOM     15  H   UNL     1       5.072   4.943  14.244  0.00  0.00    +0.000 HD
BRANCH  14  16
ATOM     16  C   UNL     1       6.884   4.816  13.136  0.00  0.00    +0.000 C 
BRANCH  16  17
ATOM     17  C   UNL     1       6.598   3.603  12.291  0.00  0.00    +0.000 A 
ATOM     18  C   UNL     1       5.283   3.164  12.079  0.00  0.00    +0.000 A 
ATOM     19  C   UNL     1       5.032   2.015  11.327  0.00  0.00    +0.000 A 
ATOM     20  C   UNL     1       6.090   1.293  10.777  0.00  0.00    +0.000 A 
ATOM     21  C   UNL     1       7.400   1.728  10.965  0.00  0.00    +0.000 A 
ATOM     22  C   UNL     1       7.653   2.877  11.719  0.00  0.00    +0.000 A 
ENDBRANCH  16  17
ENDBRANCH  14  16
ENDBRANCH   6  12
BRANCH   1  24
ATOM     23  C   UNL     1       1.259   2.543  21.958  0.00  0.00    +0.000 C 
ATOM     24  O   UNL     1       1.170   3.718  21.155  0.00  0.00    +0.000 OA
ENDBRANCH   1  24
TORSDOF 4
ENDMDL
MODEL 6
REMARK VINA RESULT:      -7.6      3.911      7.721
REMARK  Name = 
REMARK  5 active torsions:
REMARK  status: ('A' for Active; 'I' for Inactive)
REMARK    1  A    between atoms: C_1  and  O_2
REMARK    2  A    between atoms: O_2  and  C_3
REMARK    3  A    between atoms: C_8  and  C_9
REMARK    4  A    between atoms: N_11  and  C_12
REMARK    5  A    between atoms: C_12  and  C_13
REMARK                            x       y       z     vdW  Elec       q    Type
REMARK                         _______ _______ _______ _____ _____    ______ ____
ROOT
ATOM      1  C   UNL     1       6.974   3.957  12.461  0.00  0.00    +0.000 A 
ATOM      2  C   UNL     1       5.735   3.347  12.708  0.00  0.00    +0.000 A 
ATOM      3  C   UNL     1       5.068   3.556  13.921  0.00  0.00    +0.000 A 
ATOM      4  C   UNL     1       5.640   4.370  14.900  0.00  0.00    +0.000 A 
ATOM      5  C   UNL     1       5.010   4.640  16.182  0.00  0.00    +0.000 A 
ATOM      6  C   UNL     1       5.612   5.416  17.102  0.00  0.00    +0.000 A 
ATOM      7  C   UNL     1       6.938   6.012  16.833  0.00  0.00    +0.000 A 
ATOM      8  O   UNL     1       7.525   6.705  17.664  0.00  0.00    +0.000 OA
ATOM      9  O   UNL     1       7.503   5.779  15.589  0.00  0.00    +0.000 OA
ATOM     10  C   UNL     1       6.866   4.961  14.639  0.00  0.00    +0.000 A 
ATOM     11  C   UNL     1       7.534   4.775  13.436  0.00  0.00    +0.000 A 
ENDROOT
BRANCH   6  12
ATOM     12  C   UNL     1       4.858   5.652  18.375  0.00  0.00    +0.000 C 
ATOM     13  O   UNL     1       5.395   5.481  19.464  0.00  0.00    +0.000 OA
ATOM     14  N   UNL     1       3.552   6.058  18.257  0.00  0.00    +0.000 N 
ATOM     15  H   UNL     1       3.146   6.190  17.332  0.00  0.00    +0.000 HD
BRANCH  14  16
ATOM     16  C   UNL     1       2.716   6.292  19.413  0.00  0.00    +0.000 C 
BRANCH  16  17
ATOM     17  C   UNL     1       2.161   5.008  19.970  0.00  0.00    +0.000 A 
ATOM     18  C   UNL     1       2.449   4.606  21.282  0.00  0.00    +0.000 A 
ATOM     19  C   UNL     1       1.963   3.393  21.775  0.00  0.00    +0.000 A 
ATOM     20  C   UNL     1       1.183   2.570  20.965  0.00  0.00    +0.000 A 
ATOM     21  C   UNL     1       0.875   2.966  19.665  0.00  0.00    +0.000 A 
ATOM     22  C   UNL     1       1.363   4.177  19.170  0.00  0.00    +0.000 A 
ENDBRANCH  16  17
ENDBRANCH  14  16
ENDBRANCH   6  12
BRANCH   1  24
ATOM     23  C   UNL     1       7.563   2.313  10.871  0.00  0.00    +0.000 C 
ATOM     24  O   UNL     1       7.546   3.689  11.246  0.00  0.00    +0.000 OA
ENDBRANCH   1  24
TORSDOF 4
ENDMDL
MODEL 7
REMARK VINA RESULT:      -7.5      4.811      7.433
REMARK  Name = 
REMARK  5 active torsions:
REMARK  status: ('A' for Active; 'I' for Inactive)
REMARK    1  A    between atoms: C_1  and  O_2
REMARK    2  A    between atoms: O_2  and  C_3
REMARK    3  A    between atoms: C_8  and  C_9
REMARK    4  A    between atoms: N_11  and  C_12
REMARK    5  A    between atoms: C_12  and  C_13
REMARK                            x       y       z     vdW  Elec       q    Type
REMARK                         _______ _______ _______ _____ _____    ______ ____
ROOT
ATOM      1  C   UNL     1       5.518   4.539  16.102  0.00  0.00    +0.000 A 
ATOM      2  C   UNL     1       5.400   5.844  15.602  0.00  0.00    +0.000 A 
ATOM      3  C   UNL     1       4.613   6.793  16.269  0.00  0.00    +0.000 A 
ATOM      4  C   UNL     1       3.933   6.439  17.434  0.00  0.00    +0.000 A 
ATOM      5  C   UNL     1       3.101   7.366  18.185  0.00  0.00    +0.000 A 
ATOM      6  C   UNL     1       2.448   6.971  19.294  0.00  0.00    +0.000 A 
ATOM      7  C   UNL     1       2.556   5.577  19.775  0.00  0.00    +0.000 A 
ATOM      8  O   UNL     1       1.951   5.180  20.770  0.00  0.00    +0.000 OA
ATOM      9  O   UNL     1       3.387   4.721  19.070  0.00  0.00    +0.000 OA
ATOM     10  C   UNL     1       4.059   5.144  17.910  0.00  0.00    +0.000 A 
ATOM     11  C   UNL     1       4.846   4.196  17.270  0.00  0.00    +0.000 A 
ENDROOT
BRANCH   6  12
ATOM     12  C   UNL     1       1.645   8.016  20.005  0.00  0.00    +0.000 C 
ATOM     13  O   UNL     1       1.270   7.843  21.159  0.00  0.00    +0.000 OA
ATOM     14  N   UNL     1       1.351   9.158  19.302  0.00  0.00    +0.000 N 
ATOM     15  H   UNL     1       1.684   9.262  18.345  0.00  0.00    +0.000 HD
BRANCH  14  16
ATOM     16  C   UNL     1       0.561  10.227  19.873  0.00  0.00    +0.000 C 
BRANCH  16  17
ATOM     17  C   UNL     1      -0.665  10.516  19.047  0.00  0.00    +0.000 A 
ATOM     18  C   UNL     1      -1.635  11.428  19.490  0.00  0.00    +0.000 A 
ATOM     19  C   UNL     1      -2.787  11.659  18.737  0.00  0.00    +0.000 A 
ATOM     20  C   UNL     1      -2.984  10.984  17.533  0.00  0.00    +0.000 A 
ATOM     21  C   UNL     1      -2.020  10.089  17.074  0.00  0.00    +0.000 A 
ATOM     22  C   UNL     1      -0.868   9.855  17.828  0.00  0.00    +0.000 A 
ENDBRANCH  16  17
ENDBRANCH  14  16
ENDBRANCH   6  12
BRANCH   1  24
ATOM     23  C   UNL     1       6.271   3.874  13.966  0.00  0.00    +0.000 C 
ATOM     24  O   UNL     1       6.309   3.686  15.379  0.00  0.00    +0.000 OA
ENDBRANCH   1  24
TORSDOF 4
ENDMDL
MODEL 8
REMARK VINA RESULT:      -7.5      3.961      7.774
REMARK  Name = 
REMARK  5 active torsions:
REMARK  status: ('A' for Active; 'I' for Inactive)
REMARK    1  A    between atoms: C_1  and  O_2
REMARK    2  A    between atoms: O_2  and  C_3
REMARK    3  A    between atoms: C_8  and  C_9
REMARK    4  A    between atoms: N_11  and  C_12
REMARK    5  A    between atoms: C_12  and  C_13
REMARK                            x       y       z     vdW  Elec       q    Type
REMARK                         _______ _______ _______ _____ _____    ______ ____
ROOT
ATOM      1  C   UNL     1       6.949   3.875  12.356  0.00  0.00    +0.000 A 
ATOM      2  C   UNL     1       5.686   3.317  12.601  0.00  0.00    +0.000 A 
ATOM      3  C   UNL     1       5.025   3.554  13.813  0.00  0.00    +0.000 A 
ATOM      4  C   UNL     1       5.628   4.345  14.792  0.00  0.00    +0.000 A 
ATOM      5  C   UNL     1       5.006   4.642  16.073  0.00  0.00    +0.000 A 
ATOM      6  C   UNL     1       5.637   5.394  16.993  0.00  0.00    +0.000 A 
ATOM      7  C   UNL     1       6.987   5.936  16.726  0.00  0.00    +0.000 A 
ATOM      8  O   UNL     1       7.599   6.605  17.557  0.00  0.00    +0.000 OA
ATOM      9  O   UNL     1       7.544   5.678  15.483  0.00  0.00    +0.000 OA
ATOM     10  C   UNL     1       6.877   4.885  14.533  0.00  0.00    +0.000 A 
ATOM     11  C   UNL     1       7.540   4.671  13.332  0.00  0.00    +0.000 A 
ENDROOT
BRANCH   6  12
ATOM     12  C   UNL     1       4.891   5.662  18.264  0.00  0.00    +0.000 C 
ATOM     13  O   UNL     1       5.452   5.579  19.351  0.00  0.00    +0.000 OA
ATOM     14  N   UNL     1       3.564   5.993  18.146  0.00  0.00    +0.000 N 
ATOM     15  H   UNL     1       3.138   6.053  17.223  0.00  0.00    +0.000 HD
BRANCH  14  16
ATOM     16  C   UNL     1       2.733   6.249  19.303  0.00  0.00    +0.000 C 
BRANCH  16  17
ATOM     17  C   UNL     1       2.201   4.973  19.900  0.00  0.00    +0.000 A 
ATOM     18  C   UNL     1       1.361   4.126  19.163  0.00  0.00    +0.000 A 
ATOM     19  C   UNL     1       0.840   2.966  19.740  0.00  0.00    +0.000 A 
ATOM     20  C   UNL     1       1.153   2.639  21.058  0.00  0.00    +0.000 A 
ATOM     21  C   UNL     1       2.000   3.463  21.796  0.00  0.00    +0.000 A 
ATOM     22  C   UNL     1       2.520   4.625  21.220  0.00  0.00    +0.000 A 
ENDBRANCH  16  17
ENDBRANCH  14  16
ENDBRANCH   6  12
BRANCH   1  24
ATOM     23  C   UNL     1       7.587   2.195  10.826  0.00  0.00    +0.000 C 
ATOM     24  O   UNL     1       7.512   3.583  11.143  0.00  0.00    +0.000 OA
ENDBRANCH   1  24
TORSDOF 4
ENDMDL
MODEL 9
REMARK VINA RESULT:      -7.4      6.015      8.832
REMARK  Name = 
REMARK  5 active torsions:
REMARK  status: ('A' for Active; 'I' for Inactive)
REMARK    1  A    between atoms: C_1  and  O_2
REMARK    2  A    between atoms: O_2  and  C_3
REMARK    3  A    between atoms: C_8  and  C_9
REMARK    4  A    between atoms: N_11  and  C_12
REMARK    5  A    between atoms: C_12  and  C_13
REMARK                            x       y       z     vdW  Elec       q    Type
REMARK                         _______ _______ _______ _____ _____    ______ ____
ROOT
ATOM      1  C   UNL     1      -1.075  11.626  22.468  0.00  0.00    +0.000 A 
ATOM      2  C   UNL     1      -0.890  10.458  23.223  0.00  0.00    +0.000 A 
ATOM      3  C   UNL     1      -0.159   9.383  22.702  0.00  0.00    +0.000 A 
ATOM      4  C   UNL     1       0.383   9.465  21.419  0.00  0.00    +0.000 A 
ATOM      5  C   UNL     1       1.156   8.395  20.809  0.00  0.00    +0.000 A 
ATOM      6  C   UNL     1       1.641   8.513  19.560  0.00  0.00    +0.000 A 
ATOM      7  C   UNL     1       1.395   9.739  18.770  0.00  0.00    +0.000 A 
ATOM      8  O   UNL     1       1.803   9.867  17.616  0.00  0.00    +0.000 OA
ATOM      9  O   UNL     1       0.693  10.764  19.384  0.00  0.00    +0.000 OA
ATOM     10  C   UNL     1       0.186  10.625  20.688  0.00  0.00    +0.000 A 
ATOM     11  C   UNL     1      -0.523  11.706  21.194  0.00  0.00    +0.000 A 
ENDROOT
BRANCH   6  12
ATOM     12  C   UNL     1       2.449   7.363  19.043  0.00  0.00    +0.000 C 
ATOM     13  O   UNL     1       2.626   7.209  17.840  0.00  0.00    +0.000 OA
ATOM     14  N   UNL     1       2.967   6.500  19.977  0.00  0.00    +0.000 N 
ATOM     15  H   UNL     1       2.798   6.666  20.968  0.00  0.00    +0.000 HD
BRANCH  14  16
ATOM     16  C   UNL     1       3.742   5.338  19.599  0.00  0.00    +0.000 C 
BRANCH  16  17
ATOM     17  C   UNL     1       2.861   4.162  19.271  0.00  0.00    +0.000 A 
ATOM     18  C   UNL     1       3.194   3.278  18.235  0.00  0.00    +0.000 A 
ATOM     19  C   UNL     1       2.349   2.214  17.912  0.00  0.00    +0.000 A 
ATOM     20  C   UNL     1       1.164   2.021  18.620  0.00  0.00    +0.000 A 
ATOM     21  C   UNL     1       0.830   2.883  19.662  0.00  0.00    +0.000 A 
ATOM     22  C   UNL     1       1.673   3.949  19.985  0.00  0.00    +0.000 A 
ENDBRANCH  16  17
ENDBRANCH  14  16
ENDBRANCH   6  12
BRANCH   1  24
ATOM     23  C   UNL     1      -1.966  13.805  22.288  0.00  0.00    +0.000 C 
ATOM     24  O   UNL     1      -1.804  12.620  23.065  0.00  0.00    +0.000 OA
ENDBRANCH   1  24
TORSDOF 4
ENDMDL
