MODEL 1
REMARK VINA RESULT:      -6.9      0.000      0.000
REMARK  Name = 
REMARK  6 active torsions:
REMARK  status: ('A' for Active; 'I' for Inactive)
REMARK    1  A    between atoms: C_1  and  C_2
REMARK    2  A    between atoms: C_2  and  O_3
REMARK    3  A    between atoms: O_3  and  C_4
REMARK    4  A    between atoms: C_4  and  C_6
REMARK    5  A    between atoms: C_6  and  O_7
REMARK    6  A    between atoms: O_7  and  C_8
REMARK                            x       y       z     vdW  Elec       q    Type
REMARK                         _______ _______ _______ _____ _____    ______ ____
ROOT
ATOM      1  C   UNL     1       2.527   6.183  19.612  0.00  0.00    +0.000 A 
ATOM      2  C   UNL     1       3.211   5.526  18.574  0.00  0.00    +0.000 A 
ATOM      3  C   UNL     1       3.490   6.194  17.389  0.00  0.00    +0.000 A 
ATOM      4  C   UNL     1       3.088   7.515  17.247  0.00  0.00    +0.000 A 
ATOM      5  C   UNL     1       2.432   8.179  18.296  0.00  0.00    +0.000 A 
ATOM      6  C   UNL     1       2.034   9.503  18.138  0.00  0.00    +0.000 A 
ATOM      7  C   UNL     1       1.400  10.165  19.181  0.00  0.00    +0.000 A 
ATOM      8  C   UNL     1       1.164   9.509  20.388  0.00  0.00    +0.000 A 
ATOM      9  N   UNL     1       0.574  10.195  21.436  0.00  0.00    +0.000 N 
ATOM     10  C   UNL     1       0.350   9.552  22.728  0.00  0.00    +0.000 C 
ATOM     11  C   UNL     1      -1.048  10.018  23.136  0.00  0.00    +0.000 C 
ATOM     12  C   UNL     1      -1.177  11.384  22.488  0.00  0.00    +0.000 C 
ATOM     13  C   UNL     1      -0.426  11.226  21.172  0.00  0.00    +0.000 C 
ATOM     14  N   UNL     1       1.542   8.218  20.537  0.00  0.00    +0.000 NA
ATOM     15  C   UNL     1       2.154   7.542  19.522  0.00  0.00    +0.000 A 
ENDROOT
BRANCH   1  16
ATOM     16  O   UNL     1       2.212   5.532  20.787  0.00  0.00    +0.000 OA
BRANCH  16  17
ATOM     17  C   UNL     1       1.236   4.503  20.668  0.00  0.00    +0.000 C 
BRANCH  17  18
ATOM     18  C   UNL     1       1.773   3.214  21.255  0.00  0.00    +0.000 C 
ATOM     19  O   UNL     1       2.504   3.107  22.228  0.00  0.00    +0.000 OA
BRANCH  18  20
ATOM     20  O   UNL     1       1.370   2.163  20.469  0.00  0.00    +0.000 OA
BRANCH  20  22
ATOM     21  C   UNL     1       2.938   1.832  18.701  0.00  0.00    +0.000 C 
ATOM     22  C   UNL     1       1.563   2.365  19.062  0.00  0.00    +0.000 C 
ENDBRANCH  20  22
ENDBRANCH  18  20
ENDBRANCH  17  18
ENDBRANCH  16  17
ENDBRANCH   1  16
TORSDOF 5
ENDMDL
MODEL 2
REMARK VINA RESULT:      -6.7      3.137      5.383
REMARK  Name = 
REMARK  6 active torsions:
REMARK  status: ('A' for Active; 'I' for Inactive)
REMARK    1  A    between atoms: C_1  and  C_2
REMARK    2  A    between atoms: C_2  and  O_3
REMARK    3  A    between atoms: O_3  and  C_4
REMARK    4  A    between atoms: C_4  and  C_6
REMARK    5  A    between atoms: C_6  and  O_7
REMARK    6  A    between atoms: O_7  and  C_8
REMARK                            x       y       z     vdW  Elec       q    Type
REMARK                         _______ _______ _______ _____ _____    ______ ____
ROOT
ATOM      1  C   UNL     1       4.226   4.388  18.168  0.00  0.00    +0.000 A 
ATOM      2  C   UNL     1       4.622   3.085  18.520  0.00  0.00    +0.000 A 
ATOM      3  C   UNL     1       4.134   2.497  19.681  0.00  0.00    +0.000 A 
ATOM      4  C   UNL     1       3.252   3.210  20.480  0.00  0.00    +0.000 A 
ATOM      5  C   UNL     1       2.835   4.499  20.111  0.00  0.00    +0.000 A 
ATOM      6  C   UNL     1       1.952   5.203  20.924  0.00  0.00    +0.000 A 
ATOM      7  C   UNL     1       1.526   6.471  20.551  0.00  0.00    +0.000 A 
ATOM      8  C   UNL     1       1.978   7.041  19.362  0.00  0.00    +0.000 A 
ATOM      9  N   UNL     1       1.509   8.286  18.979  0.00  0.00    +0.000 N 
ATOM     10  C   UNL     1       1.929   8.895  17.719  0.00  0.00    +0.000 C 
ATOM     11  C   UNL     1       2.172  10.360  18.079  0.00  0.00    +0.000 C 
ATOM     12  C   UNL     1       1.205  10.617  19.221  0.00  0.00    +0.000 C 
ATOM     13  C   UNL     1       1.198   9.298  19.984  0.00  0.00    +0.000 C 
ATOM     14  N   UNL     1       2.845   6.360  18.577  0.00  0.00    +0.000 NA
ATOM     15  C   UNL     1       3.289   5.119  18.929  0.00  0.00    +0.000 A 
ENDROOT
BRANCH   1  16
ATOM     16  O   UNL     1       4.720   5.004  17.036  0.00  0.00    +0.000 OA
BRANCH  16  17
ATOM     17  C   UNL     1       5.920   4.444  16.515  0.00  0.00    +0.000 C 
BRANCH  17  18
ATOM     18  C   UNL     1       6.787   5.540  15.931  0.00  0.00    +0.000 C 
ATOM     19  O   UNL     1       7.603   5.420  15.029  0.00  0.00    +0.000 OA
BRANCH  18  20
ATOM     20  O   UNL     1       6.572   6.702  16.630  0.00  0.00    +0.000 OA
BRANCH  20  22
ATOM     21  C   UNL     1       7.890   8.387  17.687  0.00  0.00    +0.000 C 
ATOM     22  C   UNL     1       7.489   6.923  17.710  0.00  0.00    +0.000 C 
ENDBRANCH  20  22
ENDBRANCH  18  20
ENDBRANCH  17  18
ENDBRANCH  16  17
ENDBRANCH   1  16
TORSDOF 5
ENDMDL
MODEL 3
REMARK VINA RESULT:      -6.7      1.422      2.129
REMARK  Name = 
REMARK  6 active torsions:
REMARK  status: ('A' for Active; 'I' for Inactive)
REMARK    1  A    between atoms: C_1  and  C_2
REMARK    2  A    between atoms: C_2  and  O_3
REMARK    3  A    between atoms: O_3  and  C_4
REMARK    4  A    between atoms: C_4  and  C_6
REMARK    5  A    between atoms: C_6  and  O_7
REMARK    6  A    between atoms: O_7  and  C_8
REMARK                            x       y       z     vdW  Elec       q    Type
REMARK                         _______ _______ _______ _____ _____    ______ ____
ROOT
ATOM      1  C   UNL     1       3.969   4.719  19.344  0.00  0.00    +0.000 A 
ATOM      2  C   UNL     1       4.827   3.945  18.542  0.00  0.00    +0.000 A 
ATOM      3  C   UNL     1       5.184   4.387  17.274  0.00  0.00    +0.000 A 
ATOM      4  C   UNL     1       4.687   5.598  16.816  0.00  0.00    +0.000 A 
ATOM      5  C   UNL     1       3.855   6.384  17.629  0.00  0.00    +0.000 A 
ATOM      6  C   UNL     1       3.361   7.595  17.155  0.00  0.00    +0.000 A 
ATOM      7  C   UNL     1       2.553   8.380  17.966  0.00  0.00    +0.000 A 
ATOM      8  C   UNL     1       2.234   7.959  19.256  0.00  0.00    +0.000 A 
ATOM      9  N   UNL     1       1.465   8.773  20.070  0.00  0.00    +0.000 N 
ATOM     10  C   UNL     1       1.147   8.384  21.441  0.00  0.00    +0.000 C 
ATOM     11  C   UNL     1      -0.325   8.764  21.603  0.00  0.00    +0.000 C 
ATOM     12  C   UNL     1      -0.496   9.948  20.669  0.00  0.00    +0.000 C 
ATOM     13  C   UNL     1       0.416   9.611  19.496  0.00  0.00    +0.000 C 
ATOM     14  N   UNL     1       2.705   6.776  19.713  0.00  0.00    +0.000 NA
ATOM     15  C   UNL     1       3.490   5.981  18.930  0.00  0.00    +0.000 A 
ENDROOT
BRANCH   1  16
ATOM     16  O   UNL     1       3.576   4.288  20.595  0.00  0.00    +0.000 OA
BRANCH  16  17
ATOM     17  C   UNL     1       3.485   2.876  20.749  0.00  0.00    +0.000 C 
BRANCH  17  18
ATOM     18  C   UNL     1       2.042   2.477  20.978  0.00  0.00    +0.000 C 
ATOM     19  O   UNL     1       1.441   2.497  22.041  0.00  0.00    +0.000 OA
BRANCH  18  20
ATOM     20  O   UNL     1       1.516   2.006  19.800  0.00  0.00    +0.000 OA
BRANCH  20  22
ATOM     21  C   UNL     1       1.196   3.443  17.923  0.00  0.00    +0.000 C 
ATOM     22  C   UNL     1       0.563   2.882  19.183  0.00  0.00    +0.000 C 
ENDBRANCH  20  22
ENDBRANCH  18  20
ENDBRANCH  17  18
ENDBRANCH  16  17
ENDBRANCH   1  16
TORSDOF 5
ENDMDL
MODEL 4
REMARK VINA RESULT:      -6.7      3.164      4.990
REMARK  Name = 
REMARK  6 active torsions:
REMARK  status: ('A' for Active; 'I' for Inactive)
REMARK    1  A    between atoms: C_1  and  C_2
REMARK    2  A    between atoms: C_2  and  O_3
REMARK    3  A    between atoms: O_3  and  C_4
REMARK    4  A    between atoms: C_4  and  C_6
REMARK    5  A    between atoms: C_6  and  O_7
REMARK    6  A    between atoms: O_7  and  C_8
REMARK                            x       y       z     vdW  Elec       q    Type
REMARK                         _______ _______ _______ _____ _____    ______ ____
ROOT
ATOM      1  C   UNL     1       4.238   4.935  18.262  0.00  0.00    +0.000 A 
ATOM      2  C   UNL     1       4.609   3.620  18.596  0.00  0.00    +0.000 A 
ATOM      3  C   UNL     1       4.042   2.994  19.699  0.00  0.00    +0.000 A 
ATOM      4  C   UNL     1       3.105   3.681  20.458  0.00  0.00    +0.000 A 
ATOM      5  C   UNL     1       2.713   4.982  20.105  0.00  0.00    +0.000 A 
ATOM      6  C   UNL     1       1.774   5.659  20.878  0.00  0.00    +0.000 A 
ATOM      7  C   UNL     1       1.373   6.938  20.518  0.00  0.00    +0.000 A 
ATOM      8  C   UNL     1       1.907   7.548  19.384  0.00  0.00    +0.000 A 
ATOM      9  N   UNL     1       1.464   8.806  19.012  0.00  0.00    +0.000 N 
ATOM     10  C   UNL     1       1.970   9.456  17.806  0.00  0.00    +0.000 C 
ATOM     11  C   UNL     1       2.186  10.909  18.232  0.00  0.00    +0.000 C 
ATOM     12  C   UNL     1       1.141  11.128  19.311  0.00  0.00    +0.000 C 
ATOM     13  C   UNL     1       1.082   9.783  20.026  0.00  0.00    +0.000 C 
ATOM     14  N   UNL     1       2.828   6.894  18.639  0.00  0.00    +0.000 NA
ATOM     15  C   UNL     1       3.248   5.641  18.979  0.00  0.00    +0.000 A 
ENDROOT
BRANCH   1  16
ATOM     16  O   UNL     1       4.808   5.589  17.189  0.00  0.00    +0.000 OA
BRANCH  16  17
ATOM     17  C   UNL     1       6.133   6.063  17.403  0.00  0.00    +0.000 C 
BRANCH  17  18
ATOM     18  C   UNL     1       7.097   5.318  16.503  0.00  0.00    +0.000 C 
ATOM     19  O   UNL     1       7.905   4.469  16.848  0.00  0.00    +0.000 OA
BRANCH  18  20
ATOM     20  O   UNL     1       6.980   5.802  15.224  0.00  0.00    +0.000 OA
BRANCH  20  22
ATOM     21  C   UNL     1       5.670   4.136  14.127  0.00  0.00    +0.000 C 
ATOM     22  C   UNL     1       7.035   4.798  14.202  0.00  0.00    +0.000 C 
ENDBRANCH  20  22
ENDBRANCH  18  20
ENDBRANCH  17  18
ENDBRANCH  16  17
ENDBRANCH   1  16
TORSDOF 5
ENDMDL
MODEL 5
REMARK VINA RESULT:      -6.6      5.100      7.971
REMARK  Name = 
REMARK  6 active torsions:
REMARK  status: ('A' for Active; 'I' for Inactive)
REMARK    1  A    between atoms: C_1  and  C_2
REMARK    2  A    between atoms: C_2  and  O_3
REMARK    3  A    between atoms: O_3  and  C_4
REMARK    4  A    between atoms: C_4  and  C_6
REMARK    5  A    between atoms: C_6  and  O_7
REMARK    6  A    between atoms: O_7  and  C_8
REMARK                            x       y       z     vdW  Elec       q    Type
REMARK                         _______ _______ _______ _____ _____    ______ ____
ROOT
ATOM      1  C   UNL     1       3.914   4.164  17.598  0.00  0.00    +0.000 A 
ATOM      2  C   UNL     1       3.914   4.589  18.938  0.00  0.00    +0.000 A 
ATOM      3  C   UNL     1       5.007   5.277  19.451  0.00  0.00    +0.000 A 
ATOM      4  C   UNL     1       6.089   5.538  18.624  0.00  0.00    +0.000 A 
ATOM      5  C   UNL     1       6.074   5.139  17.278  0.00  0.00    +0.000 A 
ATOM      6  C   UNL     1       7.169   5.407  16.461  0.00  0.00    +0.000 A 
ATOM      7  C   UNL     1       7.146   5.028  15.126  0.00  0.00    +0.000 A 
ATOM      8  C   UNL     1       6.030   4.381  14.599  0.00  0.00    +0.000 A 
ATOM      9  N   UNL     1       6.002   4.050  13.254  0.00  0.00    +0.000 N 
ATOM     10  C   UNL     1       4.832   3.410  12.660  0.00  0.00    +0.000 C 
ATOM     11  C   UNL     1       5.422   2.340  11.741  0.00  0.00    +0.000 C 
ATOM     12  C   UNL     1       6.759   2.923  11.320  0.00  0.00    +0.000 C 
ATOM     13  C   UNL     1       7.230   3.666  12.564  0.00  0.00    +0.000 C 
ATOM     14  N   UNL     1       4.970   4.111  15.396  0.00  0.00    +0.000 NA
ATOM     15  C   UNL     1       4.974   4.462  16.714  0.00  0.00    +0.000 A 
ENDROOT
BRANCH   1  16
ATOM     16  O   UNL     1       2.853   3.453  17.072  0.00  0.00    +0.000 OA
BRANCH  16  17
ATOM     17  C   UNL     1       2.632   2.173  17.654  0.00  0.00    +0.000 C 
BRANCH  17  18
ATOM     18  C   UNL     1       1.415   2.220  18.554  0.00  0.00    +0.000 C 
ATOM     19  O   UNL     1       0.265   2.451  18.211  0.00  0.00    +0.000 OA
BRANCH  18  20
ATOM     20  O   UNL     1       1.813   2.034  19.854  0.00  0.00    +0.000 OA
BRANCH  20  22
ATOM     21  C   UNL     1       2.198   3.209  21.896  0.00  0.00    +0.000 C 
ATOM     22  C   UNL     1       1.191   2.917  20.798  0.00  0.00    +0.000 C 
ENDBRANCH  20  22
ENDBRANCH  18  20
ENDBRANCH  17  18
ENDBRANCH  16  17
ENDBRANCH   1  16
TORSDOF 5
ENDMDL
MODEL 6
REMARK VINA RESULT:      -6.5      3.029      7.463
REMARK  Name = 
REMARK  6 active torsions:
REMARK  status: ('A' for Active; 'I' for Inactive)
REMARK    1  A    between atoms: C_1  and  C_2
REMARK    2  A    between atoms: C_2  and  O_3
REMARK    3  A    between atoms: O_3  and  C_4
REMARK    4  A    between atoms: C_4  and  C_6
REMARK    5  A    between atoms: C_6  and  O_7
REMARK    6  A    between atoms: O_7  and  C_8
REMARK                            x       y       z     vdW  Elec       q    Type
REMARK                         _______ _______ _______ _____ _____    ______ ____
ROOT
ATOM      1  C   UNL     1       2.379   5.097  19.878  0.00  0.00    +0.000 A 
ATOM      2  C   UNL     1       1.276   4.692  20.651  0.00  0.00    +0.000 A 
ATOM      3  C   UNL     1       0.714   3.436  20.459  0.00  0.00    +0.000 A 
ATOM      4  C   UNL     1       1.258   2.591  19.503  0.00  0.00    +0.000 A 
ATOM      5  C   UNL     1       2.378   2.985  18.754  0.00  0.00    +0.000 A 
ATOM      6  C   UNL     1       2.911   2.128  17.797  0.00  0.00    +0.000 A 
ATOM      7  C   UNL     1       4.029   2.511  17.069  0.00  0.00    +0.000 A 
ATOM      8  C   UNL     1       4.622   3.752  17.294  0.00  0.00    +0.000 A 
ATOM      9  N   UNL     1       5.765   4.102  16.594  0.00  0.00    +0.000 N 
ATOM     10  C   UNL     1       6.436   5.376  16.836  0.00  0.00    +0.000 C 
ATOM     11  C   UNL     1       6.804   5.872  15.438  0.00  0.00    +0.000 C 
ATOM     12  C   UNL     1       7.001   4.595  14.642  0.00  0.00    +0.000 C 
ATOM     13  C   UNL     1       5.953   3.651  15.219  0.00  0.00    +0.000 C 
ATOM     14  N   UNL     1       4.097   4.590  18.218  0.00  0.00    +0.000 NA
ATOM     15  C   UNL     1       2.991   4.242  18.937  0.00  0.00    +0.000 A 
ENDROOT
BRANCH   1  16
ATOM     16  O   UNL     1       2.936   6.351  20.029  0.00  0.00    +0.000 OA
BRANCH  16  17
ATOM     17  C   UNL     1       2.075   7.439  19.713  0.00  0.00    +0.000 C 
BRANCH  17  18
ATOM     18  C   UNL     1       2.422   7.990  18.346  0.00  0.00    +0.000 C 
ATOM     19  O   UNL     1       3.423   7.737  17.692  0.00  0.00    +0.000 OA
BRANCH  18  20
ATOM     20  O   UNL     1       1.461   8.895  17.971  0.00  0.00    +0.000 OA
BRANCH  20  22
ATOM     21  C   UNL     1       0.785  11.033  18.788  0.00  0.00    +0.000 C 
ATOM     22  C   UNL     1       1.871  10.267  18.055  0.00  0.00    +0.000 C 
ENDBRANCH  20  22
ENDBRANCH  18  20
ENDBRANCH  17  18
ENDBRANCH  16  17
ENDBRANCH   1  16
TORSDOF 5
ENDMDL
MODEL 7
REMARK VINA RESULT:      -6.5      2.390      6.652
REMARK  Name = 
REMARK  6 active torsions:
REMARK  status: ('A' for Active; 'I' for Inactive)
REMARK    1  A    between atoms: C_1  and  C_2
REMARK    2  A    between atoms: C_2  and  O_3
REMARK    3  A    between atoms: O_3  and  C_4
REMARK    4  A    between atoms: C_4  and  C_6
REMARK    5  A    between atoms: C_6  and  O_7
REMARK    6  A    between atoms: O_7  and  C_8
REMARK                            x       y       z     vdW  Elec       q    Type
REMARK                         _______ _______ _______ _____ _____    ______ ____
ROOT
ATOM      1  C   UNL     1       1.184   8.705  20.320  0.00  0.00    +0.000 A 
ATOM      2  C   UNL     1       0.969  10.043  19.942  0.00  0.00    +0.000 A 
ATOM      3  C   UNL     1       1.481  10.519  18.741  0.00  0.00    +0.000 A 
ATOM      4  C   UNL     1       2.199   9.657  17.924  0.00  0.00    +0.000 A 
ATOM      5  C   UNL     1       2.386   8.314  18.289  0.00  0.00    +0.000 A 
ATOM      6  C   UNL     1       3.110   7.463  17.460  0.00  0.00    +0.000 A 
ATOM      7  C   UNL     1       3.280   6.131  17.813  0.00  0.00    +0.000 A 
ATOM      8  C   UNL     1       2.725   5.642  18.994  0.00  0.00    +0.000 A 
ATOM      9  N   UNL     1       2.862   4.301  19.311  0.00  0.00    +0.000 N 
ATOM     10  C   UNL     1       2.258   3.746  20.519  0.00  0.00    +0.000 C 
ATOM     11  C   UNL     1       3.335   2.815  21.077  0.00  0.00    +0.000 C 
ATOM     12  C   UNL     1       4.086   2.350  19.843  0.00  0.00    +0.000 C 
ATOM     13  C   UNL     1       4.073   3.575  18.937  0.00  0.00    +0.000 C 
ATOM     14  N   UNL     1       2.030   6.473  19.805  0.00  0.00    +0.000 NA
ATOM     15  C   UNL     1       1.861   7.789  19.487  0.00  0.00    +0.000 A 
ENDROOT
BRANCH   1  16
ATOM     16  O   UNL     1       0.711   8.217  21.521  0.00  0.00    +0.000 OA
BRANCH  16  17
ATOM     17  C   UNL     1      -0.535   8.757  21.948  0.00  0.00    +0.000 C 
BRANCH  17  18
ATOM     18  C   UNL     1      -0.320   9.669  23.137  0.00  0.00    +0.000 C 
ATOM     19  O   UNL     1       0.638   9.662  23.896  0.00  0.00    +0.000 OA
BRANCH  18  20
ATOM     20  O   UNL     1      -1.420  10.476  23.287  0.00  0.00    +0.000 OA
BRANCH  20  22
ATOM     21  C   UNL     1      -2.510  12.594  23.138  0.00  0.00    +0.000 C 
ATOM     22  C   UNL     1      -1.205  11.847  22.926  0.00  0.00    +0.000 C 
ENDBRANCH  20  22
ENDBRANCH  18  20
ENDBRANCH  17  18
ENDBRANCH  16  17
ENDBRANCH   1  16
TORSDOF 5
ENDMDL
MODEL 8
REMARK VINA RESULT:      -6.5      2.999      5.262
REMARK  Name = 
REMARK  6 active torsions:
REMARK  status: ('A' for Active; 'I' for Inactive)
REMARK    1  A    between atoms: C_1  and  C_2
REMARK    2  A    between atoms: C_2  and  O_3
REMARK    3  A    between atoms: O_3  and  C_4
REMARK    4  A    between atoms: C_4  and  C_6
REMARK    5  A    between atoms: C_6  and  O_7
REMARK    6  A    between atoms: O_7  and  C_8
REMARK                            x       y       z     vdW  Elec       q    Type
REMARK                         _______ _______ _______ _____ _____    ______ ____
ROOT
ATOM      1  C   UNL     1       3.783   3.914  17.770  0.00  0.00    +0.000 A 
ATOM      2  C   UNL     1       4.152   2.587  18.052  0.00  0.00    +0.000 A 
ATOM      3  C   UNL     1       3.846   2.026  19.285  0.00  0.00    +0.000 A 
ATOM      4  C   UNL     1       3.171   2.789  20.227  0.00  0.00    +0.000 A 
ATOM      5  C   UNL     1       2.776   4.104  19.932  0.00  0.00    +0.000 A 
ATOM      6  C   UNL     1       2.101   4.858  20.887  0.00  0.00    +0.000 A 
ATOM      7  C   UNL     1       1.695   6.151  20.588  0.00  0.00    +0.000 A 
ATOM      8  C   UNL     1       1.960   6.698  19.334  0.00  0.00    +0.000 A 
ATOM      9  N   UNL     1       1.508   7.972  19.034  0.00  0.00    +0.000 N 
ATOM     10  C   UNL     1       1.731   8.560  17.715  0.00  0.00    +0.000 C 
ATOM     11  C   UNL     1       2.127  10.006  18.016  0.00  0.00    +0.000 C 
ATOM     12  C   UNL     1       1.401  10.317  19.313  0.00  0.00    +0.000 C 
ATOM     13  C   UNL     1       1.449   8.997  20.072  0.00  0.00    +0.000 C 
ATOM     14  N   UNL     1       2.625   5.968  18.409  0.00  0.00    +0.000 NA
ATOM     15  C   UNL     1       3.046   4.700  18.683  0.00  0.00    +0.000 A 
ENDROOT
BRANCH   1  16
ATOM     16  O   UNL     1       4.101   4.505  16.563  0.00  0.00    +0.000 OA
BRANCH  16  17
ATOM     17  C   UNL     1       5.464   4.385  16.170  0.00  0.00    +0.000 C 
BRANCH  17  18
ATOM     18  C   UNL     1       6.029   5.753  15.851  0.00  0.00    +0.000 C 
ATOM     19  O   UNL     1       5.495   6.622  15.176  0.00  0.00    +0.000 OA
BRANCH  18  20
ATOM     20  O   UNL     1       7.291   5.851  16.380  0.00  0.00    +0.000 OA
BRANCH  20  22
ATOM     21  C   UNL     1       7.711   6.120  18.714  0.00  0.00    +0.000 C 
ATOM     22  C   UNL     1       7.483   5.117  17.597  0.00  0.00    +0.000 C 
ENDBRANCH  20  22
ENDBRANCH  18  20
ENDBRANCH  17  18
ENDBRANCH  16  17
ENDBRANCH   1  16
TORSDOF 5
ENDMDL
MODEL 9
REMARK VINA RESULT:      -6.5      2.928      7.444
REMARK  Name = 
REMARK  6 active torsions:
REMARK  status: ('A' for Active; 'I' for Inactive)
REMARK    1  A    between atoms: C_1  and  C_2
REMARK    2  A    between atoms: C_2  and  O_3
REMARK    3  A    between atoms: O_3  and  C_4
REMARK    4  A    between atoms: C_4  and  C_6
REMARK    5  A    between atoms: C_6  and  O_7
REMARK    6  A    between atoms: O_7  and  C_8
REMARK                            x       y       z     vdW  Elec       q    Type
REMARK                         _______ _______ _______ _____ _____    ______ ____
ROOT
ATOM      1  C   UNL     1       2.204   5.141  19.783  0.00  0.00    +0.000 A 
ATOM      2  C   UNL     1       1.234   4.679  20.690  0.00  0.00    +0.000 A 
ATOM      3  C   UNL     1       0.946   3.322  20.773  0.00  0.00    +0.000 A 
ATOM      4  C   UNL     1       1.632   2.435  19.956  0.00  0.00    +0.000 A 
ATOM      5  C   UNL     1       2.622   2.895  19.073  0.00  0.00    +0.000 A 
ATOM      6  C   UNL     1       3.299   1.993  18.257  0.00  0.00    +0.000 A 
ATOM      7  C   UNL     1       4.290   2.446  17.397  0.00  0.00    +0.000 A 
ATOM      8  C   UNL     1       4.611   3.801  17.348  0.00  0.00    +0.000 A 
ATOM      9  N   UNL     1       5.634   4.232  16.519  0.00  0.00    +0.000 N 
ATOM     10  C   UNL     1       6.025   5.639  16.474  0.00  0.00    +0.000 C 
ATOM     11  C   UNL     1       6.241   5.916  14.986  0.00  0.00    +0.000 C 
ATOM     12  C   UNL     1       6.684   4.574  14.430  0.00  0.00    +0.000 C 
ATOM     13  C   UNL     1       5.876   3.569  15.242  0.00  0.00    +0.000 C 
ATOM     14  N   UNL     1       3.945   4.679  18.133  0.00  0.00    +0.000 NA
ATOM     15  C   UNL     1       2.958   4.261  18.977  0.00  0.00    +0.000 A 
ENDROOT
BRANCH   1  16
ATOM     16  O   UNL     1       2.486   6.487  19.660  0.00  0.00    +0.000 OA
BRANCH  16  17
ATOM     17  C   UNL     1       1.846   7.330  20.611  0.00  0.00    +0.000 C 
BRANCH  17  18
ATOM     18  C   UNL     1       1.426   8.625  19.949  0.00  0.00    +0.000 C 
ATOM     19  O   UNL     1       1.670   8.969  18.802  0.00  0.00    +0.000 OA
BRANCH  18  20
ATOM     20  O   UNL     1       0.779   9.410  20.871  0.00  0.00    +0.000 OA
BRANCH  20  22
ATOM     21  C   UNL     1      -0.076   9.558  23.094  0.00  0.00    +0.000 C 
ATOM     22  C   UNL     1       1.092   9.103  22.236  0.00  0.00    +0.000 C 
ENDBRANCH  20  22
ENDBRANCH  18  20
ENDBRANCH  17  18
ENDBRANCH  16  17
ENDBRANCH   1  16
TORSDOF 5
ENDMDL
