MODEL 1
REMARK VINA RESULT:      -8.1      0.000      0.000
REMARK  Name = 
REMARK  2 active torsions:
REMARK  status: ('A' for Active; 'I' for Inactive)
REMARK    1  A    between atoms: N_1  and  C_2
REMARK    2  A    between atoms: C_6  and  C_7
REMARK                            x       y       z     vdW  Elec       q    Type
REMARK                         _______ _______ _______ _____ _____    ______ ____
ROOT
ATOM      1  C   UNL     1       4.794   3.672  18.142  0.00  0.00    +0.000 C 
ATOM      2  C   UNL     1       4.248   4.723  17.124  0.00  0.00    +0.000 C 
ATOM      3  C   UNL     1       3.936   6.118  17.737  0.00  0.00    +0.000 C 
ATOM      4  C   UNL     1       3.110   5.974  18.977  0.00  0.00    +0.000 A 
ATOM      5  C   UNL     1       2.246   6.815  19.664  0.00  0.00    +0.000 A 
ATOM      6  N   UNL     1       1.779   6.073  20.747  0.00  0.00    +0.000 N 
ATOM      7  C   UNL     1       2.301   4.800  20.753  0.00  0.00    +0.000 A 
ATOM      8  C   UNL     1       2.124   3.701  21.596  0.00  0.00    +0.000 A 
ATOM      9  C   UNL     1       2.856   2.540  21.282  0.00  0.00    +0.000 A 
ATOM     10  C   UNL     1       3.728   2.486  20.184  0.00  0.00    +0.000 A 
ATOM     11  C   UNL     1       3.883   3.597  19.346  0.00  0.00    +0.000 A 
ATOM     12  C   UNL     1       3.149   4.744  19.671  0.00  0.00    +0.000 A 
ATOM     13  H   UNL     1       1.150   6.429  21.449  0.00  0.00    +0.000 HD
ENDROOT
BRANCH   5  14
ATOM     14  C   UNL     1       1.843   8.203  19.418  0.00  0.00    +0.000 A 
ATOM     15  C   UNL     1       1.149   8.942  20.388  0.00  0.00    +0.000 A 
ATOM     16  C   UNL     1       0.759  10.261  20.140  0.00  0.00    +0.000 A 
ATOM     17  C   UNL     1       1.049  10.859  18.916  0.00  0.00    +0.000 A 
ATOM     18  C   UNL     1       1.736  10.140  17.942  0.00  0.00    +0.000 A 
ATOM     19  C   UNL     1       2.136   8.826  18.196  0.00  0.00    +0.000 A 
ENDBRANCH   5  14
BRANCH   1  20
ATOM     20  N   UNL     1       6.154   4.037  18.542  0.00  0.00    +0.000 NA
ATOM     21  H   UNL     1       6.826   3.463  18.039  0.00  0.00    +0.000 HD
ATOM     22  H   UNL     1       6.274   3.840  19.534  0.00  0.00    +0.000 HD
ENDBRANCH   1  20
TORSDOF 2
ENDMDL
MODEL 2
REMARK VINA RESULT:      -8.1      0.085      1.107
REMARK  Name = 
REMARK  2 active torsions:
REMARK  status: ('A' for Active; 'I' for Inactive)
REMARK    1  A    between atoms: N_1  and  C_2
REMARK    2  A    between atoms: C_6  and  C_7
REMARK                            x       y       z     vdW  Elec       q    Type
REMARK                         _______ _______ _______ _____ _____    ______ ____
ROOT
ATOM      1  C   UNL     1       4.859   3.741  18.138  0.00  0.00    +0.000 C 
ATOM      2  C   UNL     1       4.301   4.798  17.133  0.00  0.00    +0.000 C 
ATOM      3  C   UNL     1       3.957   6.175  17.767  0.00  0.00    +0.000 C 
ATOM      4  C   UNL     1       3.124   5.995  18.997  0.00  0.00    +0.000 A 
ATOM      5  C   UNL     1       2.239   6.806  19.692  0.00  0.00    +0.000 A 
ATOM      6  N   UNL     1       1.777   6.038  20.757  0.00  0.00    +0.000 N 
ATOM      7  C   UNL     1       2.323   4.775  20.747  0.00  0.00    +0.000 A 
ATOM      8  C   UNL     1       2.161   3.658  21.568  0.00  0.00    +0.000 A 
ATOM      9  C   UNL     1       2.918   2.517  21.242  0.00  0.00    +0.000 A 
ATOM     10  C   UNL     1       3.799   2.499  20.150  0.00  0.00    +0.000 A 
ATOM     11  C   UNL     1       3.940   3.627  19.332  0.00  0.00    +0.000 A 
ATOM     12  C   UNL     1       3.181   4.754  19.670  0.00  0.00    +0.000 A 
ATOM     13  H   UNL     1       1.135   6.370  21.461  0.00  0.00    +0.000 HD
ENDROOT
BRANCH   5  14
ATOM     14  C   UNL     1       1.810   8.191  19.465  0.00  0.00    +0.000 A 
ATOM     15  C   UNL     1       2.057   8.838  18.245  0.00  0.00    +0.000 A 
ATOM     16  C   UNL     1       1.654  10.162  18.042  0.00  0.00    +0.000 A 
ATOM     17  C   UNL     1       1.006  10.860  19.058  0.00  0.00    +0.000 A 
ATOM     18  C   UNL     1       0.754  10.233  20.274  0.00  0.00    +0.000 A 
ATOM     19  C   UNL     1       1.147   8.907  20.471  0.00  0.00    +0.000 A 
ENDBRANCH   5  14
BRANCH   1  20
ATOM     20  N   UNL     1       6.209   4.124  18.555  0.00  0.00    +0.000 NA
ATOM     21  H   UNL     1       6.862   3.969  17.792  0.00  0.00    +0.000 HD
ATOM     22  H   UNL     1       6.501   3.528  19.327  0.00  0.00    +0.000 HD
ENDBRANCH   1  20
TORSDOF 2
ENDMDL
MODEL 3
REMARK VINA RESULT:      -7.8      1.756      3.287
REMARK  Name = 
REMARK  2 active torsions:
REMARK  status: ('A' for Active; 'I' for Inactive)
REMARK    1  A    between atoms: N_1  and  C_2
REMARK    2  A    between atoms: C_6  and  C_7
REMARK                            x       y       z     vdW  Elec       q    Type
REMARK                         _______ _______ _______ _____ _____    ______ ____
ROOT
ATOM      1  C   UNL     1       3.331   2.964  18.213  0.00  0.00    +0.000 C 
ATOM      2  C   UNL     1       2.828   3.504  19.589  0.00  0.00    +0.000 C 
ATOM      3  C   UNL     1       1.992   4.813  19.505  0.00  0.00    +0.000 C 
ATOM      4  C   UNL     1       2.694   5.832  18.663  0.00  0.00    +0.000 A 
ATOM      5  C   UNL     1       2.640   7.215  18.576  0.00  0.00    +0.000 A 
ATOM      6  N   UNL     1       3.560   7.569  17.592  0.00  0.00    +0.000 N 
ATOM      7  C   UNL     1       4.199   6.466  17.075  0.00  0.00    +0.000 A 
ATOM      8  C   UNL     1       5.195   6.305  16.109  0.00  0.00    +0.000 A 
ATOM      9  C   UNL     1       5.596   4.985  15.829  0.00  0.00    +0.000 A 
ATOM     10  C   UNL     1       5.023   3.881  16.478  0.00  0.00    +0.000 A 
ATOM     11  C   UNL     1       4.033   4.064  17.450  0.00  0.00    +0.000 A 
ATOM     12  C   UNL     1       3.643   5.383  17.718  0.00  0.00    +0.000 A 
ATOM     13  H   UNL     1       3.727   8.514  17.284  0.00  0.00    +0.000 HD
ENDROOT
BRANCH   5  14
ATOM     14  C   UNL     1       1.826   8.202  19.294  0.00  0.00    +0.000 A 
ATOM     15  C   UNL     1       1.536   8.050  20.659  0.00  0.00    +0.000 A 
ATOM     16  C   UNL     1       0.750   8.990  21.333  0.00  0.00    +0.000 A 
ATOM     17  C   UNL     1       0.236  10.090  20.652  0.00  0.00    +0.000 A 
ATOM     18  C   UNL     1       0.513  10.255  19.298  0.00  0.00    +0.000 A 
ATOM     19  C   UNL     1       1.308   9.321  18.629  0.00  0.00    +0.000 A 
ENDBRANCH   5  14
BRANCH   1  20
ATOM     20  N   UNL     1       2.198   2.443  17.446  0.00  0.00    +0.000 NA
ATOM     21  H   UNL     1       1.762   3.197  16.921  0.00  0.00    +0.000 HD
ATOM     22  H   UNL     1       1.497   2.081  18.089  0.00  0.00    +0.000 HD
ENDBRANCH   1  20
TORSDOF 2
ENDMDL
MODEL 4
REMARK VINA RESULT:      -7.8      1.750      3.417
REMARK  Name = 
REMARK  2 active torsions:
REMARK  status: ('A' for Active; 'I' for Inactive)
REMARK    1  A    between atoms: N_1  and  C_2
REMARK    2  A    between atoms: C_6  and  C_7
REMARK                            x       y       z     vdW  Elec       q    Type
REMARK                         _______ _______ _______ _____ _____    ______ ____
ROOT
ATOM      1  C   UNL     1       3.345   2.918  18.203  0.00  0.00    +0.000 C 
ATOM      2  C   UNL     1       2.850   3.446  19.587  0.00  0.00    +0.000 C 
ATOM      3  C   UNL     1       2.015   4.756  19.518  0.00  0.00    +0.000 C 
ATOM      4  C   UNL     1       2.712   5.782  18.680  0.00  0.00    +0.000 A 
ATOM      5  C   UNL     1       2.658   7.166  18.604  0.00  0.00    +0.000 A 
ATOM      6  N   UNL     1       3.573   7.527  17.618  0.00  0.00    +0.000 N 
ATOM      7  C   UNL     1       4.209   6.428  17.088  0.00  0.00    +0.000 A 
ATOM      8  C   UNL     1       5.198   6.274  16.116  0.00  0.00    +0.000 A 
ATOM      9  C   UNL     1       5.598   4.957  15.823  0.00  0.00    +0.000 A 
ATOM     10  C   UNL     1       5.028   3.848  16.466  0.00  0.00    +0.000 A 
ATOM     11  C   UNL     1       4.043   4.024  17.446  0.00  0.00    +0.000 A 
ATOM     12  C   UNL     1       3.656   5.340  17.726  0.00  0.00    +0.000 A 
ATOM     13  H   UNL     1       3.738   8.475  17.317  0.00  0.00    +0.000 HD
ENDROOT
BRANCH   5  14
ATOM     14  C   UNL     1       1.848   8.147  19.335  0.00  0.00    +0.000 A 
ATOM     15  C   UNL     1       1.358   9.300  18.704  0.00  0.00    +0.000 A 
ATOM     16  C   UNL     1       0.596  10.234  19.411  0.00  0.00    +0.000 A 
ATOM     17  C   UNL     1       0.319  10.034  20.761  0.00  0.00    +0.000 A 
ATOM     18  C   UNL     1       0.798   8.896  21.403  0.00  0.00    +0.000 A 
ATOM     19  C   UNL     1       1.549   7.957  20.691  0.00  0.00    +0.000 A 
ENDBRANCH   5  14
BRANCH   1  20
ATOM     20  N   UNL     1       2.208   2.403  17.439  0.00  0.00    +0.000 NA
ATOM     21  H   UNL     1       1.548   1.952  18.066  0.00  0.00    +0.000 HD
ATOM     22  H   UNL     1       2.537   1.694  16.787  0.00  0.00    +0.000 HD
ENDBRANCH   1  20
TORSDOF 2
ENDMDL
MODEL 5
REMARK VINA RESULT:      -7.8      1.596      3.241
REMARK  Name = 
REMARK  2 active torsions:
REMARK  status: ('A' for Active; 'I' for Inactive)
REMARK    1  A    between atoms: N_1  and  C_2
REMARK    2  A    between atoms: C_6  and  C_7
REMARK                            x       y       z     vdW  Elec       q    Type
REMARK                         _______ _______ _______ _____ _____    ______ ____
ROOT
ATOM      1  C   UNL     1       2.390   2.525  19.340  0.00  0.00    +0.000 C 
ATOM      2  C   UNL     1       2.043   3.275  20.665  0.00  0.00    +0.000 C 
ATOM      3  C   UNL     1       1.401   4.678  20.465  0.00  0.00    +0.000 C 
ATOM      4  C   UNL     1       2.197   5.487  19.489  0.00  0.00    +0.000 A 
ATOM      5  C   UNL     1       2.339   6.846  19.250  0.00  0.00    +0.000 A 
ATOM      6  N   UNL     1       3.248   6.952  18.200  0.00  0.00    +0.000 N 
ATOM      7  C   UNL     1       3.693   5.718  17.786  0.00  0.00    +0.000 A 
ATOM      8  C   UNL     1       4.603   5.310  16.809  0.00  0.00    +0.000 A 
ATOM      9  C   UNL     1       4.794   3.923  16.664  0.00  0.00    +0.000 A 
ATOM     10  C   UNL     1       4.103   2.991  17.453  0.00  0.00    +0.000 A 
ATOM     11  C   UNL     1       3.202   3.421  18.434  0.00  0.00    +0.000 A 
ATOM     12  C   UNL     1       3.021   4.804  18.567  0.00  0.00    +0.000 A 
ATOM     13  H   UNL     1       3.533   7.825  17.782  0.00  0.00    +0.000 HD
ENDROOT
BRANCH   5  14
ATOM     14  C   UNL     1       1.714   8.012  19.883  0.00  0.00    +0.000 A 
ATOM     15  C   UNL     1       1.372   9.149  19.135  0.00  0.00    +0.000 A 
ATOM     16  C   UNL     1       0.786  10.260  19.748  0.00  0.00    +0.000 A 
ATOM     17  C   UNL     1       0.542  10.256  21.119  0.00  0.00    +0.000 A 
ATOM     18  C   UNL     1       0.876   9.136  21.876  0.00  0.00    +0.000 A 
ATOM     19  C   UNL     1       1.450   8.022  21.259  0.00  0.00    +0.000 A 
ENDBRANCH   5  14
BRANCH   1  20
ATOM     20  N   UNL     1       1.155   2.101  18.678  0.00  0.00    +0.000 NA
ATOM     21  H   UNL     1       1.373   1.693  17.773  0.00  0.00    +0.000 HD
ATOM     22  H   UNL     1       0.570   2.916  18.507  0.00  0.00    +0.000 HD
ENDBRANCH   1  20
TORSDOF 2
ENDMDL
MODEL 6
REMARK VINA RESULT:      -7.8      1.589      3.087
REMARK  Name = 
REMARK  2 active torsions:
REMARK  status: ('A' for Active; 'I' for Inactive)
REMARK    1  A    between atoms: N_1  and  C_2
REMARK    2  A    between atoms: C_6  and  C_7
REMARK                            x       y       z     vdW  Elec       q    Type
REMARK                         _______ _______ _______ _____ _____    ______ ____
ROOT
ATOM      1  C   UNL     1       2.382   2.521  19.369  0.00  0.00    +0.000 C 
ATOM      2  C   UNL     1       2.040   3.278  20.691  0.00  0.00    +0.000 C 
ATOM      3  C   UNL     1       1.402   4.681  20.487  0.00  0.00    +0.000 C 
ATOM      4  C   UNL     1       2.198   5.484  19.506  0.00  0.00    +0.000 A 
ATOM      5  C   UNL     1       2.343   6.842  19.261  0.00  0.00    +0.000 A 
ATOM      6  N   UNL     1       3.250   6.941  18.209  0.00  0.00    +0.000 N 
ATOM      7  C   UNL     1       3.691   5.704  17.799  0.00  0.00    +0.000 A 
ATOM      8  C   UNL     1       4.597   5.289  16.822  0.00  0.00    +0.000 A 
ATOM      9  C   UNL     1       4.785   3.901  16.682  0.00  0.00    +0.000 A 
ATOM     10  C   UNL     1       4.093   2.975  17.477  0.00  0.00    +0.000 A 
ATOM     11  C   UNL     1       3.195   3.412  18.458  0.00  0.00    +0.000 A 
ATOM     12  C   UNL     1       3.019   4.795  18.585  0.00  0.00    +0.000 A 
ATOM     13  H   UNL     1       3.536   7.811  17.786  0.00  0.00    +0.000 HD
ENDROOT
BRANCH   5  14
ATOM     14  C   UNL     1       1.723   8.012  19.890  0.00  0.00    +0.000 A 
ATOM     15  C   UNL     1       1.466   8.046  21.269  0.00  0.00    +0.000 A 
ATOM     16  C   UNL     1       0.864   9.163  21.858  0.00  0.00    +0.000 A 
ATOM     17  C   UNL     1       0.504  10.258  21.077  0.00  0.00    +0.000 A 
ATOM     18  C   UNL     1       0.751  10.240  19.708  0.00  0.00    +0.000 A 
ATOM     19  C   UNL     1       1.363   9.129  19.123  0.00  0.00    +0.000 A 
ENDBRANCH   5  14
BRANCH   1  20
ATOM     20  N   UNL     1       1.145   2.097  18.711  0.00  0.00    +0.000 NA
ATOM     21  H   UNL     1       0.928   2.730  17.946  0.00  0.00    +0.000 HD
ATOM     22  H   UNL     1       0.377   2.155  19.376  0.00  0.00    +0.000 HD
ENDBRANCH   1  20
TORSDOF 2
ENDMDL
MODEL 7
REMARK VINA RESULT:      -7.6      2.049      5.999
REMARK  Name = 
REMARK  2 active torsions:
REMARK  status: ('A' for Active; 'I' for Inactive)
REMARK    1  A    between atoms: N_1  and  C_2
REMARK    2  A    between atoms: C_6  and  C_7
REMARK                            x       y       z     vdW  Elec       q    Type
REMARK                         _______ _______ _______ _____ _____    ______ ____
ROOT
ATOM      1  C   UNL     1       0.793  10.996  18.676  0.00  0.00    +0.000 C 
ATOM      2  C   UNL     1       2.023  10.446  17.887  0.00  0.00    +0.000 C 
ATOM      3  C   UNL     1       2.078   8.896  17.771  0.00  0.00    +0.000 C 
ATOM      4  C   UNL     1       1.871   8.260  19.111  0.00  0.00    +0.000 A 
ATOM      5  C   UNL     1       2.202   7.030  19.658  0.00  0.00    +0.000 A 
ATOM      6  N   UNL     1       1.735   7.060  20.969  0.00  0.00    +0.000 N 
ATOM      7  C   UNL     1       1.142   8.265  21.270  0.00  0.00    +0.000 A 
ATOM      8  C   UNL     1       0.558   8.778  22.429  0.00  0.00    +0.000 A 
ATOM      9  C   UNL     1       0.032  10.081  22.348  0.00  0.00    +0.000 A 
ATOM     10  C   UNL     1       0.083  10.830  21.162  0.00  0.00    +0.000 A 
ATOM     11  C   UNL     1       0.682  10.301  20.013  0.00  0.00    +0.000 A 
ATOM     12  C   UNL     1       1.201   9.003  20.109  0.00  0.00    +0.000 A 
ATOM     13  H   UNL     1       1.806   6.289  21.616  0.00  0.00    +0.000 HD
ENDROOT
BRANCH   5  14
ATOM     14  C   UNL     1       2.880   5.863  19.082  0.00  0.00    +0.000 A 
ATOM     15  C   UNL     1       4.165   5.489  19.502  0.00  0.00    +0.000 A 
ATOM     16  C   UNL     1       4.808   4.382  18.940  0.00  0.00    +0.000 A 
ATOM     17  C   UNL     1       4.180   3.638  17.944  0.00  0.00    +0.000 A 
ATOM     18  C   UNL     1       2.905   3.996  17.515  0.00  0.00    +0.000 A 
ATOM     19  C   UNL     1       2.260   5.096  18.087  0.00  0.00    +0.000 A 
ENDBRANCH   5  14
BRANCH   1  20
ATOM     20  N   UNL     1      -0.424  10.800  17.887  0.00  0.00    +0.000 NA
ATOM     21  H   UNL     1      -0.190  10.372  16.995  0.00  0.00    +0.000 HD
ATOM     22  H   UNL     1      -0.842  11.706  17.686  0.00  0.00    +0.000 HD
ENDBRANCH   1  20
TORSDOF 2
ENDMDL
MODEL 8
REMARK VINA RESULT:      -7.6      2.050      6.029
REMARK  Name = 
REMARK  2 active torsions:
REMARK  status: ('A' for Active; 'I' for Inactive)
REMARK    1  A    between atoms: N_1  and  C_2
REMARK    2  A    between atoms: C_6  and  C_7
REMARK                            x       y       z     vdW  Elec       q    Type
REMARK                         _______ _______ _______ _____ _____    ______ ____
ROOT
ATOM      1  C   UNL     1       0.778  11.011  18.682  0.00  0.00    +0.000 C 
ATOM      2  C   UNL     1       2.006  10.466  17.885  0.00  0.00    +0.000 C 
ATOM      3  C   UNL     1       2.064   8.916  17.766  0.00  0.00    +0.000 C 
ATOM      4  C   UNL     1       1.865   8.277  19.105  0.00  0.00    +0.000 A 
ATOM      5  C   UNL     1       2.203   7.046  19.647  0.00  0.00    +0.000 A 
ATOM      6  N   UNL     1       1.742   7.072  20.961  0.00  0.00    +0.000 N 
ATOM      7  C   UNL     1       1.148   8.275  21.267  0.00  0.00    +0.000 A 
ATOM      8  C   UNL     1       0.568   8.783  22.430  0.00  0.00    +0.000 A 
ATOM      9  C   UNL     1       0.038  10.085  22.355  0.00  0.00    +0.000 A 
ATOM     10  C   UNL     1       0.081  10.837  21.171  0.00  0.00    +0.000 A 
ATOM     11  C   UNL     1       0.676  10.312  20.018  0.00  0.00    +0.000 A 
ATOM     12  C   UNL     1       1.198   9.015  20.108  0.00  0.00    +0.000 A 
ATOM     13  H   UNL     1       1.819   6.300  21.605  0.00  0.00    +0.000 HD
ENDROOT
BRANCH   5  14
ATOM     14  C   UNL     1       2.882   5.883  19.065  0.00  0.00    +0.000 A 
ATOM     15  C   UNL     1       2.272   5.111  18.064  0.00  0.00    +0.000 A 
ATOM     16  C   UNL     1       2.922   3.998  17.522  0.00  0.00    +0.000 A 
ATOM     17  C   UNL     1       4.187   3.635  17.978  0.00  0.00    +0.000 A 
ATOM     18  C   UNL     1       4.805   4.390  18.971  0.00  0.00    +0.000 A 
ATOM     19  C   UNL     1       4.159   5.508  19.503  0.00  0.00    +0.000 A 
ENDBRANCH   5  14
BRANCH   1  20
ATOM     20  N   UNL     1      -0.443  10.813  17.898  0.00  0.00    +0.000 NA
ATOM     21  H   UNL     1      -0.372  11.318  17.019  0.00  0.00    +0.000 HD
ATOM     22  H   UNL     1      -1.233  11.204  18.407  0.00  0.00    +0.000 HD
ENDBRANCH   1  20
TORSDOF 2
ENDMDL
MODEL 9
REMARK VINA RESULT:      -7.5      1.512      1.762
REMARK  Name = 
REMARK  2 active torsions:
REMARK  status: ('A' for Active; 'I' for Inactive)
REMARK    1  A    between atoms: N_1  and  C_2
REMARK    2  A    between atoms: C_6  and  C_7
REMARK                            x       y       z     vdW  Elec       q    Type
REMARK                         _______ _______ _______ _____ _____    ______ ____
ROOT
ATOM      1  C   UNL     1       5.596   4.220  16.543  0.00  0.00    +0.000 C 
ATOM      2  C   UNL     1       5.261   5.640  15.986  0.00  0.00    +0.000 C 
ATOM      3  C   UNL     1       4.675   6.625  17.036  0.00  0.00    +0.000 C 
ATOM      4  C   UNL     1       3.557   5.982  17.796  0.00  0.00    +0.000 A 
ATOM      5  C   UNL     1       2.469   6.465  18.508  0.00  0.00    +0.000 A 
ATOM      6  N   UNL     1       1.790   5.341  18.971  0.00  0.00    +0.000 N 
ATOM      7  C   UNL     1       2.397   4.176  18.561  0.00  0.00    +0.000 A 
ATOM      8  C   UNL     1       2.092   2.826  18.742  0.00  0.00    +0.000 A 
ATOM      9  C   UNL     1       2.979   1.895  18.169  0.00  0.00    +0.000 A 
ATOM     10  C   UNL     1       4.119   2.297  17.456  0.00  0.00    +0.000 A 
ATOM     11  C   UNL     1       4.402   3.657  17.277  0.00  0.00    +0.000 A 
ATOM     12  C   UNL     1       3.510   4.571  17.854  0.00  0.00    +0.000 A 
ATOM     13  H   UNL     1       0.964   5.374  19.548  0.00  0.00    +0.000 HD
ENDROOT
BRANCH   5  14
ATOM     14  C   UNL     1       2.030   7.834  18.798  0.00  0.00    +0.000 A 
ATOM     15  C   UNL     1       1.578   8.198  20.075  0.00  0.00    +0.000 A 
ATOM     16  C   UNL     1       1.152   9.504  20.339  0.00  0.00    +0.000 A 
ATOM     17  C   UNL     1       1.164  10.462  19.329  0.00  0.00    +0.000 A 
ATOM     18  C   UNL     1       1.609  10.117  18.056  0.00  0.00    +0.000 A 
ATOM     19  C   UNL     1       2.045   8.816  17.797  0.00  0.00    +0.000 A 
ENDBRANCH   5  14
BRANCH   1  20
ATOM     20  N   UNL     1       6.759   4.302  17.429  0.00  0.00    +0.000 NA
ATOM     21  H   UNL     1       6.799   3.475  18.019  0.00  0.00    +0.000 HD
ATOM     22  H   UNL     1       6.654   5.106  18.043  0.00  0.00    +0.000 HD
ENDBRANCH   1  20
TORSDOF 2
ENDMDL
