MODEL 1
REMARK VINA RESULT:      -7.8      0.000      0.000
REMARK  Name = 
REMARK  6 active torsions:
REMARK  status: ('A' for Active; 'I' for Inactive)
REMARK    1  A    between atoms: C_2  and  C_3
REMARK    2  A    between atoms: C_3  and  C_4
REMARK    3  A    between atoms: C_4  and  N_5
REMARK    4  A    between atoms: N_8  and  C_9
REMARK    5  A    between atoms: N_22  and  N_23
REMARK    6  A    between atoms: C_24  and  C_25
REMARK                            x       y       z     vdW  Elec       q    Type
REMARK                         _______ _______ _______ _____ _____    ______ ____
ROOT
ATOM      1  N   UNL     1       4.614   6.085  18.343  0.00  0.00    +0.000 NA
ATOM      2  C   UNL     1       3.968   7.366  18.012  0.00  0.00    +0.000 C 
ATOM      3  C   UNL     1       2.431   7.298  17.982  0.00  0.00    +0.000 C 
ATOM      4  N   UNL     1       1.933   7.024  19.337  0.00  0.00    +0.000 N 
ATOM      5  C   UNL     1       2.471   5.752  19.874  0.00  0.00    +0.000 C 
ATOM      6  C   UNL     1       3.985   5.498  19.548  0.00  0.00    +0.000 C 
ENDROOT
BRANCH   4   7
ATOM      7  C   UNL     1       1.532   8.093  20.154  0.00  0.00    +0.000 A 
ATOM      8  C   UNL     1       1.689   8.008  21.550  0.00  0.00    +0.000 A 
ATOM      9  C   UNL     1       1.393   9.080  22.368  0.00  0.00    +0.000 A 
ATOM     10  N   UNL     1       0.928  10.249  21.915  0.00  0.00    +0.000 NA
ATOM     11  C   UNL     1       0.755  10.376  20.597  0.00  0.00    +0.000 A 
ATOM     12  C   UNL     1       0.289  11.608  20.176  0.00  0.00    +0.000 A 
ATOM     13  C   UNL     1       0.082  11.876  18.830  0.00  0.00    +0.000 A 
ATOM     14 CL   UNL     1      -0.514  13.416  18.346  0.00  0.00    +0.000 Cl
ATOM     15  C   UNL     1       0.367  10.912  17.878  0.00  0.00    +0.000 A 
ATOM     16  C   UNL     1       0.863   9.670  18.284  0.00  0.00    +0.000 A 
ATOM     17  C   UNL     1       1.042   9.345  19.653  0.00  0.00    +0.000 A 
ENDBRANCH   4   7
BRANCH   1  18
ATOM     18  C   UNL     1       4.759   5.167  17.194  0.00  0.00    +0.000 C 
BRANCH  18  19
ATOM     19  C   UNL     1       6.190   5.270  16.645  0.00  0.00    +0.000 C 
BRANCH  19  21
ATOM     20  O   UNL     1       7.799   5.478  18.435  0.00  0.00    +0.000 OA
ATOM     21  C   UNL     1       7.177   6.005  17.522  0.00  0.00    +0.000 C 
ATOM     22  N   UNL     1       7.280   7.337  17.106  0.00  0.00    +0.000 N 
ATOM     23  H   UNL     1       6.707   7.670  16.338  0.00  0.00    +0.000 HD
BRANCH  22  24
ATOM     24  N   UNL     1       8.153   8.190  17.707  0.00  0.00    +0.000 NA
ATOM     25  C   UNL     1       7.826   9.444  17.691  0.00  0.00    +0.000 C 
BRANCH  25  26
ATOM     26  C   UNL     1       8.680  10.478  18.327  0.00  0.00    +0.000 A 
ATOM     27  C   UNL     1       8.816  11.739  17.737  0.00  0.00    +0.000 A 
ATOM     28  C   UNL     1       9.649  12.696  18.324  0.00  0.00    +0.000 A 
ATOM     29  C   UNL     1      10.338  12.387  19.496  0.00  0.00    +0.000 A 
ATOM     30 CL   UNL     1      11.376  13.561  20.208  0.00  0.00    +0.000 Cl
ATOM     31  C   UNL     1      10.197  11.133  20.092  0.00  0.00    +0.000 A 
ATOM     32  C   UNL     1       9.364  10.173  19.508  0.00  0.00    +0.000 A 
ENDBRANCH  25  26
ENDBRANCH  22  24
ENDBRANCH  19  21
ENDBRANCH  18  19
ENDBRANCH   1  18
TORSDOF 6
ENDMDL
MODEL 2
REMARK VINA RESULT:      -7.6      3.896      9.361
REMARK  Name = 
REMARK  6 active torsions:
REMARK  status: ('A' for Active; 'I' for Inactive)
REMARK    1  A    between atoms: C_2  and  C_3
REMARK    2  A    between atoms: C_3  and  C_4
REMARK    3  A    between atoms: C_4  and  N_5
REMARK    4  A    between atoms: N_8  and  C_9
REMARK    5  A    between atoms: N_22  and  N_23
REMARK    6  A    between atoms: C_24  and  C_25
REMARK                            x       y       z     vdW  Elec       q    Type
REMARK                         _______ _______ _______ _____ _____    ______ ____
ROOT
ATOM      1  N   UNL     1       8.705  10.810  19.048  0.00  0.00    +0.000 NA
ATOM      2  C   UNL     1       9.358  11.460  20.196  0.00  0.00    +0.000 C 
ATOM      3  C   UNL     1      10.831  11.829  19.946  0.00  0.00    +0.000 C 
ATOM      4  N   UNL     1      10.900  12.864  18.906  0.00  0.00    +0.000 N 
ATOM      5  C   UNL     1      10.286  12.410  17.636  0.00  0.00    +0.000 C 
ATOM      6  C   UNL     1       8.960  11.589  17.814  0.00  0.00    +0.000 C 
ENDROOT
BRANCH   4   7
ATOM      7  C   UNL     1      10.979  14.214  19.280  0.00  0.00    +0.000 A 
ATOM      8  C   UNL     1      12.233  14.849  19.360  0.00  0.00    +0.000 A 
ATOM      9  C   UNL     1      12.333  16.200  19.630  0.00  0.00    +0.000 A 
ATOM     10  N   UNL     1      11.276  16.989  19.853  0.00  0.00    +0.000 NA
ATOM     11  C   UNL     1      10.065  16.430  19.795  0.00  0.00    +0.000 A 
ATOM     12  C   UNL     1       9.004  17.290  20.013  0.00  0.00    +0.000 A 
ATOM     13  C   UNL     1       7.692  16.840  19.966  0.00  0.00    +0.000 A 
ATOM     14 CL   UNL     1       6.400  17.937  20.259  0.00  0.00    +0.000 Cl
ATOM     15  C   UNL     1       7.424  15.515  19.669  0.00  0.00    +0.000 A 
ATOM     16  C   UNL     1       8.483  14.637  19.420  0.00  0.00    +0.000 A 
ATOM     17  C   UNL     1       9.836  15.051  19.507  0.00  0.00    +0.000 A 
ENDBRANCH   4   7
BRANCH   1  18
ATOM     18  C   UNL     1       8.965   9.359  18.945  0.00  0.00    +0.000 C 
BRANCH  18  19
ATOM     19  C   UNL     1       8.266   8.810  17.693  0.00  0.00    +0.000 C 
BRANCH  19  21
ATOM     20  O   UNL     1       7.911   6.618  18.645  0.00  0.00    +0.000 OA
ATOM     21  C   UNL     1       7.546   7.492  17.869  0.00  0.00    +0.000 C 
ATOM     22  N   UNL     1       6.414   7.457  17.048  0.00  0.00    +0.000 N 
ATOM     23  H   UNL     1       6.212   8.239  16.434  0.00  0.00    +0.000 HD
BRANCH  22  24
ATOM     24  N   UNL     1       5.567   6.393  17.073  0.00  0.00    +0.000 NA
ATOM     25  C   UNL     1       4.641   6.422  17.979  0.00  0.00    +0.000 C 
BRANCH  25  26
ATOM     26  C   UNL     1       3.640   5.334  18.105  0.00  0.00    +0.000 A 
ATOM     27  C   UNL     1       2.529   5.491  18.940  0.00  0.00    +0.000 A 
ATOM     28  C   UNL     1       1.609   4.448  19.078  0.00  0.00    +0.000 A 
ATOM     29  C   UNL     1       1.805   3.257  18.380  0.00  0.00    +0.000 A 
ATOM     30 CL   UNL     1       0.679   1.968  18.565  0.00  0.00    +0.000 Cl
ATOM     31  C   UNL     1       2.907   3.101  17.538  0.00  0.00    +0.000 A 
ATOM     32  C   UNL     1       3.829   4.143  17.396  0.00  0.00    +0.000 A 
ENDBRANCH  25  26
ENDBRANCH  22  24
ENDBRANCH  19  21
ENDBRANCH  18  19
ENDBRANCH   1  18
TORSDOF 6
ENDMDL
MODEL 3
REMARK VINA RESULT:      -7.6      3.798      8.001
REMARK  Name = 
REMARK  6 active torsions:
REMARK  status: ('A' for Active; 'I' for Inactive)
REMARK    1  A    between atoms: C_2  and  C_3
REMARK    2  A    between atoms: C_3  and  C_4
REMARK    3  A    between atoms: C_4  and  N_5
REMARK    4  A    between atoms: N_8  and  C_9
REMARK    5  A    between atoms: N_22  and  N_23
REMARK    6  A    between atoms: C_24  and  C_25
REMARK                            x       y       z     vdW  Elec       q    Type
REMARK                         _______ _______ _______ _____ _____    ______ ____
ROOT
ATOM      1  N   UNL     1       3.199   2.109  18.621  0.00  0.00    +0.000 NA
ATOM      2  C   UNL     1       3.112   3.069  17.509  0.00  0.00    +0.000 C 
ATOM      3  C   UNL     1       3.219   4.540  17.947  0.00  0.00    +0.000 C 
ATOM      4  N   UNL     1       4.564   4.787  18.485  0.00  0.00    +0.000 N 
ATOM      5  C   UNL     1       4.866   3.908  19.639  0.00  0.00    +0.000 C 
ATOM      6  C   UNL     1       4.365   2.429  19.476  0.00  0.00    +0.000 C 
ENDROOT
BRANCH   4   7
ATOM      7  C   UNL     1       5.555   5.319  17.646  0.00  0.00    +0.000 A 
ATOM      8  C   UNL     1       6.449   6.288  18.142  0.00  0.00    +0.000 A 
ATOM      9  C   UNL     1       7.493   6.756  17.368  0.00  0.00    +0.000 A 
ATOM     10  N   UNL     1       7.723   6.354  16.114  0.00  0.00    +0.000 NA
ATOM     11  C   UNL     1       6.897   5.441  15.598  0.00  0.00    +0.000 A 
ATOM     12  C   UNL     1       7.186   5.043  14.305  0.00  0.00    +0.000 A 
ATOM     13  C   UNL     1       6.415   4.088  13.657  0.00  0.00    +0.000 A 
ATOM     14 CL   UNL     1       6.796   3.632  12.043  0.00  0.00    +0.000 Cl
ATOM     15  C   UNL     1       5.350   3.495  14.313  0.00  0.00    +0.000 A 
ATOM     16  C   UNL     1       5.059   3.865  15.629  0.00  0.00    +0.000 A 
ATOM     17  C   UNL     1       5.796   4.871  16.304  0.00  0.00    +0.000 A 
ENDBRANCH   4   7
BRANCH   1  18
ATOM     18  C   UNL     1       1.925   1.901  19.341  0.00  0.00    +0.000 C 
BRANCH  18  19
ATOM     19  C   UNL     1       1.930   2.743  20.626  0.00  0.00    +0.000 C 
BRANCH  19  21
ATOM     20  O   UNL     1       0.017   4.148  20.177  0.00  0.00    +0.000 OA
ATOM     21  C   UNL     1       1.178   4.052  20.554  0.00  0.00    +0.000 C 
ATOM     22  N   UNL     1       1.995   5.093  21.007  0.00  0.00    +0.000 N 
ATOM     23  H   UNL     1       2.950   4.898  21.288  0.00  0.00    +0.000 HD
BRANCH  22  24
ATOM     24  N   UNL     1       1.521   6.366  21.092  0.00  0.00    +0.000 NA
ATOM     25  C   UNL     1       1.917   7.184  20.169  0.00  0.00    +0.000 C 
BRANCH  25  26
ATOM     26  C   UNL     1       1.461   8.596  20.133  0.00  0.00    +0.000 A 
ATOM     27  C   UNL     1       1.045   9.233  21.307  0.00  0.00    +0.000 A 
ATOM     28  C   UNL     1       0.585  10.551  21.258  0.00  0.00    +0.000 A 
ATOM     29  C   UNL     1       0.545  11.225  20.038  0.00  0.00    +0.000 A 
ATOM     30 CL   UNL     1      -0.037  12.843  19.978  0.00  0.00    +0.000 Cl
ATOM     31  C   UNL     1       0.969  10.595  18.866  0.00  0.00    +0.000 A 
ATOM     32  C   UNL     1       1.431   9.276  18.911  0.00  0.00    +0.000 A 
ENDBRANCH  25  26
ENDBRANCH  22  24
ENDBRANCH  19  21
ENDBRANCH  18  19
ENDBRANCH   1  18
TORSDOF 6
ENDMDL
MODEL 4
REMARK VINA RESULT:      -7.4      1.599      2.589
REMARK  Name = 
REMARK  6 active torsions:
REMARK  status: ('A' for Active; 'I' for Inactive)
REMARK    1  A    between atoms: C_2  and  C_3
REMARK    2  A    between atoms: C_3  and  C_4
REMARK    3  A    between atoms: C_4  and  N_5
REMARK    4  A    between atoms: N_8  and  C_9
REMARK    5  A    between atoms: N_22  and  N_23
REMARK    6  A    between atoms: C_24  and  C_25
REMARK                            x       y       z     vdW  Elec       q    Type
REMARK                         _______ _______ _______ _____ _____    ______ ____
ROOT
ATOM      1  N   UNL     1       3.785   5.164  17.348  0.00  0.00    +0.000 NA
ATOM      2  C   UNL     1       2.605   5.291  18.218  0.00  0.00    +0.000 C 
ATOM      3  C   UNL     1       2.810   6.242  19.410  0.00  0.00    +0.000 C 
ATOM      4  N   UNL     1       2.993   7.611  18.910  0.00  0.00    +0.000 N 
ATOM      5  C   UNL     1       4.153   7.713  17.994  0.00  0.00    +0.000 C 
ATOM      6  C   UNL     1       4.304   6.507  17.001  0.00  0.00    +0.000 C 
ENDROOT
BRANCH   4   7
ATOM      7  C   UNL     1       1.888   8.475  18.847  0.00  0.00    +0.000 A 
ATOM      8  C   UNL     1       1.350   8.838  17.597  0.00  0.00    +0.000 A 
ATOM      9  C   UNL     1       0.206   9.607  17.510  0.00  0.00    +0.000 A 
ATOM     10  N   UNL     1      -0.455  10.073  18.575  0.00  0.00    +0.000 NA
ATOM     11  C   UNL     1       0.022   9.762  19.782  0.00  0.00    +0.000 A 
ATOM     12  C   UNL     1      -0.705  10.251  20.852  0.00  0.00    +0.000 A 
ATOM     13  C   UNL     1      -0.327   9.987  22.161  0.00  0.00    +0.000 A 
ATOM     14 CL   UNL     1      -1.248  10.628  23.464  0.00  0.00    +0.000 Cl
ATOM     15  C   UNL     1       0.782   9.197  22.416  0.00  0.00    +0.000 A 
ATOM     16  C   UNL     1       1.513   8.672  21.347  0.00  0.00    +0.000 A 
ATOM     17  C   UNL     1       1.184   8.961  19.999  0.00  0.00    +0.000 A 
ENDBRANCH   4   7
BRANCH   1  18
ATOM     18  C   UNL     1       4.796   4.202  17.835  0.00  0.00    +0.000 C 
BRANCH  18  19
ATOM     19  C   UNL     1       6.181   4.626  17.324  0.00  0.00    +0.000 C 
BRANCH  19  21
ATOM     20  O   UNL     1       7.249   5.275  19.391  0.00  0.00    +0.000 OA
ATOM     21  C   UNL     1       6.961   5.548  18.233  0.00  0.00    +0.000 C 
ATOM     22  N   UNL     1       7.314   6.710  17.539  0.00  0.00    +0.000 N 
ATOM     23  H   UNL     1       7.012   6.835  16.579  0.00  0.00    +0.000 HD
BRANCH  22  24
ATOM     24  N   UNL     1       8.074   7.672  18.130  0.00  0.00    +0.000 NA
ATOM     25  C   UNL     1       7.847   8.890  17.752  0.00  0.00    +0.000 C 
BRANCH  25  26
ATOM     26  C   UNL     1       8.592  10.036  18.330  0.00  0.00    +0.000 A 
ATOM     27  C   UNL     1       9.324   9.877  19.511  0.00  0.00    +0.000 A 
ATOM     28  C   UNL     1       9.996  10.970  20.066  0.00  0.00    +0.000 A 
ATOM     29  C   UNL     1       9.931  12.213  19.438  0.00  0.00    +0.000 A 
ATOM     30 CL   UNL     1      10.745  13.561  20.132  0.00  0.00    +0.000 Cl
ATOM     31  C   UNL     1       9.210  12.372  18.254  0.00  0.00    +0.000 A 
ATOM     32  C   UNL     1       8.538  11.280  17.694  0.00  0.00    +0.000 A 
ENDBRANCH  25  26
ENDBRANCH  22  24
ENDBRANCH  19  21
ENDBRANCH  18  19
ENDBRANCH   1  18
TORSDOF 6
ENDMDL
MODEL 5
REMARK VINA RESULT:      -7.4      1.482      2.133
REMARK  Name = 
REMARK  6 active torsions:
REMARK  status: ('A' for Active; 'I' for Inactive)
REMARK    1  A    between atoms: C_2  and  C_3
REMARK    2  A    between atoms: C_3  and  C_4
REMARK    3  A    between atoms: C_4  and  N_5
REMARK    4  A    between atoms: N_8  and  C_9
REMARK    5  A    between atoms: N_22  and  N_23
REMARK    6  A    between atoms: C_24  and  C_25
REMARK                            x       y       z     vdW  Elec       q    Type
REMARK                         _______ _______ _______ _____ _____    ______ ____
ROOT
ATOM      1  N   UNL     1       4.914   6.229  18.135  0.00  0.00    +0.000 NA
ATOM      2  C   UNL     1       4.294   7.254  17.279  0.00  0.00    +0.000 C 
ATOM      3  C   UNL     1       2.756   7.202  17.262  0.00  0.00    +0.000 C 
ATOM      4  N   UNL     1       2.246   7.542  18.597  0.00  0.00    +0.000 N 
ATOM      5  C   UNL     1       2.757   6.615  19.634  0.00  0.00    +0.000 C 
ATOM      6  C   UNL     1       4.268   6.224  19.467  0.00  0.00    +0.000 C 
ENDROOT
BRANCH   4   7
ATOM      7  C   UNL     1       1.860   8.864  18.872  0.00  0.00    +0.000 A 
ATOM      8  C   UNL     1       2.182   9.892  17.966  0.00  0.00    +0.000 A 
ATOM      9  C   UNL     1       1.731  11.183  18.163  0.00  0.00    +0.000 A 
ATOM     10  N   UNL     1       0.988  11.555  19.212  0.00  0.00    +0.000 NA
ATOM     11  C   UNL     1       0.663  10.615  20.102  0.00  0.00    +0.000 A 
ATOM     12  C   UNL     1      -0.120  11.044  21.157  0.00  0.00    +0.000 A 
ATOM     13  C   UNL     1      -0.542  10.164  22.145  0.00  0.00    +0.000 A 
ATOM     14 CL   UNL     1      -1.502  10.739  23.451  0.00  0.00    +0.000 Cl
ATOM     15  C   UNL     1      -0.202   8.824  22.071  0.00  0.00    +0.000 A 
ATOM     16  C   UNL     1       0.567   8.367  20.996  0.00  0.00    +0.000 A 
ATOM     17  C   UNL     1       1.055   9.247  19.997  0.00  0.00    +0.000 A 
ENDBRANCH   4   7
BRANCH   1  18
ATOM     18  C   UNL     1       5.048   4.905  17.492  0.00  0.00    +0.000 C 
BRANCH  18  19
ATOM     19  C   UNL     1       6.538   4.551  17.375  0.00  0.00    +0.000 C 
BRANCH  19  21
ATOM     20  O   UNL     1       8.190   5.072  19.058  0.00  0.00    +0.000 OA
ATOM     21  C   UNL     1       7.487   5.452  18.131  0.00  0.00    +0.000 C 
ATOM     22  N   UNL     1       7.450   6.741  17.589  0.00  0.00    +0.000 N 
ATOM     23  H   UNL     1       6.819   6.948  16.822  0.00  0.00    +0.000 HD
BRANCH  22  24
ATOM     24  N   UNL     1       8.264   7.722  18.065  0.00  0.00    +0.000 NA
ATOM     25  C   UNL     1       7.874   8.939  17.854  0.00  0.00    +0.000 C 
BRANCH  25  26
ATOM     26  C   UNL     1       8.658  10.103  18.336  0.00  0.00    +0.000 A 
ATOM     27  C   UNL     1       8.653  11.304  17.618  0.00  0.00    +0.000 A 
ATOM     28  C   UNL     1       9.420  12.383  18.062  0.00  0.00    +0.000 A 
ATOM     29  C   UNL     1      10.188  12.257  19.219  0.00  0.00    +0.000 A 
ATOM     30 CL   UNL     1      11.146  13.583  19.754  0.00  0.00    +0.000 Cl
ATOM     31  C   UNL     1      10.188  11.064  19.943  0.00  0.00    +0.000 A 
ATOM     32  C   UNL     1       9.419   9.981  19.504  0.00  0.00    +0.000 A 
ENDBRANCH  25  26
ENDBRANCH  22  24
ENDBRANCH  19  21
ENDBRANCH  18  19
ENDBRANCH   1  18
TORSDOF 6
ENDMDL
MODEL 6
REMARK VINA RESULT:      -7.3      4.610      8.269
REMARK  Name = 
REMARK  6 active torsions:
REMARK  status: ('A' for Active; 'I' for Inactive)
REMARK    1  A    between atoms: C_2  and  C_3
REMARK    2  A    between atoms: C_3  and  C_4
REMARK    3  A    between atoms: C_4  and  N_5
REMARK    4  A    between atoms: N_8  and  C_9
REMARK    5  A    between atoms: N_22  and  N_23
REMARK    6  A    between atoms: C_24  and  C_25
REMARK                            x       y       z     vdW  Elec       q    Type
REMARK                         _______ _______ _______ _____ _____    ______ ____
ROOT
ATOM      1  N   UNL     1      -0.404  12.974  20.726  0.00  0.00    +0.000 NA
ATOM      2  C   UNL     1       0.967  13.179  21.221  0.00  0.00    +0.000 C 
ATOM      3  C   UNL     1       2.040  13.114  20.120  0.00  0.00    +0.000 C 
ATOM      4  N   UNL     1       1.856  14.243  19.198  0.00  0.00    +0.000 N 
ATOM      5  C   UNL     1       0.512  14.229  18.574  0.00  0.00    +0.000 C 
ATOM      6  C   UNL     1      -0.653  13.839  19.551  0.00  0.00    +0.000 C 
ENDROOT
BRANCH   4   7
ATOM      7  C   UNL     1       2.603  15.416  19.385  0.00  0.00    +0.000 A 
ATOM      8  C   UNL     1       2.038  16.507  20.073  0.00  0.00    +0.000 A 
ATOM      9  C   UNL     1       2.782  17.635  20.356  0.00  0.00    +0.000 A 
ATOM     10  N   UNL     1       4.060  17.787  19.993  0.00  0.00    +0.000 NA
ATOM     11  C   UNL     1       4.638  16.782  19.332  0.00  0.00    +0.000 A 
ATOM     12  C   UNL     1       5.965  16.979  18.995  0.00  0.00    +0.000 A 
ATOM     13  C   UNL     1       6.688  16.005  18.319  0.00  0.00    +0.000 A 
ATOM     14 CL   UNL     1       8.332  16.295  17.903  0.00  0.00    +0.000 Cl
ATOM     15  C   UNL     1       6.091  14.799  17.995  0.00  0.00    +0.000 A 
ATOM     16  C   UNL     1       4.759  14.572  18.351  0.00  0.00    +0.000 A 
ATOM     17  C   UNL     1       3.977  15.562  18.998  0.00  0.00    +0.000 A 
ENDBRANCH   4   7
BRANCH   1  18
ATOM     18  C   UNL     1      -0.781  11.554  20.558  0.00  0.00    +0.000 C 
BRANCH  18  19
ATOM     19  C   UNL     1      -1.343  11.347  19.143  0.00  0.00    +0.000 C 
BRANCH  19  21
ATOM     20  O   UNL     1      -1.164   9.723  17.365  0.00  0.00    +0.000 OA
ATOM     21  C   UNL     1      -0.639  10.305  18.305  0.00  0.00    +0.000 C 
ATOM     22  N   UNL     1       0.678  10.151  18.749  0.00  0.00    +0.000 N 
ATOM     23  H   UNL     1       1.006  10.682  19.548  0.00  0.00    +0.000 HD
BRANCH  22  24
ATOM     24  N   UNL     1       1.535   9.307  18.112  0.00  0.00    +0.000 NA
ATOM     25  C   UNL     1       1.819   8.207  18.734  0.00  0.00    +0.000 C 
BRANCH  25  26
ATOM     26  C   UNL     1       2.726   7.191  18.144  0.00  0.00    +0.000 A 
ATOM     27  C   UNL     1       3.852   7.589  17.415  0.00  0.00    +0.000 A 
ATOM     28  C   UNL     1       4.681   6.626  16.834  0.00  0.00    +0.000 A 
ATOM     29  C   UNL     1       4.381   5.273  16.986  0.00  0.00    +0.000 A 
ATOM     30 CL   UNL     1       5.394   4.089  16.256  0.00  0.00    +0.000 Cl
ATOM     31  C   UNL     1       3.264   4.872  17.721  0.00  0.00    +0.000 A 
ATOM     32  C   UNL     1       2.432   5.833  18.305  0.00  0.00    +0.000 A 
ENDBRANCH  25  26
ENDBRANCH  22  24
ENDBRANCH  19  21
ENDBRANCH  18  19
ENDBRANCH   1  18
TORSDOF 6
ENDMDL
MODEL 7
REMARK VINA RESULT:      -7.1      3.889      8.096
REMARK  Name = 
REMARK  6 active torsions:
REMARK  status: ('A' for Active; 'I' for Inactive)
REMARK    1  A    between atoms: C_2  and  C_3
REMARK    2  A    between atoms: C_3  and  C_4
REMARK    3  A    between atoms: C_4  and  N_5
REMARK    4  A    between atoms: N_8  and  C_9
REMARK    5  A    between atoms: N_22  and  N_23
REMARK    6  A    between atoms: C_24  and  C_25
REMARK                            x       y       z     vdW  Elec       q    Type
REMARK                         _______ _______ _______ _____ _____    ______ ____
ROOT
ATOM      1  N   UNL     1       2.697   2.336  17.845  0.00  0.00    +0.000 NA
ATOM      2  C   UNL     1       2.703   3.600  17.090  0.00  0.00    +0.000 C 
ATOM      3  C   UNL     1       3.134   4.819  17.923  0.00  0.00    +0.000 C 
ATOM      4  N   UNL     1       4.542   4.667  18.311  0.00  0.00    +0.000 N 
ATOM      5  C   UNL     1       4.766   3.431  19.097  0.00  0.00    +0.000 C 
ATOM      6  C   UNL     1       3.973   2.179  18.579  0.00  0.00    +0.000 C 
ENDROOT
BRANCH   4   7
ATOM      7  C   UNL     1       5.541   5.272  17.532  0.00  0.00    +0.000 A 
ATOM      8  C   UNL     1       6.361   6.270  18.094  0.00  0.00    +0.000 A 
ATOM      9  C   UNL     1       7.413   6.812  17.383  0.00  0.00    +0.000 A 
ATOM     10  N   UNL     1       7.719   6.458  16.130  0.00  0.00    +0.000 NA
ATOM     11  C   UNL     1       6.964   5.521  15.552  0.00  0.00    +0.000 A 
ATOM     12  C   UNL     1       7.331   5.176  14.264  0.00  0.00    +0.000 A 
ATOM     13  C   UNL     1       6.639   4.203  13.555  0.00  0.00    +0.000 A 
ATOM     14 CL   UNL     1       7.115   3.814  11.948  0.00  0.00    +0.000 Cl
ATOM     15  C   UNL     1       5.578   3.538  14.145  0.00  0.00    +0.000 A 
ATOM     16  C   UNL     1       5.211   3.855  15.456  0.00  0.00    +0.000 A 
ATOM     17  C   UNL     1       5.864   4.876  16.192  0.00  0.00    +0.000 A 
ENDBRANCH   4   7
BRANCH   1  18
ATOM     18  C   UNL     1       1.475   2.116  18.647  0.00  0.00    +0.000 C 
BRANCH  18  19
ATOM     19  C   UNL     1       1.705   2.646  20.070  0.00  0.00    +0.000 C 
BRANCH  19  21
ATOM     20  O   UNL     1      -0.142   4.192  20.252  0.00  0.00    +0.000 OA
ATOM     21  C   UNL     1       1.055   3.973  20.388  0.00  0.00    +0.000 C 
ATOM     22  N   UNL     1       2.014   4.865  20.878  0.00  0.00    +0.000 N 
ATOM     23  H   UNL     1       2.985   4.577  20.940  0.00  0.00    +0.000 HD
BRANCH  22  24
ATOM     24  N   UNL     1       1.660   6.112  21.291  0.00  0.00    +0.000 NA
ATOM     25  C   UNL     1       1.518   7.001  20.360  0.00  0.00    +0.000 C 
BRANCH  25  26
ATOM     26  C   UNL     1       1.117   8.396  20.670  0.00  0.00    +0.000 A 
ATOM     27  C   UNL     1       1.242   9.398  19.702  0.00  0.00    +0.000 A 
ATOM     28  C   UNL     1       0.894  10.715  20.013  0.00  0.00    +0.000 A 
ATOM     29  C   UNL     1       0.422  11.022  21.289  0.00  0.00    +0.000 A 
ATOM     30 CL   UNL     1       0.009  12.647  21.675  0.00  0.00    +0.000 Cl
ATOM     31  C   UNL     1       0.286  10.022  22.254  0.00  0.00    +0.000 A 
ATOM     32  C   UNL     1       0.632   8.703  21.946  0.00  0.00    +0.000 A 
ENDBRANCH  25  26
ENDBRANCH  22  24
ENDBRANCH  19  21
ENDBRANCH  18  19
ENDBRANCH   1  18
TORSDOF 6
ENDMDL
MODEL 8
REMARK VINA RESULT:      -7.0      4.336      7.734
REMARK  Name = 
REMARK  6 active torsions:
REMARK  status: ('A' for Active; 'I' for Inactive)
REMARK    1  A    between atoms: C_2  and  C_3
REMARK    2  A    between atoms: C_3  and  C_4
REMARK    3  A    between atoms: C_4  and  N_5
REMARK    4  A    between atoms: N_8  and  C_9
REMARK    5  A    between atoms: N_22  and  N_23
REMARK    6  A    between atoms: C_24  and  C_25
REMARK                            x       y       z     vdW  Elec       q    Type
REMARK                         _______ _______ _______ _____ _____    ______ ____
ROOT
ATOM      1  N   UNL     1      -0.839  12.577  20.465  0.00  0.00    +0.000 NA
ATOM      2  C   UNL     1       0.341  13.036  21.217  0.00  0.00    +0.000 C 
ATOM      3  C   UNL     1       1.658  12.935  20.428  0.00  0.00    +0.000 C 
ATOM      4  N   UNL     1       1.614  13.866  19.292  0.00  0.00    +0.000 N 
ATOM      5  C   UNL     1       0.477  13.577  18.387  0.00  0.00    +0.000 C 
ATOM      6  C   UNL     1      -0.858  13.201  19.123  0.00  0.00    +0.000 C 
ENDROOT
BRANCH   4   7
ATOM      7  C   UNL     1       2.186  15.141  19.423  0.00  0.00    +0.000 A 
ATOM      8  C   UNL     1       1.433  16.195  19.977  0.00  0.00    +0.000 A 
ATOM      9  C   UNL     1       2.001  17.432  20.207  0.00  0.00    +0.000 A 
ATOM     10  N   UNL     1       3.272  17.729  19.913  0.00  0.00    +0.000 NA
ATOM     11  C   UNL     1       4.023  16.763  19.379  0.00  0.00    +0.000 A 
ATOM     12  C   UNL     1       5.334  17.113  19.110  0.00  0.00    +0.000 A 
ATOM     13  C   UNL     1       6.226  16.197  18.568  0.00  0.00    +0.000 A 
ATOM     14 CL   UNL     1       7.844  16.675  18.232  0.00  0.00    +0.000 Cl
ATOM     15  C   UNL     1       5.818  14.899  18.313  0.00  0.00    +0.000 A 
ATOM     16  C   UNL     1       4.504  14.521  18.604  0.00  0.00    +0.000 A 
ATOM     17  C   UNL     1       3.554  15.443  19.112  0.00  0.00    +0.000 A 
ENDBRANCH   4   7
BRANCH   1  18
ATOM     18  C   UNL     1      -1.037  11.113  20.485  0.00  0.00    +0.000 C 
BRANCH  18  19
ATOM     19  C   UNL     1      -0.604  10.529  19.131  0.00  0.00    +0.000 C 
BRANCH  19  21
ATOM     20  O   UNL     1       1.298   9.431  20.138  0.00  0.00    +0.000 OA
ATOM     21  C   UNL     1       0.723   9.805  19.124  0.00  0.00    +0.000 C 
ATOM     22  N   UNL     1       1.150   9.612  17.807  0.00  0.00    +0.000 N 
ATOM     23  H   UNL     1       0.595   9.974  17.039  0.00  0.00    +0.000 HD
BRANCH  22  24
ATOM     24  N   UNL     1       2.296   8.928  17.538  0.00  0.00    +0.000 NA
ATOM     25  C   UNL     1       2.388   7.745  18.056  0.00  0.00    +0.000 C 
BRANCH  25  26
ATOM     26  C   UNL     1       3.576   6.885  17.827  0.00  0.00    +0.000 A 
ATOM     27  C   UNL     1       3.862   5.830  18.700  0.00  0.00    +0.000 A 
ATOM     28  C   UNL     1       5.000   5.046  18.496  0.00  0.00    +0.000 A 
ATOM     29  C   UNL     1       5.845   5.322  17.421  0.00  0.00    +0.000 A 
ATOM     30 CL   UNL     1       7.256   4.366  17.181  0.00  0.00    +0.000 Cl
ATOM     31  C   UNL     1       5.557   6.367  16.542  0.00  0.00    +0.000 A 
ATOM     32  C   UNL     1       4.417   7.153  16.742  0.00  0.00    +0.000 A 
ENDBRANCH  25  26
ENDBRANCH  22  24
ENDBRANCH  19  21
ENDBRANCH  18  19
ENDBRANCH   1  18
TORSDOF 6
ENDMDL
MODEL 9
REMARK VINA RESULT:      -6.9      5.021     10.368
REMARK  Name = 
REMARK  6 active torsions:
REMARK  status: ('A' for Active; 'I' for Inactive)
REMARK    1  A    between atoms: C_2  and  C_3
REMARK    2  A    between atoms: C_3  and  C_4
REMARK    3  A    between atoms: C_4  and  N_5
REMARK    4  A    between atoms: N_8  and  C_9
REMARK    5  A    between atoms: N_22  and  N_23
REMARK    6  A    between atoms: C_24  and  C_25
REMARK                            x       y       z     vdW  Elec       q    Type
REMARK                         _______ _______ _______ _____ _____    ______ ____
ROOT
ATOM      1  N   UNL     1       0.284   9.683  19.211  0.00  0.00    +0.000 NA
ATOM      2  C   UNL     1       0.936   9.147  18.004  0.00  0.00    +0.000 C 
ATOM      3  C   UNL     1       2.418   8.785  18.208  0.00  0.00    +0.000 C 
ATOM      4  N   UNL     1       2.517   7.666  19.154  0.00  0.00    +0.000 N 
ATOM      5  C   UNL     1       1.908   7.997  20.464  0.00  0.00    +0.000 C 
ATOM      6  C   UNL     1       0.566   8.806  20.370  0.00  0.00    +0.000 C 
ENDROOT
BRANCH   4   7
ATOM      7  C   UNL     1       2.615   6.354  18.663  0.00  0.00    +0.000 A 
ATOM      8  C   UNL     1       1.630   5.405  18.996  0.00  0.00    +0.000 A 
ATOM      9  C   UNL     1       1.649   4.136  18.450  0.00  0.00    +0.000 A 
ATOM     10  N   UNL     1       2.589   3.712  17.599  0.00  0.00    +0.000 NA
ATOM     11  C   UNL     1       3.549   4.576  17.259  0.00  0.00    +0.000 A 
ATOM     12  C   UNL     1       4.487   4.097  16.363  0.00  0.00    +0.000 A 
ATOM     13  C   UNL     1       5.529   4.898  15.915  0.00  0.00    +0.000 A 
ATOM     14 CL   UNL     1       6.685   4.260  14.813  0.00  0.00    +0.000 Cl
ATOM     15  C   UNL     1       5.628   6.211  16.344  0.00  0.00    +0.000 A 
ATOM     16  C   UNL     1       4.673   6.719  17.229  0.00  0.00    +0.000 A 
ATOM     17  C   UNL     1       3.625   5.916  17.744  0.00  0.00    +0.000 A 
ENDBRANCH   4   7
BRANCH   1  18
ATOM     18  C   UNL     1       0.520  11.125  19.436  0.00  0.00    +0.000 C 
BRANCH  18  19
ATOM     19  C   UNL     1       0.723  11.373  20.939  0.00  0.00    +0.000 C 
BRANCH  19  21
ATOM     20  O   UNL     1      -0.544  11.923  22.920  0.00  0.00    +0.000 OA
ATOM     21  C   UNL     1      -0.507  11.808  21.702  0.00  0.00    +0.000 C 
ATOM     22  N   UNL     1      -1.549  12.079  20.809  0.00  0.00    +0.000 N 
ATOM     23  H   UNL     1      -1.408  11.939  19.814  0.00  0.00    +0.000 HD
BRANCH  22  24
ATOM     24  N   UNL     1      -2.746  12.545  21.255  0.00  0.00    +0.000 NA
ATOM     25  C   UNL     1      -2.820  13.822  21.459  0.00  0.00    +0.000 C 
BRANCH  25  26
ATOM     26  C   UNL     1      -4.073  14.464  21.928  0.00  0.00    +0.000 A 
ATOM     27  C   UNL     1      -5.182  14.550  21.079  0.00  0.00    +0.000 A 
ATOM     28  C   UNL     1      -6.347  15.185  21.517  0.00  0.00    +0.000 A 
ATOM     29  C   UNL     1      -6.396  15.731  22.799  0.00  0.00    +0.000 A 
ATOM     30 CL   UNL     1      -7.826  16.529  23.330  0.00  0.00    +0.000 Cl
ATOM     31  C   UNL     1      -5.295  15.639  23.652  0.00  0.00    +0.000 A 
ATOM     32  C   UNL     1      -4.128  15.002  23.218  0.00  0.00    +0.000 A 
ENDBRANCH  25  26
ENDBRANCH  22  24
ENDBRANCH  19  21
ENDBRANCH  18  19
ENDBRANCH   1  18
TORSDOF 6
ENDMDL
