MODEL 1
REMARK VINA RESULT:      -8.7      0.000      0.000
REMARK  Name = 
REMARK  1 active torsions:
REMARK  status: ('A' for Active; 'I' for Inactive)
REMARK    1  A    between atoms: C_8  and  C_10
REMARK                            x       y       z     vdW  Elec       q    Type
REMARK                         _______ _______ _______ _____ _____    ______ ____
ROOT
ATOM      1  O   UNL     1       5.703   4.161  19.675  0.00  0.00    +0.000 OA
ATOM      2  C   UNL     1       4.742   4.582  19.036  0.00  0.00    +0.000 C 
ATOM      3  C   UNL     1       4.749   5.922  18.345  0.00  0.00    +0.000 C 
ATOM      4  C   UNL     1       3.339   6.514  18.373  0.00  0.00    +0.000 C 
ATOM      5  C   UNL     1       2.907   6.821  19.818  0.00  0.00    +0.000 C 
ATOM      6  C   UNL     1       1.543   7.475  19.848  0.00  0.00    +0.000 C 
ATOM      7  N   UNL     1       1.522   8.706  19.068  0.00  0.00    +0.000 N 
ATOM      8  C   UNL     1       1.073   9.955  19.497  0.00  0.00    +0.000 C 
ATOM      9  O   UNL     1       1.188  10.973  18.816  0.00  0.00    +0.000 OA
ATOM     10  C   UNL     1       1.954   8.548  17.673  0.00  0.00    +0.000 C 
ATOM     11  C   UNL     1       3.311   7.836  17.573  0.00  0.00    +0.000 C 
ATOM     12  O   UNL     1       2.407   5.617  17.734  0.00  0.00    +0.000 OA
ATOM     13  C   UNL     1       2.432   4.329  18.202  0.00  0.00    +0.000 A 
ATOM     14  C   UNL     1       1.282   3.568  17.997  0.00  0.00    +0.000 A 
ATOM     15  C   UNL     1       1.212   2.264  18.493  0.00  0.00    +0.000 A 
ATOM     16  C   UNL     1       2.293   1.719  19.187  0.00  0.00    +0.000 A 
ATOM     17  C   UNL     1       3.453   2.471  19.377  0.00  0.00    +0.000 A 
ATOM     18  C   UNL     1       3.523   3.770  18.868  0.00  0.00    +0.000 A 
ENDROOT
BRANCH   8  19
ATOM     19  C   UNL     1       0.426  10.116  20.835  0.00  0.00    +0.000 A 
ATOM     20  C   UNL     1       0.743   9.305  21.931  0.00  0.00    +0.000 A 
ATOM     21  C   UNL     1       0.167   9.524  23.179  0.00  0.00    +0.000 A 
ATOM     22  C   UNL     1      -0.826  10.491  23.315  0.00  0.00    +0.000 A 
ATOM     23  C   UNL     1      -1.223  11.235  22.208  0.00  0.00    +0.000 A 
ATOM     24 CL   UNL     1      -2.513  12.362  22.367  0.00  0.00    +0.000 Cl
ATOM     25  C   UNL     1      -0.593  11.071  20.971  0.00  0.00    +0.000 A 
ENDBRANCH   8  19
TORSDOF 1
ENDMDL
MODEL 2
REMARK VINA RESULT:      -8.5      5.604      8.688
REMARK  Name = 
REMARK  1 active torsions:
REMARK  status: ('A' for Active; 'I' for Inactive)
REMARK    1  A    between atoms: C_8  and  C_10
REMARK                            x       y       z     vdW  Elec       q    Type
REMARK                         _______ _______ _______ _____ _____    ______ ____
ROOT
ATOM      1  O   UNL     1       1.898   6.872  19.458  0.00  0.00    +0.000 OA
ATOM      2  C   UNL     1       2.934   6.222  19.357  0.00  0.00    +0.000 C 
ATOM      3  C   UNL     1       4.206   6.800  18.789  0.00  0.00    +0.000 C 
ATOM      4  C   UNL     1       4.975   5.704  18.050  0.00  0.00    +0.000 C 
ATOM      5  C   UNL     1       4.184   5.219  16.822  0.00  0.00    +0.000 C 
ATOM      6  C   UNL     1       4.971   4.188  16.044  0.00  0.00    +0.000 C 
ATOM      7  N   UNL     1       6.259   4.714  15.609  0.00  0.00    +0.000 N 
ATOM      8  C   UNL     1       6.774   4.686  14.312  0.00  0.00    +0.000 C 
ATOM      9  O   UNL     1       7.823   5.249  14.001  0.00  0.00    +0.000 OA
ATOM     10  C   UNL     1       7.095   5.246  16.693  0.00  0.00    +0.000 C 
ATOM     11  C   UNL     1       6.331   6.260  17.557  0.00  0.00    +0.000 C 
ATOM     12  O   UNL     1       5.268   4.610  18.942  0.00  0.00    +0.000 OA
ATOM     13  C   UNL     1       4.186   4.110  19.618  0.00  0.00    +0.000 A 
ATOM     14  C   UNL     1       4.295   2.803  20.091  0.00  0.00    +0.000 A 
ATOM     15  C   UNL     1       3.214   2.206  20.743  0.00  0.00    +0.000 A 
ATOM     16  C   UNL     1       2.026   2.916  20.926  0.00  0.00    +0.000 A 
ATOM     17  C   UNL     1       1.921   4.231  20.471  0.00  0.00    +0.000 A 
ATOM     18  C   UNL     1       3.009   4.828  19.832  0.00  0.00    +0.000 A 
ENDROOT
BRANCH   8  19
ATOM     19  C   UNL     1       6.053   3.965  13.219  0.00  0.00    +0.000 A 
ATOM     20  C   UNL     1       4.740   4.274  12.846  0.00  0.00    +0.000 A 
ATOM     21  C   UNL     1       4.122   3.624  11.781  0.00  0.00    +0.000 A 
ATOM     22  C   UNL     1       4.777   2.569  11.150  0.00  0.00    +0.000 A 
ATOM     23  C   UNL     1       6.044   2.185  11.580  0.00  0.00    +0.000 A 
ATOM     24 CL   UNL     1       6.803   0.823  10.854  0.00  0.00    +0.000 Cl
ATOM     25  C   UNL     1       6.698   2.885  12.597  0.00  0.00    +0.000 A 
ENDBRANCH   8  19
TORSDOF 1
ENDMDL
MODEL 3
REMARK VINA RESULT:      -8.4      5.447      8.729
REMARK  Name = 
REMARK  1 active torsions:
REMARK  status: ('A' for Active; 'I' for Inactive)
REMARK    1  A    between atoms: C_8  and  C_10
REMARK                            x       y       z     vdW  Elec       q    Type
REMARK                         _______ _______ _______ _____ _____    ______ ____
ROOT
ATOM      1  O   UNL     1       1.700   6.435  18.648  0.00  0.00    +0.000 OA
ATOM      2  C   UNL     1       2.846   5.994  18.642  0.00  0.00    +0.000 C 
ATOM      3  C   UNL     1       4.006   6.751  18.045  0.00  0.00    +0.000 C 
ATOM      4  C   UNL     1       5.004   5.760  17.446  0.00  0.00    +0.000 C 
ATOM      5  C   UNL     1       4.377   5.007  16.259  0.00  0.00    +0.000 C 
ATOM      6  C   UNL     1       5.381   4.078  15.614  0.00  0.00    +0.000 C 
ATOM      7  N   UNL     1       6.562   4.800  15.156  0.00  0.00    +0.000 N 
ATOM      8  C   UNL     1       7.128   4.745  13.882  0.00  0.00    +0.000 C 
ATOM      9  O   UNL     1       8.062   5.468  13.538  0.00  0.00    +0.000 OA
ATOM     10  C   UNL     1       7.230   5.593  16.196  0.00  0.00    +0.000 C 
ATOM     11  C   UNL     1       6.247   6.518  16.929  0.00  0.00    +0.000 C 
ATOM     12  O   UNL     1       5.463   4.839  18.457  0.00  0.00    +0.000 OA
ATOM     13  C   UNL     1       4.469   4.207  19.157  0.00  0.00    +0.000 A 
ATOM     14  C   UNL     1       4.808   3.001  19.770  0.00  0.00    +0.000 A 
ATOM     15  C   UNL     1       3.835   2.271  20.456  0.00  0.00    +0.000 A 
ATOM     16  C   UNL     1       2.525   2.749  20.534  0.00  0.00    +0.000 A 
ATOM     17  C   UNL     1       2.188   3.965  19.939  0.00  0.00    +0.000 A 
ATOM     18  C   UNL     1       3.168   4.697  19.265  0.00  0.00    +0.000 A 
ENDROOT
BRANCH   8  19
ATOM     19  C   UNL     1       6.609   3.789  12.856  0.00  0.00    +0.000 A 
ATOM     20  C   UNL     1       7.432   2.875  12.188  0.00  0.00    +0.000 A 
ATOM     21  C   UNL     1       6.904   1.957  11.285  0.00  0.00    +0.000 A 
ATOM     22  C   UNL     1       5.553   2.023  10.953  0.00  0.00    +0.000 A 
ATOM     23  C   UNL     1       4.744   2.994  11.535  0.00  0.00    +0.000 A 
ATOM     24 CL   UNL     1       3.099   3.124  11.049  0.00  0.00    +0.000 Cl
ATOM     25  C   UNL     1       5.254   3.868  12.500  0.00  0.00    +0.000 A 
ENDBRANCH   8  19
TORSDOF 1
ENDMDL
MODEL 4
REMARK VINA RESULT:      -8.4      2.232      3.760
REMARK  Name = 
REMARK  1 active torsions:
REMARK  status: ('A' for Active; 'I' for Inactive)
REMARK    1  A    between atoms: C_8  and  C_10
REMARK                            x       y       z     vdW  Elec       q    Type
REMARK                         _______ _______ _______ _____ _____    ______ ____
ROOT
ATOM      1  O   UNL     1       2.433   3.347  16.441  0.00  0.00    +0.000 OA
ATOM      2  C   UNL     1       2.894   4.033  17.349  0.00  0.00    +0.000 C 
ATOM      3  C   UNL     1       2.192   4.213  18.671  0.00  0.00    +0.000 C 
ATOM      4  C   UNL     1       2.481   5.615  19.211  0.00  0.00    +0.000 C 
ATOM      5  C   UNL     1       1.869   6.688  18.294  0.00  0.00    +0.000 C 
ATOM      6  C   UNL     1       2.086   8.073  18.860  0.00  0.00    +0.000 C 
ATOM      7  N   UNL     1       1.517   8.201  20.196  0.00  0.00    +0.000 N 
ATOM      8  C   UNL     1       0.647   9.199  20.637  0.00  0.00    +0.000 C 
ATOM      9  O   UNL     1       0.121   9.179  21.749  0.00  0.00    +0.000 OA
ATOM     10  C   UNL     1       1.997   7.202  21.159  0.00  0.00    +0.000 C 
ATOM     11  C   UNL     1       1.855   5.772  20.616  0.00  0.00    +0.000 C 
ATOM     12  O   UNL     1       3.902   5.810  19.359  0.00  0.00    +0.000 OA
ATOM     13  C   UNL     1       4.644   5.529  18.242  0.00  0.00    +0.000 A 
ATOM     14  C   UNL     1       5.896   6.137  18.154  0.00  0.00    +0.000 A 
ATOM     15  C   UNL     1       6.687   5.940  17.021  0.00  0.00    +0.000 A 
ATOM     16  C   UNL     1       6.231   5.132  15.978  0.00  0.00    +0.000 A 
ATOM     17  C   UNL     1       4.987   4.507  16.072  0.00  0.00    +0.000 A 
ATOM     18  C   UNL     1       4.205   4.695  17.213  0.00  0.00    +0.000 A 
ENDROOT
BRANCH   8  19
ATOM     19  C   UNL     1       0.300  10.355  19.755  0.00  0.00    +0.000 A 
ATOM     20  C   UNL     1       1.083  11.513  19.683  0.00  0.00    +0.000 A 
ATOM     21  C   UNL     1       0.765  12.544  18.804  0.00  0.00    +0.000 A 
ATOM     22  C   UNL     1      -0.415  12.475  18.066  0.00  0.00    +0.000 A 
ATOM     23  C   UNL     1      -1.254  11.373  18.205  0.00  0.00    +0.000 A 
ATOM     24 CL   UNL     1      -2.751  11.342  17.358  0.00  0.00    +0.000 Cl
ATOM     25  C   UNL     1      -0.899  10.302  19.028  0.00  0.00    +0.000 A 
ENDBRANCH   8  19
TORSDOF 1
ENDMDL
MODEL 5
REMARK VINA RESULT:      -8.3      2.315      3.837
REMARK  Name = 
REMARK  1 active torsions:
REMARK  status: ('A' for Active; 'I' for Inactive)
REMARK    1  A    between atoms: C_8  and  C_10
REMARK                            x       y       z     vdW  Elec       q    Type
REMARK                         _______ _______ _______ _____ _____    ______ ____
ROOT
ATOM      1  O   UNL     1       2.381   3.290  16.553  0.00  0.00    +0.000 OA
ATOM      2  C   UNL     1       2.855   4.014  17.424  0.00  0.00    +0.000 C 
ATOM      3  C   UNL     1       2.188   4.224  18.759  0.00  0.00    +0.000 C 
ATOM      4  C   UNL     1       2.465   5.648  19.246  0.00  0.00    +0.000 C 
ATOM      5  C   UNL     1       1.804   6.679  18.313  0.00  0.00    +0.000 C 
ATOM      6  C   UNL     1       2.010   8.086  18.828  0.00  0.00    +0.000 C 
ATOM      7  N   UNL     1       1.478   8.246  20.176  0.00  0.00    +0.000 N 
ATOM      8  C   UNL     1       0.601   9.240  20.610  0.00  0.00    +0.000 C 
ATOM      9  O   UNL     1       0.109   9.247  21.738  0.00  0.00    +0.000 OA
ATOM     10  C   UNL     1       2.007   7.288  21.155  0.00  0.00    +0.000 C 
ATOM     11  C   UNL     1       1.877   5.839  20.663  0.00  0.00    +0.000 C 
ATOM     12  O   UNL     1       3.885   5.875  19.345  0.00  0.00    +0.000 OA
ATOM     13  C   UNL     1       4.599   5.572  18.216  0.00  0.00    +0.000 A 
ATOM     14  C   UNL     1       5.835   6.201  18.070  0.00  0.00    +0.000 A 
ATOM     15  C   UNL     1       6.597   5.982  16.920  0.00  0.00    +0.000 A 
ATOM     16  C   UNL     1       6.126   5.132  15.918  0.00  0.00    +0.000 A 
ATOM     17  C   UNL     1       4.899   4.486  16.069  0.00  0.00    +0.000 A 
ATOM     18  C   UNL     1       4.147   4.697  17.227  0.00  0.00    +0.000 A 
ENDROOT
BRANCH   8  19
ATOM     19  C   UNL     1       0.206  10.361  19.702  0.00  0.00    +0.000 A 
ATOM     20  C   UNL     1      -0.943  10.319  18.904  0.00  0.00    +0.000 A 
ATOM     21  C   UNL     1      -1.314  11.406  18.118  0.00  0.00    +0.000 A 
ATOM     22  C   UNL     1      -0.469  12.511  18.035  0.00  0.00    +0.000 A 
ATOM     23  C   UNL     1       0.727  12.522  18.746  0.00  0.00    +0.000 A 
ATOM     24 CL   UNL     1       1.804  13.850  18.563  0.00  0.00    +0.000 Cl
ATOM     25  C   UNL     1       1.066  11.465  19.595  0.00  0.00    +0.000 A 
ENDBRANCH   8  19
TORSDOF 1
ENDMDL
MODEL 6
REMARK VINA RESULT:      -8.0      2.199      3.748
REMARK  Name = 
REMARK  1 active torsions:
REMARK  status: ('A' for Active; 'I' for Inactive)
REMARK    1  A    between atoms: C_8  and  C_10
REMARK                            x       y       z     vdW  Elec       q    Type
REMARK                         _______ _______ _______ _____ _____    ______ ____
ROOT
ATOM      1  O   UNL     1       3.224   3.408  16.158  0.00  0.00    +0.000 OA
ATOM      2  C   UNL     1       3.432   3.865  17.279  0.00  0.00    +0.000 C 
ATOM      3  C   UNL     1       2.384   3.869  18.363  0.00  0.00    +0.000 C 
ATOM      4  C   UNL     1       2.565   5.111  19.238  0.00  0.00    +0.000 C 
ATOM      5  C   UNL     1       2.293   6.391  18.427  0.00  0.00    +0.000 C 
ATOM      6  C   UNL     1       2.397   7.619  19.303  0.00  0.00    +0.000 C 
ATOM      7  N   UNL     1       1.471   7.556  20.427  0.00  0.00    +0.000 N 
ATOM      8  C   UNL     1       0.555   8.537  20.805  0.00  0.00    +0.000 C 
ATOM      9  O   UNL     1      -0.272   8.366  21.701  0.00  0.00    +0.000 OA
ATOM     10  C   UNL     1       1.606   6.353  21.258  0.00  0.00    +0.000 C 
ATOM     11  C   UNL     1       1.566   5.069  20.416  0.00  0.00    +0.000 C 
ATOM     12  O   UNL     1       3.889   5.132  19.809  0.00  0.00    +0.000 OA
ATOM     13  C   UNL     1       4.910   4.987  18.907  0.00  0.00    +0.000 A 
ATOM     14  C   UNL     1       6.159   5.472  19.294  0.00  0.00    +0.000 A 
ATOM     15  C   UNL     1       7.236   5.409  18.408  0.00  0.00    +0.000 A 
ATOM     16  C   UNL     1       7.067   4.857  17.137  0.00  0.00    +0.000 A 
ATOM     17  C   UNL     1       5.824   4.353  16.754  0.00  0.00    +0.000 A 
ATOM     18  C   UNL     1       4.753   4.406  17.648  0.00  0.00    +0.000 A 
ENDROOT
BRANCH   8  19
ATOM     19  C   UNL     1       0.530   9.865  20.119  0.00  0.00    +0.000 A 
ATOM     20  C   UNL     1      -0.102  10.069  18.887  0.00  0.00    +0.000 A 
ATOM     21  C   UNL     1      -0.159  11.333  18.308  0.00  0.00    +0.000 A 
ATOM     22  C   UNL     1       0.522  12.392  18.904  0.00  0.00    +0.000 A 
ATOM     23  C   UNL     1       1.240  12.178  20.077  0.00  0.00    +0.000 A 
ATOM     24 CL   UNL     1       2.152  13.470  20.754  0.00  0.00    +0.000 Cl
ATOM     25  C   UNL     1       1.236  10.929  20.702  0.00  0.00    +0.000 A 
ENDBRANCH   8  19
TORSDOF 1
ENDMDL
MODEL 7
REMARK VINA RESULT:      -7.4      1.041      1.419
REMARK  Name = 
REMARK  1 active torsions:
REMARK  status: ('A' for Active; 'I' for Inactive)
REMARK    1  A    between atoms: C_8  and  C_10
REMARK                            x       y       z     vdW  Elec       q    Type
REMARK                         _______ _______ _______ _____ _____    ______ ____
ROOT
ATOM      1  O   UNL     1       5.405   4.236  20.072  0.00  0.00    +0.000 OA
ATOM      2  C   UNL     1       4.517   4.655  19.336  0.00  0.00    +0.000 C 
ATOM      3  C   UNL     1       4.638   5.946  18.566  0.00  0.00    +0.000 C 
ATOM      4  C   UNL     1       3.260   6.599  18.448  0.00  0.00    +0.000 C 
ATOM      5  C   UNL     1       2.736   7.017  19.833  0.00  0.00    +0.000 C 
ATOM      6  C   UNL     1       1.407   7.729  19.717  0.00  0.00    +0.000 C 
ATOM      7  N   UNL     1       1.503   8.907  18.863  0.00  0.00    +0.000 N 
ATOM      8  C   UNL     1       1.083  10.199  19.179  0.00  0.00    +0.000 C 
ATOM      9  O   UNL     1       1.297  11.165  18.447  0.00  0.00    +0.000 OA
ATOM     10  C   UNL     1       2.030   8.640  17.519  0.00  0.00    +0.000 C 
ATOM     11  C   UNL     1       3.356   7.866  17.569  0.00  0.00    +0.000 C 
ATOM     12  O   UNL     1       2.337   5.702  17.795  0.00  0.00    +0.000 OA
ATOM     13  C   UNL     1       2.266   4.448  18.342  0.00  0.00    +0.000 A 
ATOM     14  C   UNL     1       1.099   3.725  18.096  0.00  0.00    +0.000 A 
ATOM     15  C   UNL     1       0.930   2.460  18.663  0.00  0.00    +0.000 A 
ATOM     16  C   UNL     1       1.929   1.916  19.472  0.00  0.00    +0.000 A 
ATOM     17  C   UNL     1       3.106   2.628  19.704  0.00  0.00    +0.000 A 
ATOM     18  C   UNL     1       3.276   3.887  19.124  0.00  0.00    +0.000 A 
ENDROOT
BRANCH   8  19
ATOM     19  C   UNL     1       0.347  10.474  20.451  0.00  0.00    +0.000 A 
ATOM     20  C   UNL     1      -0.636  11.465  20.557  0.00  0.00    +0.000 A 
ATOM     21  C   UNL     1      -1.346  11.651  21.740  0.00  0.00    +0.000 A 
ATOM     22  C   UNL     1      -0.996  10.918  22.871  0.00  0.00    +0.000 A 
ATOM     23  C   UNL     1       0.049  10.000  22.805  0.00  0.00    +0.000 A 
ATOM     24 CL   UNL     1       0.532   9.168  24.231  0.00  0.00    +0.000 Cl
ATOM     25  C   UNL     1       0.712   9.756  21.600  0.00  0.00    +0.000 A 
ENDBRANCH   8  19
TORSDOF 1
ENDMDL
MODEL 8
REMARK VINA RESULT:      -7.4      5.125      7.930
REMARK  Name = 
REMARK  1 active torsions:
REMARK  status: ('A' for Active; 'I' for Inactive)
REMARK    1  A    between atoms: C_8  and  C_10
REMARK                            x       y       z     vdW  Elec       q    Type
REMARK                         _______ _______ _______ _____ _____    ______ ____
ROOT
ATOM      1  O   UNL     1       1.129   9.784  18.178  0.00  0.00    +0.000 OA
ATOM      2  C   UNL     1       1.060  10.475  19.191  0.00  0.00    +0.000 C 
ATOM      3  C   UNL     1       0.412   9.991  20.463  0.00  0.00    +0.000 C 
ATOM      4  C   UNL     1      -0.246  11.172  21.178  0.00  0.00    +0.000 C 
ATOM      5  C   UNL     1      -1.406  11.738  20.339  0.00  0.00    +0.000 C 
ATOM      6  C   UNL     1      -2.109  12.858  21.072  0.00  0.00    +0.000 C 
ATOM      7  N   UNL     1      -2.621  12.416  22.363  0.00  0.00    +0.000 N 
ATOM      8  C   UNL     1      -3.923  12.574  22.840  0.00  0.00    +0.000 C 
ATOM      9  O   UNL     1      -4.309  12.076  23.897  0.00  0.00    +0.000 OA
ATOM     10  C   UNL     1      -1.610  11.818  23.244  0.00  0.00    +0.000 C 
ATOM     11  C   UNL     1      -0.820  10.707  22.536  0.00  0.00    +0.000 C 
ATOM     12  O   UNL     1       0.732  12.193  21.462  0.00  0.00    +0.000 OA
ATOM     13  C   UNL     1       1.476  12.596  20.385  0.00  0.00    +0.000 A 
ATOM     14  C   UNL     1       2.061  13.860  20.467  0.00  0.00    +0.000 A 
ATOM     15  C   UNL     1       2.790  14.361  19.386  0.00  0.00    +0.000 A 
ATOM     16  C   UNL     1       2.939  13.599  18.226  0.00  0.00    +0.000 A 
ATOM     17  C   UNL     1       2.372  12.326  18.149  0.00  0.00    +0.000 A 
ATOM     18  C   UNL     1       1.655  11.824  19.237  0.00  0.00    +0.000 A 
ENDROOT
BRANCH   8  19
ATOM     19  C   UNL     1      -4.929  13.365  22.067  0.00  0.00    +0.000 A 
ATOM     20  C   UNL     1      -5.183  14.718  22.319  0.00  0.00    +0.000 A 
ATOM     21  C   UNL     1      -6.082  15.439  21.538  0.00  0.00    +0.000 A 
ATOM     22  C   UNL     1      -6.826  14.778  20.563  0.00  0.00    +0.000 A 
ATOM     23  C   UNL     1      -6.655  13.410  20.372  0.00  0.00    +0.000 A 
ATOM     24 CL   UNL     1      -7.644  12.589  19.229  0.00  0.00    +0.000 Cl
ATOM     25  C   UNL     1      -5.699  12.699  21.102  0.00  0.00    +0.000 A 
ENDBRANCH   8  19
TORSDOF 1
ENDMDL
MODEL 9
REMARK VINA RESULT:      -7.2      6.126     11.050
REMARK  Name = 
REMARK  1 active torsions:
REMARK  status: ('A' for Active; 'I' for Inactive)
REMARK    1  A    between atoms: C_8  and  C_10
REMARK                            x       y       z     vdW  Elec       q    Type
REMARK                         _______ _______ _______ _____ _____    ______ ____
ROOT
ATOM      1  O   UNL     1      -7.883  11.487  23.406  0.00  0.00    +0.000 OA
ATOM      2  C   UNL     1      -7.714  12.022  22.315  0.00  0.00    +0.000 C 
ATOM      3  C   UNL     1      -7.678  11.245  21.023  0.00  0.00    +0.000 C 
ATOM      4  C   UNL     1      -6.707  11.919  20.052  0.00  0.00    +0.000 C 
ATOM      5  C   UNL     1      -5.266  11.852  20.589  0.00  0.00    +0.000 C 
ATOM      6  C   UNL     1      -4.291  12.451  19.601  0.00  0.00    +0.000 C 
ATOM      7  N   UNL     1      -4.355  11.777  18.310  0.00  0.00    +0.000 N 
ATOM      8  C   UNL     1      -3.280  11.250  17.593  0.00  0.00    +0.000 C 
ATOM      9  O   UNL     1      -3.426  10.598  16.560  0.00  0.00    +0.000 OA
ATOM     10  C   UNL     1      -5.695  11.740  17.710  0.00  0.00    +0.000 C 
ATOM     11  C   UNL     1      -6.744  11.193  18.688  0.00  0.00    +0.000 C 
ATOM     12  O   UNL     1      -7.107  13.284  19.813  0.00  0.00    +0.000 OA
ATOM     13  C   UNL     1      -7.306  14.034  20.942  0.00  0.00    +0.000 A 
ATOM     14  C   UNL     1      -7.210  15.418  20.798  0.00  0.00    +0.000 A 
ATOM     15  C   UNL     1      -7.348  16.246  21.914  0.00  0.00    +0.000 A 
ATOM     16  C   UNL     1      -7.587  15.692  23.173  0.00  0.00    +0.000 A 
ATOM     17  C   UNL     1      -7.703  14.309  23.318  0.00  0.00    +0.000 A 
ATOM     18  C   UNL     1      -7.578  13.486  22.196  0.00  0.00    +0.000 A 
ENDROOT
BRANCH   8  19
ATOM     19  C   UNL     1      -1.876  11.453  18.062  0.00  0.00    +0.000 A 
ATOM     20  C   UNL     1      -1.305  12.722  18.217  0.00  0.00    +0.000 A 
ATOM     21  C   UNL     1      -0.015  12.875  18.717  0.00  0.00    +0.000 A 
ATOM     22  C   UNL     1       0.764  11.746  18.959  0.00  0.00    +0.000 A 
ATOM     23  C   UNL     1       0.242  10.480  18.712  0.00  0.00    +0.000 A 
ATOM     24 CL   UNL     1       1.244   9.099  18.928  0.00  0.00    +0.000 Cl
ATOM     25  C   UNL     1      -1.078  10.320  18.284  0.00  0.00    +0.000 A 
ENDBRANCH   8  19
TORSDOF 1
ENDMDL
