MODEL 1
REMARK VINA RESULT:      -7.7      0.000      0.000
REMARK  Name = 
REMARK  6 active torsions:
REMARK  status: ('A' for Active; 'I' for Inactive)
REMARK    1  A    between atoms: C_1  and  C_2
REMARK    2  A    between atoms: C_2  and  C_3
REMARK    3  A    between atoms: C_6  and  N_7
REMARK    4  A    between atoms: C_8  and  C_10
REMARK    5  A    between atoms: C_15  and  C_16
REMARK    6  A    between atoms: C_17  and  C_18
REMARK                            x       y       z     vdW  Elec       q    Type
REMARK                         _______ _______ _______ _____ _____    ______ ____
ROOT
ATOM      1  N   UNL     1       2.841   7.015  18.847  0.00  0.00    +0.000 N 
ATOM      2  C   UNL     1       2.181   8.197  18.551  0.00  0.00    +0.000 C 
ATOM      3  O   UNL     1       2.082   8.705  17.440  0.00  0.00    +0.000 OA
ATOM      4  H   UNL     1       2.670   6.588  19.748  0.00  0.00    +0.000 HD
ENDROOT
BRANCH   2   5
ATOM      5  C   UNL     1       1.477   8.893  19.660  0.00  0.00    +0.000 A 
ATOM      6  C   UNL     1       1.480   8.239  20.899  0.00  0.00    +0.000 A 
ATOM      7  C   UNL     1       0.730   8.711  21.972  0.00  0.00    +0.000 A 
ATOM      8  C   UNL     1      -0.033   9.858  21.756  0.00  0.00    +0.000 A 
ATOM      9  N   UNL     1      -0.886  10.504  22.612  0.00  0.00    +0.000 N 
ATOM     10  C   UNL     1      -1.443  11.601  22.008  0.00  0.00    +0.000 A 
ATOM     11  C   UNL     1      -2.379  12.479  22.757  0.00  0.00    +0.000 C 
ATOM     12  C   UNL     1      -0.976  11.641  20.701  0.00  0.00    +0.000 A 
ATOM     13  C   UNL     1      -1.345  12.616  19.640  0.00  0.00    +0.000 C 
ATOM     14  C   UNL     1      -0.061  10.548  20.545  0.00  0.00    +0.000 A 
ATOM     15  C   UNL     1       0.724  10.062  19.471  0.00  0.00    +0.000 A 
ATOM     16  H   UNL     1      -1.076  10.201  23.557  0.00  0.00    +0.000 HD
ENDBRANCH   2   5
BRANCH   1  20
ATOM     17  C   UNL     1       5.019   4.703  16.028  0.00  0.00    +0.000 A 
ATOM     18  C   UNL     1       5.267   6.069  16.152  0.00  0.00    +0.000 A 
ATOM     19  C   UNL     1       4.560   6.833  17.082  0.00  0.00    +0.000 A 
ATOM     20  C   UNL     1       3.586   6.260  17.904  0.00  0.00    +0.000 A 
ATOM     21  C   UNL     1       3.347   4.887  17.793  0.00  0.00    +0.000 A 
ATOM     22  C   UNL     1       4.054   4.116  16.856  0.00  0.00    +0.000 A 
BRANCH  17  24
ATOM     23  C   UNL     1       6.885   4.733  14.372  0.00  0.00    +0.000 C 
ATOM     24  C   UNL     1       5.832   3.879  15.064  0.00  0.00    +0.000 C 
ENDBRANCH  17  24
ENDBRANCH   1  20
TORSDOF 3
ENDMDL
MODEL 2
REMARK VINA RESULT:      -7.7      0.454      1.121
REMARK  Name = 
REMARK  6 active torsions:
REMARK  status: ('A' for Active; 'I' for Inactive)
REMARK    1  A    between atoms: C_1  and  C_2
REMARK    2  A    between atoms: C_2  and  C_3
REMARK    3  A    between atoms: C_6  and  N_7
REMARK    4  A    between atoms: C_8  and  C_10
REMARK    5  A    between atoms: C_15  and  C_16
REMARK    6  A    between atoms: C_17  and  C_18
REMARK                            x       y       z     vdW  Elec       q    Type
REMARK                         _______ _______ _______ _____ _____    ______ ____
ROOT
ATOM      1  N   UNL     1       2.629   7.179  19.174  0.00  0.00    +0.000 N 
ATOM      2  C   UNL     1       1.866   8.292  18.859  0.00  0.00    +0.000 C 
ATOM      3  O   UNL     1       1.633   8.706  17.729  0.00  0.00    +0.000 OA
ATOM      4  H   UNL     1       2.569   6.812  20.115  0.00  0.00    +0.000 HD
ENDROOT
BRANCH   2   5
ATOM      5  C   UNL     1       1.219   9.027  19.978  0.00  0.00    +0.000 A 
ATOM      6  C   UNL     1       1.351   8.454  21.249  0.00  0.00    +0.000 A 
ATOM      7  C   UNL     1       0.666   8.961  22.349  0.00  0.00    +0.000 A 
ATOM      8  C   UNL     1      -0.166  10.057  22.127  0.00  0.00    +0.000 A 
ATOM      9  N   UNL     1      -0.979  10.719  23.010  0.00  0.00    +0.000 N 
ATOM     10  C   UNL     1      -1.635  11.749  22.388  0.00  0.00    +0.000 A 
ATOM     11  C   UNL     1      -2.551  12.632  23.157  0.00  0.00    +0.000 C 
ATOM     12  C   UNL     1      -1.276  11.726  21.048  0.00  0.00    +0.000 A 
ATOM     13  C   UNL     1      -1.775  12.613  19.963  0.00  0.00    +0.000 C 
ATOM     14  C   UNL     1      -0.324  10.666  20.884  0.00  0.00    +0.000 A 
ATOM     15  C   UNL     1       0.396  10.146  19.781  0.00  0.00    +0.000 A 
ATOM     16  H   UNL     1      -1.079  10.470  23.984  0.00  0.00    +0.000 HD
ENDBRANCH   2   5
BRANCH   1  20
ATOM     17  C   UNL     1       4.796   4.905  16.316  0.00  0.00    +0.000 A 
ATOM     18  C   UNL     1       3.821   4.293  17.102  0.00  0.00    +0.000 A 
ATOM     19  C   UNL     1       3.100   5.036  18.038  0.00  0.00    +0.000 A 
ATOM     20  C   UNL     1       3.335   6.401  18.220  0.00  0.00    +0.000 A 
ATOM     21  C   UNL     1       4.300   7.021  17.420  0.00  0.00    +0.000 A 
ATOM     22  C   UNL     1       5.031   6.276  16.480  0.00  0.00    +0.000 A 
BRANCH  17  24
ATOM     23  C   UNL     1       6.857   4.749  14.918  0.00  0.00    +0.000 C 
ATOM     24  C   UNL     1       5.523   4.105  15.267  0.00  0.00    +0.000 C 
ENDBRANCH  17  24
ENDBRANCH   1  20
TORSDOF 3
ENDMDL
MODEL 3
REMARK VINA RESULT:      -7.6      1.817      8.663
REMARK  Name = 
REMARK  6 active torsions:
REMARK  status: ('A' for Active; 'I' for Inactive)
REMARK    1  A    between atoms: C_1  and  C_2
REMARK    2  A    between atoms: C_2  and  C_3
REMARK    3  A    between atoms: C_6  and  N_7
REMARK    4  A    between atoms: C_8  and  C_10
REMARK    5  A    between atoms: C_15  and  C_16
REMARK    6  A    between atoms: C_17  and  C_18
REMARK                            x       y       z     vdW  Elec       q    Type
REMARK                         _______ _______ _______ _____ _____    ______ ____
ROOT
ATOM      1  N   UNL     1       1.907   7.897  19.942  0.00  0.00    +0.000 N 
ATOM      2  C   UNL     1       2.001   6.530  20.151  0.00  0.00    +0.000 C 
ATOM      3  O   UNL     1       1.364   5.884  20.977  0.00  0.00    +0.000 OA
ATOM      4  H   UNL     1       2.313   8.277  19.097  0.00  0.00    +0.000 HD
ENDROOT
BRANCH   2   5
ATOM      5  C   UNL     1       2.909   5.754  19.266  0.00  0.00    +0.000 A 
ATOM      6  C   UNL     1       3.379   4.539  19.779  0.00  0.00    +0.000 A 
ATOM      7  C   UNL     1       4.351   3.797  19.114  0.00  0.00    +0.000 A 
ATOM      8  C   UNL     1       4.843   4.323  17.920  0.00  0.00    +0.000 A 
ATOM      9  N   UNL     1       5.821   3.830  17.095  0.00  0.00    +0.000 N 
ATOM     10  C   UNL     1       6.007   4.654  16.016  0.00  0.00    +0.000 A 
ATOM     11  C   UNL     1       6.998   4.304  14.964  0.00  0.00    +0.000 C 
ATOM     12  C   UNL     1       5.159   5.742  16.169  0.00  0.00    +0.000 A 
ATOM     13  C   UNL     1       5.044   6.930  15.280  0.00  0.00    +0.000 C 
ATOM     14  C   UNL     1       4.401   5.523  17.366  0.00  0.00    +0.000 A 
ATOM     15  C   UNL     1       3.399   6.254  18.049  0.00  0.00    +0.000 A 
ATOM     16  H   UNL     1       6.333   2.977  17.271  0.00  0.00    +0.000 HD
ENDBRANCH   2   5
BRANCH   1  20
ATOM     17  C   UNL     1      -0.511  10.524  22.240  0.00  0.00    +0.000 A 
ATOM     18  C   UNL     1       0.343   9.624  22.877  0.00  0.00    +0.000 A 
ATOM     19  C   UNL     1       1.146   8.763  22.127  0.00  0.00    +0.000 A 
ATOM     20  C   UNL     1       1.114   8.770  20.730  0.00  0.00    +0.000 A 
ATOM     21  C   UNL     1       0.271   9.684  20.089  0.00  0.00    +0.000 A 
ATOM     22  C   UNL     1      -0.541  10.550  20.840  0.00  0.00    +0.000 A 
BRANCH  17  24
ATOM     23  C   UNL     1      -2.254  12.309  22.175  0.00  0.00    +0.000 C 
ATOM     24  C   UNL     1      -1.326  11.490  23.060  0.00  0.00    +0.000 C 
ENDBRANCH  17  24
ENDBRANCH   1  20
TORSDOF 3
ENDMDL
MODEL 4
REMARK VINA RESULT:      -7.5      1.833      8.638
REMARK  Name = 
REMARK  6 active torsions:
REMARK  status: ('A' for Active; 'I' for Inactive)
REMARK    1  A    between atoms: C_1  and  C_2
REMARK    2  A    between atoms: C_2  and  C_3
REMARK    3  A    between atoms: C_6  and  N_7
REMARK    4  A    between atoms: C_8  and  C_10
REMARK    5  A    between atoms: C_15  and  C_16
REMARK    6  A    between atoms: C_17  and  C_18
REMARK                            x       y       z     vdW  Elec       q    Type
REMARK                         _______ _______ _______ _____ _____    ______ ____
ROOT
ATOM      1  N   UNL     1       1.910   7.909  19.895  0.00  0.00    +0.000 N 
ATOM      2  C   UNL     1       2.011   6.544  20.107  0.00  0.00    +0.000 C 
ATOM      3  O   UNL     1       1.364   5.893  20.921  0.00  0.00    +0.000 OA
ATOM      4  H   UNL     1       2.328   8.292  19.057  0.00  0.00    +0.000 HD
ENDROOT
BRANCH   2   5
ATOM      5  C   UNL     1       2.941   5.775  19.238  0.00  0.00    +0.000 A 
ATOM      6  C   UNL     1       3.439   4.580  19.775  0.00  0.00    +0.000 A 
ATOM      7  C   UNL     1       4.431   3.851  19.127  0.00  0.00    +0.000 A 
ATOM      8  C   UNL     1       4.914   4.367  17.926  0.00  0.00    +0.000 A 
ATOM      9  N   UNL     1       5.906   3.883  17.113  0.00  0.00    +0.000 N 
ATOM     10  C   UNL     1       6.076   4.691  16.019  0.00  0.00    +0.000 A 
ATOM     11  C   UNL     1       7.079   4.347  14.978  0.00  0.00    +0.000 C 
ATOM     12  C   UNL     1       5.201   5.761  16.150  0.00  0.00    +0.000 A 
ATOM     13  C   UNL     1       5.061   6.929  15.239  0.00  0.00    +0.000 C 
ATOM     14  C   UNL     1       4.444   5.545  17.349  0.00  0.00    +0.000 A 
ATOM     15  C   UNL     1       3.422   6.263  18.015  0.00  0.00    +0.000 A 
ATOM     16  H   UNL     1       6.439   3.047  17.306  0.00  0.00    +0.000 HD
ENDBRANCH   2   5
BRANCH   1  20
ATOM     17  C   UNL     1      -0.485  10.493  22.266  0.00  0.00    +0.000 A 
ATOM     18  C   UNL     1      -0.536  10.574  20.875  0.00  0.00    +0.000 A 
ATOM     19  C   UNL     1       0.243   9.723  20.090  0.00  0.00    +0.000 A 
ATOM     20  C   UNL     1       1.095   8.777  20.667  0.00  0.00    +0.000 A 
ATOM     21  C   UNL     1       1.134   8.682  22.062  0.00  0.00    +0.000 A 
ATOM     22  C   UNL     1       0.355   9.540  22.855  0.00  0.00    +0.000 A 
BRANCH  17  24
ATOM     23  C   UNL     1      -1.081  12.846  22.845  0.00  0.00    +0.000 C 
ATOM     24  C   UNL     1      -1.377  11.375  23.100  0.00  0.00    +0.000 C 
ENDBRANCH  17  24
ENDBRANCH   1  20
TORSDOF 3
ENDMDL
MODEL 5
REMARK VINA RESULT:      -7.5      2.068      8.790
REMARK  Name = 
REMARK  6 active torsions:
REMARK  status: ('A' for Active; 'I' for Inactive)
REMARK    1  A    between atoms: C_1  and  C_2
REMARK    2  A    between atoms: C_2  and  C_3
REMARK    3  A    between atoms: C_6  and  N_7
REMARK    4  A    between atoms: C_8  and  C_10
REMARK    5  A    between atoms: C_15  and  C_16
REMARK    6  A    between atoms: C_17  and  C_18
REMARK                            x       y       z     vdW  Elec       q    Type
REMARK                         _______ _______ _______ _____ _____    ______ ____
ROOT
ATOM      1  N   UNL     1       1.341   8.356  21.099  0.00  0.00    +0.000 N 
ATOM      2  C   UNL     1       1.661   8.202  19.760  0.00  0.00    +0.000 C 
ATOM      3  O   UNL     1       1.444   9.018  18.870  0.00  0.00    +0.000 OA
ATOM      4  H   UNL     1       1.762   7.721  21.764  0.00  0.00    +0.000 HD
ENDROOT
BRANCH   2   5
ATOM      5  C   UNL     1       2.384   6.966  19.358  0.00  0.00    +0.000 A 
ATOM      6  C   UNL     1       3.165   7.059  18.199  0.00  0.00    +0.000 A 
ATOM      7  C   UNL     1       3.766   5.937  17.636  0.00  0.00    +0.000 A 
ATOM      8  C   UNL     1       3.546   4.715  18.271  0.00  0.00    +0.000 A 
ATOM      9  N   UNL     1       3.975   3.463  17.912  0.00  0.00    +0.000 N 
ATOM     10  C   UNL     1       3.541   2.524  18.810  0.00  0.00    +0.000 A 
ATOM     11  C   UNL     1       3.912   1.095  18.643  0.00  0.00    +0.000 C 
ATOM     12  C   UNL     1       2.764   3.178  19.756  0.00  0.00    +0.000 A 
ATOM     13  C   UNL     1       2.028   2.570  20.897  0.00  0.00    +0.000 C 
ATOM     14  C   UNL     1       2.785   4.574  19.429  0.00  0.00    +0.000 A 
ATOM     15  C   UNL     1       2.197   5.731  19.997  0.00  0.00    +0.000 A 
ATOM     16  H   UNL     1       4.531   3.269  17.090  0.00  0.00    +0.000 HD
ENDBRANCH   2   5
BRANCH   1  20
ATOM     17  C   UNL     1      -0.798  11.700  22.607  0.00  0.00    +0.000 A 
ATOM     18  C   UNL     1      -0.966  10.444  23.187  0.00  0.00    +0.000 A 
ATOM     19  C   UNL     1      -0.260   9.342  22.701  0.00  0.00    +0.000 A 
ATOM     20  C   UNL     1       0.622   9.461  21.624  0.00  0.00    +0.000 A 
ATOM     21  C   UNL     1       0.806  10.724  21.052  0.00  0.00    +0.000 A 
ATOM     22  C   UNL     1       0.095  11.834  21.536  0.00  0.00    +0.000 A 
BRANCH  17  24
ATOM     23  C   UNL     1      -2.993  12.584  23.398  0.00  0.00    +0.000 C 
ATOM     24  C   UNL     1      -1.519  12.892  23.181  0.00  0.00    +0.000 C 
ENDBRANCH  17  24
ENDBRANCH   1  20
TORSDOF 3
ENDMDL
MODEL 6
REMARK VINA RESULT:      -7.4      2.045      8.481
REMARK  Name = 
REMARK  6 active torsions:
REMARK  status: ('A' for Active; 'I' for Inactive)
REMARK    1  A    between atoms: C_1  and  C_2
REMARK    2  A    between atoms: C_2  and  C_3
REMARK    3  A    between atoms: C_6  and  N_7
REMARK    4  A    between atoms: C_8  and  C_10
REMARK    5  A    between atoms: C_15  and  C_16
REMARK    6  A    between atoms: C_17  and  C_18
REMARK                            x       y       z     vdW  Elec       q    Type
REMARK                         _______ _______ _______ _____ _____    ______ ____
ROOT
ATOM      1  N   UNL     1       1.178   8.961  19.501  0.00  0.00    +0.000 N 
ATOM      2  C   UNL     1       1.940   8.727  18.367  0.00  0.00    +0.000 C 
ATOM      3  O   UNL     1       2.145   9.527  17.461  0.00  0.00    +0.000 OA
ATOM      4  H   UNL     1       1.261   8.312  20.272  0.00  0.00    +0.000 HD
ENDROOT
BRANCH   2   5
ATOM      5  C   UNL     1       2.623   7.411  18.252  0.00  0.00    +0.000 A 
ATOM      6  C   UNL     1       3.758   7.376  17.431  0.00  0.00    +0.000 A 
ATOM      7  C   UNL     1       4.393   6.177  17.121  0.00  0.00    +0.000 A 
ATOM      8  C   UNL     1       3.843   5.012  17.654  0.00  0.00    +0.000 A 
ATOM      9  N   UNL     1       4.235   3.710  17.477  0.00  0.00    +0.000 N 
ATOM     10  C   UNL     1       3.424   2.859  18.181  0.00  0.00    +0.000 A 
ATOM     11  C   UNL     1       3.678   1.394  18.166  0.00  0.00    +0.000 C 
ATOM     12  C   UNL     1       2.444   3.626  18.795  0.00  0.00    +0.000 A 
ATOM     13  C   UNL     1       1.303   3.143  19.619  0.00  0.00    +0.000 C 
ATOM     14  C   UNL     1       2.722   4.998  18.481  0.00  0.00    +0.000 A 
ATOM     15  C   UNL     1       2.100   6.229  18.800  0.00  0.00    +0.000 A 
ATOM     16  H   UNL     1       5.014   3.427  16.899  0.00  0.00    +0.000 HD
ENDBRANCH   2   5
BRANCH   1  20
ATOM     17  C   UNL     1      -1.090  12.490  20.166  0.00  0.00    +0.000 A 
ATOM     18  C   UNL     1       0.128  12.308  20.820  0.00  0.00    +0.000 A 
ATOM     19  C   UNL     1       0.882  11.154  20.600  0.00  0.00    +0.000 A 
ATOM     20  C   UNL     1       0.441  10.152  19.732  0.00  0.00    +0.000 A 
ATOM     21  C   UNL     1      -0.772  10.340  19.061  0.00  0.00    +0.000 A 
ATOM     22  C   UNL     1      -1.535  11.497  19.283  0.00  0.00    +0.000 A 
BRANCH  17  24
ATOM     23  C   UNL     1      -3.268  13.479  20.875  0.00  0.00    +0.000 C 
ATOM     24  C   UNL     1      -1.863  13.767  20.365  0.00  0.00    +0.000 C 
ENDBRANCH  17  24
ENDBRANCH   1  20
TORSDOF 3
ENDMDL
MODEL 7
REMARK VINA RESULT:      -7.4      2.049      8.492
REMARK  Name = 
REMARK  6 active torsions:
REMARK  status: ('A' for Active; 'I' for Inactive)
REMARK    1  A    between atoms: C_1  and  C_2
REMARK    2  A    between atoms: C_2  and  C_3
REMARK    3  A    between atoms: C_6  and  N_7
REMARK    4  A    between atoms: C_8  and  C_10
REMARK    5  A    between atoms: C_15  and  C_16
REMARK    6  A    between atoms: C_17  and  C_18
REMARK                            x       y       z     vdW  Elec       q    Type
REMARK                         _______ _______ _______ _____ _____    ______ ____
ROOT
ATOM      1  N   UNL     1       1.158   8.993  19.479  0.00  0.00    +0.000 N 
ATOM      2  C   UNL     1       1.940   8.739  18.364  0.00  0.00    +0.000 C 
ATOM      3  O   UNL     1       2.170   9.528  17.452  0.00  0.00    +0.000 OA
ATOM      4  H   UNL     1       1.221   8.353  20.259  0.00  0.00    +0.000 HD
ENDROOT
BRANCH   2   5
ATOM      5  C   UNL     1       2.614   7.417  18.277  0.00  0.00    +0.000 A 
ATOM      6  C   UNL     1       3.744   7.355  17.451  0.00  0.00    +0.000 A 
ATOM      7  C   UNL     1       4.370   6.145  17.166  0.00  0.00    +0.000 A 
ATOM      8  C   UNL     1       3.817   4.997  17.732  0.00  0.00    +0.000 A 
ATOM      9  N   UNL     1       4.200   3.689  17.585  0.00  0.00    +0.000 N 
ATOM     10  C   UNL     1       3.388   2.860  18.314  0.00  0.00    +0.000 A 
ATOM     11  C   UNL     1       3.633   1.394  18.335  0.00  0.00    +0.000 C 
ATOM     12  C   UNL     1       2.417   3.648  18.915  0.00  0.00    +0.000 A 
ATOM     13  C   UNL     1       1.278   3.193  19.758  0.00  0.00    +0.000 C 
ATOM     14  C   UNL     1       2.700   5.010  18.566  0.00  0.00    +0.000 A 
ATOM     15  C   UNL     1       2.088   6.253  18.857  0.00  0.00    +0.000 A 
ATOM     16  H   UNL     1       4.973   3.387  17.009  0.00  0.00    +0.000 HD
ENDBRANCH   2   5
BRANCH   1  20
ATOM     17  C   UNL     1      -0.973  12.611  20.117  0.00  0.00    +0.000 A 
ATOM     18  C   UNL     1      -1.466  11.657  19.228  0.00  0.00    +0.000 A 
ATOM     19  C   UNL     1      -0.774  10.462  19.020  0.00  0.00    +0.000 A 
ATOM     20  C   UNL     1       0.426  10.192  19.683  0.00  0.00    +0.000 A 
ATOM     21  C   UNL     1       0.913  11.139  20.588  0.00  0.00    +0.000 A 
ATOM     22  C   UNL     1       0.222  12.344  20.797  0.00  0.00    +0.000 A 
BRANCH  17  24
ATOM     23  C   UNL     1      -2.872  13.614  21.387  0.00  0.00    +0.000 C 
ATOM     24  C   UNL     1      -1.761  13.868  20.379  0.00  0.00    +0.000 C 
ENDBRANCH  17  24
ENDBRANCH   1  20
TORSDOF 3
ENDMDL
MODEL 8
REMARK VINA RESULT:      -7.4      0.998      1.921
REMARK  Name = 
REMARK  6 active torsions:
REMARK  status: ('A' for Active; 'I' for Inactive)
REMARK    1  A    between atoms: C_1  and  C_2
REMARK    2  A    between atoms: C_2  and  C_3
REMARK    3  A    between atoms: C_6  and  N_7
REMARK    4  A    between atoms: C_8  and  C_10
REMARK    5  A    between atoms: C_15  and  C_16
REMARK    6  A    between atoms: C_17  and  C_18
REMARK                            x       y       z     vdW  Elec       q    Type
REMARK                         _______ _______ _______ _____ _____    ______ ____
ROOT
ATOM      1  N   UNL     1       2.215   7.400  18.573  0.00  0.00    +0.000 N 
ATOM      2  C   UNL     1       1.909   8.669  18.106  0.00  0.00    +0.000 C 
ATOM      3  O   UNL     1       2.334   9.176  17.074  0.00  0.00    +0.000 OA
ATOM      4  H   UNL     1       1.640   7.013  19.310  0.00  0.00    +0.000 HD
ENDROOT
BRANCH   2   5
ATOM      5  C   UNL     1       0.935   9.477  18.886  0.00  0.00    +0.000 A 
ATOM      6  C   UNL     1       0.343  10.551  18.208  0.00  0.00    +0.000 A 
ATOM      7  C   UNL     1      -0.465  11.471  18.869  0.00  0.00    +0.000 A 
ATOM      8  C   UNL     1      -0.651  11.283  20.238  0.00  0.00    +0.000 A 
ATOM      9  N   UNL     1      -1.352  12.051  21.130  0.00  0.00    +0.000 N 
ATOM     10  C   UNL     1      -1.287  11.516  22.390  0.00  0.00    +0.000 A 
ATOM     11  C   UNL     1      -2.002  12.163  23.521  0.00  0.00    +0.000 C 
ATOM     12  C   UNL     1      -0.477  10.391  22.325  0.00  0.00    +0.000 A 
ATOM     13  C   UNL     1      -0.063   9.510  23.450  0.00  0.00    +0.000 C 
ATOM     14  C   UNL     1      -0.090  10.226  20.953  0.00  0.00    +0.000 A 
ATOM     15  C   UNL     1       0.714   9.291  20.259  0.00  0.00    +0.000 A 
ATOM     16  H   UNL     1      -1.842  12.900  20.883  0.00  0.00    +0.000 HD
ENDBRANCH   2   5
BRANCH   1  20
ATOM     17  C   UNL     1       4.965   4.744  16.724  0.00  0.00    +0.000 A 
ATOM     18  C   UNL     1       5.262   6.103  16.819  0.00  0.00    +0.000 A 
ATOM     19  C   UNL     1       4.366   6.980  17.433  0.00  0.00    +0.000 A 
ATOM     20  C   UNL     1       3.152   6.530  17.958  0.00  0.00    +0.000 A 
ATOM     21  C   UNL     1       2.860   5.165  17.879  0.00  0.00    +0.000 A 
ATOM     22  C   UNL     1       3.757   4.280  17.260  0.00  0.00    +0.000 A 
BRANCH  17  24
ATOM     23  C   UNL     1       6.506   4.349  14.802  0.00  0.00    +0.000 C 
ATOM     24  C   UNL     1       5.968   3.800  16.115  0.00  0.00    +0.000 C 
ENDBRANCH  17  24
ENDBRANCH   1  20
TORSDOF 3
ENDMDL
MODEL 9
REMARK VINA RESULT:      -7.4      1.017      2.169
REMARK  Name = 
REMARK  6 active torsions:
REMARK  status: ('A' for Active; 'I' for Inactive)
REMARK    1  A    between atoms: C_1  and  C_2
REMARK    2  A    between atoms: C_2  and  C_3
REMARK    3  A    between atoms: C_6  and  N_7
REMARK    4  A    between atoms: C_8  and  C_10
REMARK    5  A    between atoms: C_15  and  C_16
REMARK    6  A    between atoms: C_17  and  C_18
REMARK                            x       y       z     vdW  Elec       q    Type
REMARK                         _______ _______ _______ _____ _____    ______ ____
ROOT
ATOM      1  N   UNL     1       2.363   7.321  18.572  0.00  0.00    +0.000 N 
ATOM      2  C   UNL     1       1.989   8.567  18.093  0.00  0.00    +0.000 C 
ATOM      3  O   UNL     1       2.391   9.090  17.060  0.00  0.00    +0.000 OA
ATOM      4  H   UNL     1       1.806   6.909  19.309  0.00  0.00    +0.000 HD
ENDROOT
BRANCH   2   5
ATOM      5  C   UNL     1       0.967   9.326  18.862  0.00  0.00    +0.000 A 
ATOM      6  C   UNL     1       0.263  10.305  18.149  0.00  0.00    +0.000 A 
ATOM      7  C   UNL     1      -0.607  11.183  18.787  0.00  0.00    +0.000 A 
ATOM      8  C   UNL     1      -0.740  11.052  20.169  0.00  0.00    +0.000 A 
ATOM      9  N   UNL     1      -1.484  11.801  21.043  0.00  0.00    +0.000 N 
ATOM     10  C   UNL     1      -1.338  11.341  22.325  0.00  0.00    +0.000 A 
ATOM     11  C   UNL     1      -2.079  11.980  23.444  0.00  0.00    +0.000 C 
ATOM     12  C   UNL     1      -0.432  10.290  22.292  0.00  0.00    +0.000 A 
ATOM     13  C   UNL     1       0.089   9.509  23.446  0.00  0.00    +0.000 C 
ATOM     14  C   UNL     1      -0.068  10.088  20.919  0.00  0.00    +0.000 A 
ATOM     15  C   UNL     1       0.800   9.193  20.248  0.00  0.00    +0.000 A 
ATOM     16  H   UNL     1      -2.055  12.589  20.769  0.00  0.00    +0.000 HD
ENDBRANCH   2   5
BRANCH   1  20
ATOM     17  C   UNL     1       5.371   4.912  16.788  0.00  0.00    +0.000 A 
ATOM     18  C   UNL     1       4.123   4.366  17.086  0.00  0.00    +0.000 A 
ATOM     19  C   UNL     1       3.128   5.154  17.665  0.00  0.00    +0.000 A 
ATOM     20  C   UNL     1       3.350   6.500  17.969  0.00  0.00    +0.000 A 
ATOM     21  C   UNL     1       4.595   7.055  17.654  0.00  0.00    +0.000 A 
ATOM     22  C   UNL     1       5.600   6.264  17.075  0.00  0.00    +0.000 A 
BRANCH  17  24
ATOM     23  C   UNL     1       6.086   3.881  14.632  0.00  0.00    +0.000 C 
ATOM     24  C   UNL     1       6.414   4.067  16.106  0.00  0.00    +0.000 C 
ENDBRANCH  17  24
ENDBRANCH   1  20
TORSDOF 3
ENDMDL
