MODEL 1
REMARK VINA RESULT:      -7.7      0.000      0.000
REMARK  Name = 
REMARK  14 active torsions:
REMARK  status: ('A' for Active; 'I' for Inactive)
REMARK    1  A    between atoms: C_1  and  O_2
REMARK    2  A    between atoms: O_2  and  C_3
REMARK    3  A    between atoms: C_5  and  O_6
REMARK    4  A    between atoms: O_6  and  C_7
REMARK    5  A    between atoms: C_10  and  S_11
REMARK    6  A    between atoms: S_11  and  C_14
REMARK    7  A    between atoms: C_14  and  C_15
REMARK    8  A    between atoms: C_15  and  C_16
REMARK    9  A    between atoms: C_15  and  C_17
REMARK   10  A    between atoms: N_19  and  O_20
REMARK   11  A    between atoms: C_24  and  O_25
REMARK   12  A    between atoms: O_25  and  C_26
REMARK   13  A    between atoms: C_27  and  O_28
REMARK   14  A    between atoms: O_28  and  C_29
REMARK                            x       y       z     vdW  Elec       q    Type
REMARK                         _______ _______ _______ _____ _____    ______ ____
ROOT
ATOM      1  C   UNL     1       1.281   9.676  18.968  0.00  0.00    +0.000 A 
ATOM      2  C   UNL     1       1.254   8.794  20.051  0.00  0.00    +0.000 A 
ATOM      3  C   UNL     1       1.909   7.564  19.974  0.00  0.00    +0.000 A 
ATOM      4  C   UNL     1       2.575   7.216  18.794  0.00  0.00    +0.000 A 
ATOM      5  C   UNL     1       2.610   8.091  17.706  0.00  0.00    +0.000 A 
ATOM      6  C   UNL     1       1.938   9.317  17.788  0.00  0.00    +0.000 A 
ENDROOT
BRANCH   4   7
ATOM      7  S   UNL     1       3.425   5.654  18.714  0.00  0.00    +0.000 S 
ATOM      8  O   UNL     1       3.447   5.090  20.049  0.00  0.00    +0.000 OA
ATOM      9  O   UNL     1       2.823   4.936  17.609  0.00  0.00    +0.000 OA
BRANCH   7  10
ATOM     10  C   UNL     1       5.098   6.084  18.286  0.00  0.00    +0.000 C 
BRANCH  10  11
ATOM     11  C   UNL     1       5.867   4.945  17.598  0.00  0.00    +0.000 C 
ATOM     12  C   UNL     1       6.037   5.171  16.094  0.00  0.00    +0.000 C 
BRANCH  11  13
ATOM     13  C   UNL     1       7.234   4.814  18.261  0.00  0.00    +0.000 C 
ATOM     14  O   UNL     1       8.181   4.219  17.748  0.00  0.00    +0.000 OA
ATOM     15  N   UNL     1       7.359   5.432  19.482  0.00  0.00    +0.000 N 
ATOM     16  H   UNL     1       6.580   5.745  20.052  0.00  0.00    +0.000 HD
BRANCH  15  17
ATOM     17  O   UNL     1       8.585   5.229  20.156  0.00  0.00    +0.000 OA
ATOM     18  H   UNL     1       8.773   6.119  20.529  0.00  0.00    +0.000 HD
ENDBRANCH  15  17
ENDBRANCH  11  13
ENDBRANCH  10  11
ENDBRANCH   7  10
ENDBRANCH   4   7
BRANCH   1  19
ATOM     19  O   UNL     1       0.546  10.829  19.120  0.00  0.00    +0.000 OA
BRANCH  19  22
ATOM     20  C   UNL     1      -2.931  11.917  19.241  0.00  0.00    +0.000 A 
ATOM     21  C   UNL     1      -1.575  11.706  19.552  0.00  0.00    +0.000 A 
ATOM     22  C   UNL     1      -0.785  10.867  18.776  0.00  0.00    +0.000 A 
ATOM     23  C   UNL     1      -1.352  10.228  17.681  0.00  0.00    +0.000 A 
ATOM     24  C   UNL     1      -2.726  10.343  17.411  0.00  0.00    +0.000 A 
ATOM     25  C   UNL     1      -3.542  11.185  18.198  0.00  0.00    +0.000 A 
BRANCH  20  27
ATOM     26  C   UNL     1      -3.541  12.695  21.398  0.00  0.00    +0.000 C 
ATOM     27  O   UNL     1      -3.669  12.813  19.977  0.00  0.00    +0.000 OA
ENDBRANCH  20  27
BRANCH  24  28
ATOM     28  O   UNL     1      -3.078   9.569  16.330  0.00  0.00    +0.000 OA
ATOM     29  C   UNL     1      -2.947  10.089  15.017  0.00  0.00    +0.000 C 
ENDBRANCH  24  28
BRANCH  25  30
ATOM     30  O   UNL     1      -4.870  11.203  17.874  0.00  0.00    +0.000 OA
ATOM     31  C   UNL     1      -5.408  12.193  17.016  0.00  0.00    +0.000 C 
ENDBRANCH  25  30
ENDBRANCH  19  22
ENDBRANCH   1  19
TORSDOF 10
ENDMDL
MODEL 2
REMARK VINA RESULT:      -7.7      2.267      2.955
REMARK  Name = 
REMARK  14 active torsions:
REMARK  status: ('A' for Active; 'I' for Inactive)
REMARK    1  A    between atoms: C_1  and  O_2
REMARK    2  A    between atoms: O_2  and  C_3
REMARK    3  A    between atoms: C_5  and  O_6
REMARK    4  A    between atoms: O_6  and  C_7
REMARK    5  A    between atoms: C_10  and  S_11
REMARK    6  A    between atoms: S_11  and  C_14
REMARK    7  A    between atoms: C_14  and  C_15
REMARK    8  A    between atoms: C_15  and  C_16
REMARK    9  A    between atoms: C_15  and  C_17
REMARK   10  A    between atoms: N_19  and  O_20
REMARK   11  A    between atoms: C_24  and  O_25
REMARK   12  A    between atoms: O_25  and  C_26
REMARK   13  A    between atoms: C_27  and  O_28
REMARK   14  A    between atoms: O_28  and  C_29
REMARK                            x       y       z     vdW  Elec       q    Type
REMARK                         _______ _______ _______ _____ _____    ______ ____
ROOT
ATOM      1  C   UNL     1       1.138   9.459  19.353  0.00  0.00    +0.000 A 
ATOM      2  C   UNL     1       1.739   9.171  18.125  0.00  0.00    +0.000 A 
ATOM      3  C   UNL     1       2.432   7.973  17.945  0.00  0.00    +0.000 A 
ATOM      4  C   UNL     1       2.536   7.074  19.012  0.00  0.00    +0.000 A 
ATOM      5  C   UNL     1       1.937   7.352  20.242  0.00  0.00    +0.000 A 
ATOM      6  C   UNL     1       1.255   8.563  20.418  0.00  0.00    +0.000 A 
ENDROOT
BRANCH   4   7
ATOM      7  S   UNL     1       3.404   5.540  18.765  0.00  0.00    +0.000 S 
ATOM      8  O   UNL     1       3.512   5.315  17.338  0.00  0.00    +0.000 OA
ATOM      9  O   UNL     1       4.584   5.618  19.601  0.00  0.00    +0.000 OA
BRANCH   7  10
ATOM     10  C   UNL     1       2.307   4.303  19.421  0.00  0.00    +0.000 C 
BRANCH  10  11
ATOM     11  C   UNL     1       2.931   3.466  20.550  0.00  0.00    +0.000 C 
ATOM     12  C   UNL     1       1.883   2.880  21.499  0.00  0.00    +0.000 C 
BRANCH  11  13
ATOM     13  C   UNL     1       3.750   2.343  19.924  0.00  0.00    +0.000 C 
ATOM     14  O   UNL     1       4.874   2.026  20.314  0.00  0.00    +0.000 OA
ATOM     15  N   UNL     1       3.140   1.672  18.892  0.00  0.00    +0.000 N 
ATOM     16  H   UNL     1       2.328   2.009  18.385  0.00  0.00    +0.000 HD
BRANCH  15  17
ATOM     17  O   UNL     1       3.928   0.700  18.233  0.00  0.00    +0.000 OA
ATOM     18  H   UNL     1       3.348   0.423  17.490  0.00  0.00    +0.000 HD
ENDBRANCH  15  17
ENDBRANCH  11  13
ENDBRANCH  10  11
ENDBRANCH   7  10
ENDBRANCH   4   7
BRANCH   1  19
ATOM     19  O   UNL     1       0.541  10.695  19.448  0.00  0.00    +0.000 OA
BRANCH  19  22
ATOM     20  C   UNL     1      -2.807  12.138  19.473  0.00  0.00    +0.000 A 
ATOM     21  C   UNL     1      -1.492  11.779  19.826  0.00  0.00    +0.000 A 
ATOM     22  C   UNL     1      -0.764  10.880  19.058  0.00  0.00    +0.000 A 
ATOM     23  C   UNL     1      -1.352  10.328  17.927  0.00  0.00    +0.000 A 
ATOM     24  C   UNL     1      -2.695  10.592  17.610  0.00  0.00    +0.000 A 
ATOM     25  C   UNL     1      -3.449  11.498  18.389  0.00  0.00    +0.000 A 
BRANCH  20  27
ATOM     26  C   UNL     1      -2.658  14.126  20.759  0.00  0.00    +0.000 C 
ATOM     27  O   UNL     1      -3.474  13.090  20.205  0.00  0.00    +0.000 OA
ENDBRANCH  20  27
BRANCH  24  28
ATOM     28  O   UNL     1      -3.083   9.884  16.498  0.00  0.00    +0.000 OA
ATOM     29  C   UNL     1      -2.946  10.461  15.210  0.00  0.00    +0.000 C 
ENDBRANCH  24  28
BRANCH  25  30
ATOM     30  O   UNL     1      -4.754  11.662  18.019  0.00  0.00    +0.000 OA
ATOM     31  C   UNL     1      -5.761  10.756  18.437  0.00  0.00    +0.000 C 
ENDBRANCH  25  30
ENDBRANCH  19  22
ENDBRANCH   1  19
TORSDOF 10
ENDMDL
MODEL 3
REMARK VINA RESULT:      -7.6      2.420      2.863
REMARK  Name = 
REMARK  14 active torsions:
REMARK  status: ('A' for Active; 'I' for Inactive)
REMARK    1  A    between atoms: C_1  and  O_2
REMARK    2  A    between atoms: O_2  and  C_3
REMARK    3  A    between atoms: C_5  and  O_6
REMARK    4  A    between atoms: O_6  and  C_7
REMARK    5  A    between atoms: C_10  and  S_11
REMARK    6  A    between atoms: S_11  and  C_14
REMARK    7  A    between atoms: C_14  and  C_15
REMARK    8  A    between atoms: C_15  and  C_16
REMARK    9  A    between atoms: C_15  and  C_17
REMARK   10  A    between atoms: N_19  and  O_20
REMARK   11  A    between atoms: C_24  and  O_25
REMARK   12  A    between atoms: O_25  and  C_26
REMARK   13  A    between atoms: C_27  and  O_28
REMARK   14  A    between atoms: O_28  and  C_29
REMARK                            x       y       z     vdW  Elec       q    Type
REMARK                         _______ _______ _______ _____ _____    ______ ____
ROOT
ATOM      1  C   UNL     1       1.145   9.714  18.876  0.00  0.00    +0.000 A 
ATOM      2  C   UNL     1       1.015   9.204  20.171  0.00  0.00    +0.000 A 
ATOM      3  C   UNL     1       1.534   7.948  20.488  0.00  0.00    +0.000 A 
ATOM      4  C   UNL     1       2.165   7.196  19.492  0.00  0.00    +0.000 A 
ATOM      5  C   UNL     1       2.301   7.696  18.196  0.00  0.00    +0.000 A 
ATOM      6  C   UNL     1       1.766   8.952  17.883  0.00  0.00    +0.000 A 
ENDROOT
BRANCH   4   7
ATOM      7  S   UNL     1       2.841   5.604  19.912  0.00  0.00    +0.000 S 
ATOM      8  O   UNL     1       4.252   5.620  19.584  0.00  0.00    +0.000 OA
ATOM      9  O   UNL     1       2.390   5.330  21.261  0.00  0.00    +0.000 OA
BRANCH   7  10
ATOM     10  C   UNL     1       2.042   4.477  18.791  0.00  0.00    +0.000 C 
BRANCH  10  11
ATOM     11  C   UNL     1       1.726   3.109  19.418  0.00  0.00    +0.000 C 
ATOM     12  C   UNL     1       0.621   2.359  18.671  0.00  0.00    +0.000 C 
BRANCH  11  13
ATOM     13  C   UNL     1       3.003   2.275  19.431  0.00  0.00    +0.000 C 
ATOM     14  O   UNL     1       3.874   2.385  20.293  0.00  0.00    +0.000 OA
ATOM     15  N   UNL     1       3.117   1.357  18.416  0.00  0.00    +0.000 N 
ATOM     16  H   UNL     1       2.559   1.360  17.569  0.00  0.00    +0.000 HD
BRANCH  15  17
ATOM     17  O   UNL     1       4.342   0.652  18.354  0.00  0.00    +0.000 OA
ATOM     18  H   UNL     1       4.072  -0.211  17.969  0.00  0.00    +0.000 HD
ENDBRANCH  15  17
ENDBRANCH  11  13
ENDBRANCH  10  11
ENDBRANCH   7  10
ENDBRANCH   4   7
BRANCH   1  19
ATOM     19  O   UNL     1       0.538  10.928  18.650  0.00  0.00    +0.000 OA
BRANCH  19  22
ATOM     20  C   UNL     1      -2.869  12.081  19.242  0.00  0.00    +0.000 A 
ATOM     21  C   UNL     1      -1.492  11.824  19.377  0.00  0.00    +0.000 A 
ATOM     22  C   UNL     1      -0.822  11.013  18.470  0.00  0.00    +0.000 A 
ATOM     23  C   UNL     1      -1.532  10.449  17.417  0.00  0.00    +0.000 A 
ATOM     24  C   UNL     1      -2.924  10.609  17.318  0.00  0.00    +0.000 A 
ATOM     25  C   UNL     1      -3.618  11.422  18.240  0.00  0.00    +0.000 A 
BRANCH  20  27
ATOM     26  C   UNL     1      -3.273  12.692  21.498  0.00  0.00    +0.000 C 
ATOM     27  O   UNL     1      -3.490  12.949  20.107  0.00  0.00    +0.000 OA
ENDBRANCH  20  27
BRANCH  24  28
ATOM     28  O   UNL     1      -3.421   9.905  16.246  0.00  0.00    +0.000 OA
ATOM     29  C   UNL     1      -2.850  10.081  14.960  0.00  0.00    +0.000 C 
ENDBRANCH  24  28
BRANCH  25  30
ATOM     30  O   UNL     1      -4.974  11.487  18.078  0.00  0.00    +0.000 OA
ATOM     31  C   UNL     1      -5.841  10.579  18.736  0.00  0.00    +0.000 C 
ENDBRANCH  25  30
ENDBRANCH  19  22
ENDBRANCH   1  19
TORSDOF 10
ENDMDL
MODEL 4
REMARK VINA RESULT:      -7.6      0.558      2.468
REMARK  Name = 
REMARK  14 active torsions:
REMARK  status: ('A' for Active; 'I' for Inactive)
REMARK    1  A    between atoms: C_1  and  O_2
REMARK    2  A    between atoms: O_2  and  C_3
REMARK    3  A    between atoms: C_5  and  O_6
REMARK    4  A    between atoms: O_6  and  C_7
REMARK    5  A    between atoms: C_10  and  S_11
REMARK    6  A    between atoms: S_11  and  C_14
REMARK    7  A    between atoms: C_14  and  C_15
REMARK    8  A    between atoms: C_15  and  C_16
REMARK    9  A    between atoms: C_15  and  C_17
REMARK   10  A    between atoms: N_19  and  O_20
REMARK   11  A    between atoms: C_24  and  O_25
REMARK   12  A    between atoms: O_25  and  C_26
REMARK   13  A    between atoms: C_27  and  O_28
REMARK   14  A    between atoms: O_28  and  C_29
REMARK                            x       y       z     vdW  Elec       q    Type
REMARK                         _______ _______ _______ _____ _____    ______ ____
ROOT
ATOM      1  C   UNL     1       1.186  10.006  19.006  0.00  0.00    +0.000 A 
ATOM      2  C   UNL     1       1.118   9.084  20.054  0.00  0.00    +0.000 A 
ATOM      3  C   UNL     1       1.715   7.829  19.927  0.00  0.00    +0.000 A 
ATOM      4  C   UNL     1       2.362   7.496  18.732  0.00  0.00    +0.000 A 
ATOM      5  C   UNL     1       2.438   8.410  17.680  0.00  0.00    +0.000 A 
ATOM      6  C   UNL     1       1.824   9.663  17.811  0.00  0.00    +0.000 A 
ENDROOT
BRANCH   4   7
ATOM      7  S   UNL     1       3.137   5.900  18.588  0.00  0.00    +0.000 S 
ATOM      8  O   UNL     1       3.698   5.560  19.881  0.00  0.00    +0.000 OA
ATOM      9  O   UNL     1       2.159   5.045  17.950  0.00  0.00    +0.000 OA
BRANCH   7  10
ATOM     10  C   UNL     1       4.494   6.169  17.469  0.00  0.00    +0.000 C 
BRANCH  10  11
ATOM     11  C   UNL     1       5.490   4.999  17.420  0.00  0.00    +0.000 C 
ATOM     12  C   UNL     1       5.841   4.582  15.990  0.00  0.00    +0.000 C 
BRANCH  11  13
ATOM     13  C   UNL     1       6.755   5.408  18.167  0.00  0.00    +0.000 C 
ATOM     14  O   UNL     1       7.737   5.903  17.615  0.00  0.00    +0.000 OA
ATOM     15  N   UNL     1       6.727   5.211  19.526  0.00  0.00    +0.000 N 
ATOM     16  H   UNL     1       6.057   4.622  20.011  0.00  0.00    +0.000 HD
BRANCH  15  17
ATOM     17  O   UNL     1       7.930   5.486  20.217  0.00  0.00    +0.000 OA
ATOM     18  H   UNL     1       8.397   6.090  19.600  0.00  0.00    +0.000 HD
ENDBRANCH  15  17
ENDBRANCH  11  13
ENDBRANCH  10  11
ENDBRANCH   7  10
ENDBRANCH   4   7
BRANCH   1  19
ATOM     19  O   UNL     1       0.506  11.185  19.205  0.00  0.00    +0.000 OA
BRANCH  19  22
ATOM     20  C   UNL     1      -2.666  10.443  17.571  0.00  0.00    +0.000 A 
ATOM     21  C   UNL     1      -1.294  10.525  17.873  0.00  0.00    +0.000 A 
ATOM     22  C   UNL     1      -0.843  11.273  18.953  0.00  0.00    +0.000 A 
ATOM     23  C   UNL     1      -1.767  11.948  19.740  0.00  0.00    +0.000 A 
ATOM     24  C   UNL     1      -3.130  11.964  19.400  0.00  0.00    +0.000 A 
ATOM     25  C   UNL     1      -3.600  11.216  18.298  0.00  0.00    +0.000 A 
BRANCH  20  27
ATOM     26  C   UNL     1      -2.898  10.155  15.228  0.00  0.00    +0.000 C 
ATOM     27  O   UNL     1      -3.092   9.633  16.546  0.00  0.00    +0.000 OA
ENDBRANCH  20  27
BRANCH  24  28
ATOM     28  O   UNL     1      -3.842  12.752  20.272  0.00  0.00    +0.000 OA
ATOM     29  C   UNL     1      -3.498  12.773  21.647  0.00  0.00    +0.000 C 
ENDBRANCH  24  28
BRANCH  25  30
ATOM     30  O   UNL     1      -4.936  11.322  18.030  0.00  0.00    +0.000 OA
ATOM     31  C   UNL     1      -5.429  12.267  17.097  0.00  0.00    +0.000 C 
ENDBRANCH  25  30
ENDBRANCH  19  22
ENDBRANCH   1  19
TORSDOF 10
ENDMDL
MODEL 5
REMARK VINA RESULT:      -7.6      0.518      2.623
REMARK  Name = 
REMARK  14 active torsions:
REMARK  status: ('A' for Active; 'I' for Inactive)
REMARK    1  A    between atoms: C_1  and  O_2
REMARK    2  A    between atoms: O_2  and  C_3
REMARK    3  A    between atoms: C_5  and  O_6
REMARK    4  A    between atoms: O_6  and  C_7
REMARK    5  A    between atoms: C_10  and  S_11
REMARK    6  A    between atoms: S_11  and  C_14
REMARK    7  A    between atoms: C_14  and  C_15
REMARK    8  A    between atoms: C_15  and  C_16
REMARK    9  A    between atoms: C_15  and  C_17
REMARK   10  A    between atoms: N_19  and  O_20
REMARK   11  A    between atoms: C_24  and  O_25
REMARK   12  A    between atoms: O_25  and  C_26
REMARK   13  A    between atoms: C_27  and  O_28
REMARK   14  A    between atoms: O_28  and  C_29
REMARK                            x       y       z     vdW  Elec       q    Type
REMARK                         _______ _______ _______ _____ _____    ______ ____
ROOT
ATOM      1  C   UNL     1       1.215   9.558  18.989  0.00  0.00    +0.000 A 
ATOM      2  C   UNL     1       1.874   9.068  17.858  0.00  0.00    +0.000 A 
ATOM      3  C   UNL     1       2.504   7.823  17.896  0.00  0.00    +0.000 A 
ATOM      4  C   UNL     1       2.489   7.083  19.082  0.00  0.00    +0.000 A 
ATOM      5  C   UNL     1       1.832   7.562  20.217  0.00  0.00    +0.000 A 
ATOM      6  C   UNL     1       1.213   8.818  20.174  0.00  0.00    +0.000 A 
ENDROOT
BRANCH   4   7
ATOM      7  S   UNL     1       3.278   5.488  19.113  0.00  0.00    +0.000 S 
ATOM      8  O   UNL     1       2.815   4.786  20.293  0.00  0.00    +0.000 OA
ATOM      9  O   UNL     1       3.088   4.931  17.790  0.00  0.00    +0.000 OA
BRANCH   7  10
ATOM     10  C   UNL     1       5.003   5.854  19.348  0.00  0.00    +0.000 C 
BRANCH  10  11
ATOM     11  C   UNL     1       5.877   5.497  18.135  0.00  0.00    +0.000 C 
ATOM     12  C   UNL     1       6.022   6.658  17.149  0.00  0.00    +0.000 C 
BRANCH  11  13
ATOM     13  C   UNL     1       7.251   5.068  18.638  0.00  0.00    +0.000 C 
ATOM     14  O   UNL     1       8.005   4.331  18.002  0.00  0.00    +0.000 OA
ATOM     15  N   UNL     1       7.620   5.580  19.857  0.00  0.00    +0.000 N 
ATOM     16  H   UNL     1       6.981   6.006  20.522  0.00  0.00    +0.000 HD
BRANCH  15  17
ATOM     17  O   UNL     1       8.844   5.108  20.385  0.00  0.00    +0.000 OA
ATOM     18  H   UNL     1       8.564   4.320  20.901  0.00  0.00    +0.000 HD
ENDBRANCH  15  17
ENDBRANCH  11  13
ENDBRANCH  10  11
ENDBRANCH   7  10
ENDBRANCH   4   7
BRANCH   1  19
ATOM     19  O   UNL     1       0.688  10.823  18.869  0.00  0.00    +0.000 OA
BRANCH  19  22
ATOM     20  C   UNL     1      -2.640  10.338  17.462  0.00  0.00    +0.000 A 
ATOM     21  C   UNL     1      -1.247  10.317  17.664  0.00  0.00    +0.000 A 
ATOM     22  C   UNL     1      -0.666  11.011  18.717  0.00  0.00    +0.000 A 
ATOM     23  C   UNL     1      -1.479  11.738  19.578  0.00  0.00    +0.000 A 
ATOM     24  C   UNL     1      -2.859  11.857  19.338  0.00  0.00    +0.000 A 
ATOM     25  C   UNL     1      -3.460  11.163  18.264  0.00  0.00    +0.000 A 
BRANCH  20  27
ATOM     26  C   UNL     1      -2.897  10.004  15.127  0.00  0.00    +0.000 C 
ATOM     27  O   UNL     1      -3.195   9.579  16.461  0.00  0.00    +0.000 OA
ENDBRANCH  20  27
BRANCH  24  28
ATOM     28  O   UNL     1      -3.447  12.679  20.268  0.00  0.00    +0.000 OA
ATOM     29  C   UNL     1      -2.901  12.773  21.573  0.00  0.00    +0.000 C 
ENDBRANCH  24  28
BRANCH  25  30
ATOM     30  O   UNL     1      -4.800  11.370  18.095  0.00  0.00    +0.000 OA
ATOM     31  C   UNL     1      -5.297  12.177  17.042  0.00  0.00    +0.000 C 
ENDBRANCH  25  30
ENDBRANCH  19  22
ENDBRANCH   1  19
TORSDOF 10
ENDMDL
MODEL 6
REMARK VINA RESULT:      -7.5      1.696      2.102
REMARK  Name = 
REMARK  14 active torsions:
REMARK  status: ('A' for Active; 'I' for Inactive)
REMARK    1  A    between atoms: C_1  and  O_2
REMARK    2  A    between atoms: O_2  and  C_3
REMARK    3  A    between atoms: C_5  and  O_6
REMARK    4  A    between atoms: O_6  and  C_7
REMARK    5  A    between atoms: C_10  and  S_11
REMARK    6  A    between atoms: S_11  and  C_14
REMARK    7  A    between atoms: C_14  and  C_15
REMARK    8  A    between atoms: C_15  and  C_16
REMARK    9  A    between atoms: C_15  and  C_17
REMARK   10  A    between atoms: N_19  and  O_20
REMARK   11  A    between atoms: C_24  and  O_25
REMARK   12  A    between atoms: O_25  and  C_26
REMARK   13  A    between atoms: C_27  and  O_28
REMARK   14  A    between atoms: O_28  and  C_29
REMARK                            x       y       z     vdW  Elec       q    Type
REMARK                         _______ _______ _______ _____ _____    ______ ____
ROOT
ATOM      1  C   UNL     1       1.143   9.640  19.230  0.00  0.00    +0.000 A 
ATOM      2  C   UNL     1       1.049   8.907  20.416  0.00  0.00    +0.000 A 
ATOM      3  C   UNL     1       1.623   7.638  20.507  0.00  0.00    +0.000 A 
ATOM      4  C   UNL     1       2.274   7.099  19.393  0.00  0.00    +0.000 A 
ATOM      5  C   UNL     1       2.376   7.824  18.203  0.00  0.00    +0.000 A 
ATOM      6  C   UNL     1       1.785   9.091  18.117  0.00  0.00    +0.000 A 
ENDROOT
BRANCH   4   7
ATOM      7  S   UNL     1       3.021   5.489  19.526  0.00  0.00    +0.000 S 
ATOM      8  O   UNL     1       4.458   5.658  19.442  0.00  0.00    +0.000 OA
ATOM      9  O   UNL     1       2.408   4.867  20.681  0.00  0.00    +0.000 OA
BRANCH   7  10
ATOM     10  C   UNL     1       2.494   4.636  18.057  0.00  0.00    +0.000 C 
BRANCH  10  11
ATOM     11  C   UNL     1       3.521   3.617  17.537  0.00  0.00    +0.000 C 
ATOM     12  C   UNL     1       4.841   4.270  17.122  0.00  0.00    +0.000 C 
BRANCH  11  13
ATOM     13  C   UNL     1       3.774   2.584  18.629  0.00  0.00    +0.000 C 
ATOM     14  O   UNL     1       2.946   1.737  18.964  0.00  0.00    +0.000 OA
ATOM     15  N   UNL     1       5.015   2.636  19.215  0.00  0.00    +0.000 N 
ATOM     16  H   UNL     1       5.653   3.422  19.146  0.00  0.00    +0.000 HD
BRANCH  15  17
ATOM     17  O   UNL     1       5.226   1.754  20.300  0.00  0.00    +0.000 OA
ATOM     18  H   UNL     1       5.715   2.316  20.939  0.00  0.00    +0.000 HD
ENDBRANCH  15  17
ENDBRANCH  11  13
ENDBRANCH  10  11
ENDBRANCH   7  10
ENDBRANCH   4   7
BRANCH   1  19
ATOM     19  O   UNL     1       0.483  10.847  19.221  0.00  0.00    +0.000 OA
BRANCH  19  22
ATOM     20  C   UNL     1      -2.967  12.021  19.271  0.00  0.00    +0.000 A 
ATOM     21  C   UNL     1      -1.626  11.768  19.614  0.00  0.00    +0.000 A 
ATOM     22  C   UNL     1      -0.836  10.927  18.841  0.00  0.00    +0.000 A 
ATOM     23  C   UNL     1      -1.387  10.328  17.716  0.00  0.00    +0.000 A 
ATOM     24  C   UNL     1      -2.749  10.485  17.410  0.00  0.00    +0.000 A 
ATOM     25  C   UNL     1      -3.566  11.330  18.193  0.00  0.00    +0.000 A 
BRANCH  20  27
ATOM     26  C   UNL     1      -3.083  13.382  21.210  0.00  0.00    +0.000 C 
ATOM     27  O   UNL     1      -3.703  12.918  20.007  0.00  0.00    +0.000 OA
ENDBRANCH  20  27
BRANCH  24  28
ATOM     28  O   UNL     1      -3.089   9.746  16.301  0.00  0.00    +0.000 OA
ATOM     29  C   UNL     1      -2.986  10.322  15.010  0.00  0.00    +0.000 C 
ENDBRANCH  24  28
BRANCH  25  30
ATOM     30  O   UNL     1      -4.883  11.389  17.833  0.00  0.00    +0.000 OA
ATOM     31  C   UNL     1      -5.865  10.608  18.491  0.00  0.00    +0.000 C 
ENDBRANCH  25  30
ENDBRANCH  19  22
ENDBRANCH   1  19
TORSDOF 10
ENDMDL
MODEL 7
REMARK VINA RESULT:      -7.5      3.253      9.577
REMARK  Name = 
REMARK  14 active torsions:
REMARK  status: ('A' for Active; 'I' for Inactive)
REMARK    1  A    between atoms: C_1  and  O_2
REMARK    2  A    between atoms: O_2  and  C_3
REMARK    3  A    between atoms: C_5  and  O_6
REMARK    4  A    between atoms: O_6  and  C_7
REMARK    5  A    between atoms: C_10  and  S_11
REMARK    6  A    between atoms: S_11  and  C_14
REMARK    7  A    between atoms: C_14  and  C_15
REMARK    8  A    between atoms: C_15  and  C_16
REMARK    9  A    between atoms: C_15  and  C_17
REMARK   10  A    between atoms: N_19  and  O_20
REMARK   11  A    between atoms: C_24  and  O_25
REMARK   12  A    between atoms: O_25  and  C_26
REMARK   13  A    between atoms: C_27  and  O_28
REMARK   14  A    between atoms: O_28  and  C_29
REMARK                            x       y       z     vdW  Elec       q    Type
REMARK                         _______ _______ _______ _____ _____    ______ ____
ROOT
ATOM      1  C   UNL     1       2.296   8.146  18.406  0.00  0.00    +0.000 A 
ATOM      2  C   UNL     1       1.993   9.382  17.827  0.00  0.00    +0.000 A 
ATOM      3  C   UNL     1       1.344  10.367  18.572  0.00  0.00    +0.000 A 
ATOM      4  C   UNL     1       0.981  10.098  19.896  0.00  0.00    +0.000 A 
ATOM      5  C   UNL     1       1.280   8.867  20.484  0.00  0.00    +0.000 A 
ATOM      6  C   UNL     1       1.920   7.879  19.725  0.00  0.00    +0.000 A 
ENDROOT
BRANCH   4   7
ATOM      7  S   UNL     1       0.171  11.369  20.843  0.00  0.00    +0.000 S 
ATOM      8  O   UNL     1      -0.747  10.723  21.759  0.00  0.00    +0.000 OA
ATOM      9  O   UNL     1       1.230  12.229  21.329  0.00  0.00    +0.000 OA
BRANCH   7  10
ATOM     10  C   UNL     1      -0.800  12.259  19.647  0.00  0.00    +0.000 C 
BRANCH  10  11
ATOM     11  C   UNL     1      -2.296  11.908  19.689  0.00  0.00    +0.000 C 
ATOM     12  C   UNL     1      -3.130  12.964  20.418  0.00  0.00    +0.000 C 
BRANCH  11  13
ATOM     13  C   UNL     1      -2.797  11.748  18.258  0.00  0.00    +0.000 C 
ATOM     14  O   UNL     1      -3.983  11.594  17.968  0.00  0.00    +0.000 OA
ATOM     15  N   UNL     1      -1.829  11.811  17.285  0.00  0.00    +0.000 N 
ATOM     16  H   UNL     1      -0.833  11.719  17.454  0.00  0.00    +0.000 HD
BRANCH  15  17
ATOM     17  O   UNL     1      -2.263  11.559  15.962  0.00  0.00    +0.000 OA
ATOM     18  H   UNL     1      -2.747  12.383  15.736  0.00  0.00    +0.000 HD
ENDBRANCH  15  17
ENDBRANCH  11  13
ENDBRANCH  10  11
ENDBRANCH   7  10
ENDBRANCH   4   7
BRANCH   1  19
ATOM     19  O   UNL     1       2.872   7.220  17.567  0.00  0.00    +0.000 OA
BRANCH  19  22
ATOM     20  C   UNL     1       2.998   3.668  18.376  0.00  0.00    +0.000 A 
ATOM     21  C   UNL     1       2.550   4.948  18.000  0.00  0.00    +0.000 A 
ATOM     22  C   UNL     1       3.395   6.049  18.062  0.00  0.00    +0.000 A 
ATOM     23  C   UNL     1       4.700   5.874  18.507  0.00  0.00    +0.000 A 
ATOM     24  C   UNL     1       5.139   4.627  18.982  0.00  0.00    +0.000 A 
ATOM     25  C   UNL     1       4.286   3.503  18.933  0.00  0.00    +0.000 A 
BRANCH  20  27
ATOM     26  C   UNL     1       0.971   2.614  19.015  0.00  0.00    +0.000 C 
ATOM     27  O   UNL     1       2.166   2.584  18.229  0.00  0.00    +0.000 OA
ENDBRANCH  20  27
BRANCH  24  28
ATOM     28  O   UNL     1       6.433   4.707  19.438  0.00  0.00    +0.000 OA
ATOM     29  C   UNL     1       7.239   5.819  19.086  0.00  0.00    +0.000 C 
ENDBRANCH  24  28
BRANCH  25  30
ATOM     30  O   UNL     1       4.795   2.344  19.450  0.00  0.00    +0.000 OA
ATOM     31  C   UNL     1       4.458   1.906  20.754  0.00  0.00    +0.000 C 
ENDBRANCH  25  30
ENDBRANCH  19  22
ENDBRANCH   1  19
TORSDOF 10
ENDMDL
MODEL 8
REMARK VINA RESULT:      -7.4      0.633      1.099
REMARK  Name = 
REMARK  14 active torsions:
REMARK  status: ('A' for Active; 'I' for Inactive)
REMARK    1  A    between atoms: C_1  and  O_2
REMARK    2  A    between atoms: O_2  and  C_3
REMARK    3  A    between atoms: C_5  and  O_6
REMARK    4  A    between atoms: O_6  and  C_7
REMARK    5  A    between atoms: C_10  and  S_11
REMARK    6  A    between atoms: S_11  and  C_14
REMARK    7  A    between atoms: C_14  and  C_15
REMARK    8  A    between atoms: C_15  and  C_16
REMARK    9  A    between atoms: C_15  and  C_17
REMARK   10  A    between atoms: N_19  and  O_20
REMARK   11  A    between atoms: C_24  and  O_25
REMARK   12  A    between atoms: O_25  and  C_26
REMARK   13  A    between atoms: C_27  and  O_28
REMARK   14  A    between atoms: O_28  and  C_29
REMARK                            x       y       z     vdW  Elec       q    Type
REMARK                         _______ _______ _______ _____ _____    ______ ____
ROOT
ATOM      1  C   UNL     1       1.051   9.595  19.103  0.00  0.00    +0.000 A 
ATOM      2  C   UNL     1       1.686   9.367  17.878  0.00  0.00    +0.000 A 
ATOM      3  C   UNL     1       2.461   8.222  17.690  0.00  0.00    +0.000 A 
ATOM      4  C   UNL     1       2.614   7.317  18.746  0.00  0.00    +0.000 A 
ATOM      5  C   UNL     1       1.984   7.535  19.972  0.00  0.00    +0.000 A 
ATOM      6  C   UNL     1       1.218   8.693  20.157  0.00  0.00    +0.000 A 
ENDROOT
BRANCH   4   7
ATOM      7  S   UNL     1       3.589   5.850  18.489  0.00  0.00    +0.000 S 
ATOM      8  O   UNL     1       4.287   5.558  19.725  0.00  0.00    +0.000 OA
ATOM      9  O   UNL     1       2.692   4.884  17.891  0.00  0.00    +0.000 OA
BRANCH   7  10
ATOM     10  C   UNL     1       4.807   6.335  17.286  0.00  0.00    +0.000 C 
BRANCH  10  11
ATOM     11  C   UNL     1       5.774   5.204  16.902  0.00  0.00    +0.000 C 
ATOM     12  C   UNL     1       6.122   5.206  15.412  0.00  0.00    +0.000 C 
BRANCH  11  13
ATOM     13  C   UNL     1       7.044   5.349  17.732  0.00  0.00    +0.000 C 
ATOM     14  O   UNL     1       7.805   4.413  17.975  0.00  0.00    +0.000 OA
ATOM     15  N   UNL     1       7.311   6.618  18.185  0.00  0.00    +0.000 N 
ATOM     16  H   UNL     1       6.637   7.376  18.210  0.00  0.00    +0.000 HD
BRANCH  15  17
ATOM     17  O   UNL     1       8.427   6.748  19.044  0.00  0.00    +0.000 OA
ATOM     18  H   UNL     1       8.158   7.487  19.632  0.00  0.00    +0.000 HD
ENDBRANCH  15  17
ENDBRANCH  11  13
ENDBRANCH  10  11
ENDBRANCH   7  10
ENDBRANCH   4   7
BRANCH   1  19
ATOM     19  O   UNL     1       0.370  10.786  19.208  0.00  0.00    +0.000 OA
BRANCH  19  22
ATOM     20  C   UNL     1      -3.063  12.012  19.274  0.00  0.00    +0.000 A 
ATOM     21  C   UNL     1      -1.721  11.748  19.605  0.00  0.00    +0.000 A 
ATOM     22  C   UNL     1      -0.953  10.875  18.844  0.00  0.00    +0.000 A 
ATOM     23  C   UNL     1      -1.530  10.254  17.743  0.00  0.00    +0.000 A 
ATOM     24  C   UNL     1      -2.894  10.423  17.452  0.00  0.00    +0.000 A 
ATOM     25  C   UNL     1      -3.686  11.301  18.224  0.00  0.00    +0.000 A 
BRANCH  20  27
ATOM     26  C   UNL     1      -3.829  12.712  21.407  0.00  0.00    +0.000 C 
ATOM     27  O   UNL     1      -3.774  12.940  19.995  0.00  0.00    +0.000 OA
ENDBRANCH  20  27
BRANCH  24  28
ATOM     28  O   UNL     1      -3.260   9.660  16.369  0.00  0.00    +0.000 OA
ATOM     29  C   UNL     1      -3.040  10.146  15.056  0.00  0.00    +0.000 C 
ENDBRANCH  24  28
BRANCH  25  30
ATOM     30  O   UNL     1      -5.008  11.370  17.881  0.00  0.00    +0.000 OA
ATOM     31  C   UNL     1      -5.484  12.342  16.966  0.00  0.00    +0.000 C 
ENDBRANCH  25  30
ENDBRANCH  19  22
ENDBRANCH   1  19
TORSDOF 10
ENDMDL
MODEL 9
REMARK VINA RESULT:      -7.4      3.065      9.722
REMARK  Name = 
REMARK  14 active torsions:
REMARK  status: ('A' for Active; 'I' for Inactive)
REMARK    1  A    between atoms: C_1  and  O_2
REMARK    2  A    between atoms: O_2  and  C_3
REMARK    3  A    between atoms: C_5  and  O_6
REMARK    4  A    between atoms: O_6  and  C_7
REMARK    5  A    between atoms: C_10  and  S_11
REMARK    6  A    between atoms: S_11  and  C_14
REMARK    7  A    between atoms: C_14  and  C_15
REMARK    8  A    between atoms: C_15  and  C_16
REMARK    9  A    between atoms: C_15  and  C_17
REMARK   10  A    between atoms: N_19  and  O_20
REMARK   11  A    between atoms: C_24  and  O_25
REMARK   12  A    between atoms: O_25  and  C_26
REMARK   13  A    between atoms: C_27  and  O_28
REMARK   14  A    between atoms: O_28  and  C_29
REMARK                            x       y       z     vdW  Elec       q    Type
REMARK                         _______ _______ _______ _____ _____    ______ ____
ROOT
ATOM      1  C   UNL     1       1.973   8.088  18.647  0.00  0.00    +0.000 A 
ATOM      2  C   UNL     1       1.779   9.248  17.892  0.00  0.00    +0.000 A 
ATOM      3  C   UNL     1       1.309  10.412  18.499  0.00  0.00    +0.000 A 
ATOM      4  C   UNL     1       1.012  10.401  19.866  0.00  0.00    +0.000 A 
ATOM      5  C   UNL     1       1.204   9.248  20.630  0.00  0.00    +0.000 A 
ATOM      6  C   UNL     1       1.664   8.080  20.010  0.00  0.00    +0.000 A 
ENDROOT
BRANCH   4   7
ATOM      7  S   UNL     1       0.432  11.898  20.634  0.00  0.00    +0.000 S 
ATOM      8  O   UNL     1      -0.268  11.531  21.850  0.00  0.00    +0.000 OA
ATOM      9  O   UNL     1       1.572  12.789  20.669  0.00  0.00    +0.000 OA
BRANCH   7  10
ATOM     10  C   UNL     1      -0.774  12.539  19.494  0.00  0.00    +0.000 C 
BRANCH  10  11
ATOM     11  C   UNL     1      -2.159  11.885  19.633  0.00  0.00    +0.000 C 
ATOM     12  C   UNL     1      -3.151  12.760  20.402  0.00  0.00    +0.000 C 
BRANCH  11  13
ATOM     13  C   UNL     1      -2.697  11.591  18.237  0.00  0.00    +0.000 C 
ATOM     14  O   UNL     1      -3.835  11.171  18.025  0.00  0.00    +0.000 OA
ATOM     15  N   UNL     1      -1.831  11.851  17.204  0.00  0.00    +0.000 N 
ATOM     16  H   UNL     1      -0.831  11.987  17.309  0.00  0.00    +0.000 HD
BRANCH  15  17
ATOM     17  O   UNL     1      -2.278  11.484  15.913  0.00  0.00    +0.000 OA
ATOM     18  H   UNL     1      -3.141  11.948  15.847  0.00  0.00    +0.000 HD
ENDBRANCH  15  17
ENDBRANCH  11  13
ENDBRANCH  10  11
ENDBRANCH   7  10
ENDBRANCH   4   7
BRANCH   1  19
ATOM     19  O   UNL     1       2.372   6.976  17.941  0.00  0.00    +0.000 OA
BRANCH  19  22
ATOM     20  C   UNL     1       5.050   4.690  18.886  0.00  0.00    +0.000 A 
ATOM     21  C   UNL     1       3.805   5.339  18.790  0.00  0.00    +0.000 A 
ATOM     22  C   UNL     1       3.658   6.501  18.043  0.00  0.00    +0.000 A 
ATOM     23  C   UNL     1       4.765   7.025  17.386  0.00  0.00    +0.000 A 
ATOM     24  C   UNL     1       6.038   6.453  17.548  0.00  0.00    +0.000 A 
ATOM     25  C   UNL     1       6.201   5.278  18.313  0.00  0.00    +0.000 A 
BRANCH  20  27
ATOM     26  C   UNL     1       4.023   2.626  19.444  0.00  0.00    +0.000 C 
ATOM     27  O   UNL     1       5.149   3.501  19.566  0.00  0.00    +0.000 OA
ENDBRANCH  20  27
BRANCH  24  28
ATOM     28  O   UNL     1       6.989   7.178  16.870  0.00  0.00    +0.000 OA
ATOM     29  C   UNL     1       7.716   8.192  17.542  0.00  0.00    +0.000 C 
ENDBRANCH  24  28
BRANCH  25  30
ATOM     30  O   UNL     1       7.483   4.819  18.438  0.00  0.00    +0.000 OA
ATOM     31  C   UNL     1       8.325   5.254  19.491  0.00  0.00    +0.000 C 
ENDBRANCH  25  30
ENDBRANCH  19  22
ENDBRANCH   1  19
TORSDOF 10
ENDMDL
