MODEL 1
REMARK VINA RESULT:      -8.2      0.000      0.000
REMARK  Name = 
REMARK  5 active torsions:
REMARK  status: ('A' for Active; 'I' for Inactive)
REMARK    1  A    between atoms: C_2  and  C_3
REMARK    2  A    between atoms: C_6  and  N_7
REMARK    3  A    between atoms: C_12  and  C_13
REMARK    4  A    between atoms: N_15  and  C_16
REMARK    5  A    between atoms: C_16  and  C_17
REMARK                            x       y       z     vdW  Elec       q    Type
REMARK                         _______ _______ _______ _____ _____    ______ ____
ROOT
ATOM      1  N   UNL     1       3.424   4.107  19.446  0.00  0.00    +0.000 N 
ATOM      2  C   UNL     1       3.356   2.913  20.189  0.00  0.00    +0.000 C 
ATOM      3  O   UNL     1       4.145   1.982  20.241  0.00  0.00    +0.000 OA
ATOM      4  C   UNL     1       2.051   2.880  20.938  0.00  0.00    +0.000 C 
ATOM      5  C   UNL     1       1.592   4.317  20.916  0.00  0.00    +0.000 C 
ATOM      6  C   UNL     1       2.217   4.899  19.652  0.00  0.00    +0.000 C 
ENDROOT
BRANCH   1  10
ATOM      7  C   UNL     1       6.146   4.785  16.209  0.00  0.00    +0.000 A 
ATOM      8  C   UNL     1       4.837   4.396  15.962  0.00  0.00    +0.000 A 
ATOM      9  C   UNL     1       3.953   4.174  17.028  0.00  0.00    +0.000 A 
ATOM     10  C   UNL     1       4.344   4.335  18.369  0.00  0.00    +0.000 A 
ATOM     11  C   UNL     1       5.665   4.754  18.588  0.00  0.00    +0.000 A 
ATOM     12  C   UNL     1       6.561   4.967  17.527  0.00  0.00    +0.000 A 
BRANCH   7  14
ATOM     13  N   UNL     1       7.796   5.188  14.247  0.00  0.00    +0.000 NA
ATOM     14  C   UNL     1       7.057   5.010  15.124  0.00  0.00    +0.000 C 
ENDBRANCH   7  14
ENDBRANCH   1  10
BRANCH   6  15
ATOM     15  C   UNL     1       2.346   6.420  19.845  0.00  0.00    +0.000 C 
ATOM     16  O   UNL     1       3.010   7.096  19.057  0.00  0.00    +0.000 OA
ATOM     17  N   UNL     1       1.618   6.994  20.863  0.00  0.00    +0.000 N 
ATOM     18  H   UNL     1       1.345   6.397  21.638  0.00  0.00    +0.000 HD
BRANCH  17  19
ATOM     19  C   UNL     1       1.801   8.410  21.116  0.00  0.00    +0.000 C 
BRANCH  19  20
ATOM     20  C   UNL     1       0.725   9.291  20.536  0.00  0.00    +0.000 A 
ATOM     21  C   UNL     1       0.718   9.543  19.151  0.00  0.00    +0.000 A 
ATOM     22  C   UNL     1      -0.224  10.407  18.584  0.00  0.00    +0.000 A 
ATOM     23  C   UNL     1      -1.170  11.025  19.395  0.00  0.00    +0.000 A 
ATOM     24 CL   UNL     1      -2.332  12.085  18.698  0.00  0.00    +0.000 Cl
ATOM     25  C   UNL     1      -1.178  10.798  20.768  0.00  0.00    +0.000 A 
ATOM     26  C   UNL     1      -0.232   9.940  21.336  0.00  0.00    +0.000 A 
ATOM     27 CL   UNL     1      -0.272   9.727  23.051  0.00  0.00    +0.000 Cl
ENDBRANCH  19  20
ENDBRANCH  17  19
ENDBRANCH   6  15
TORSDOF 5
ENDMDL
MODEL 2
REMARK VINA RESULT:      -8.1      0.403      1.014
REMARK  Name = 
REMARK  5 active torsions:
REMARK  status: ('A' for Active; 'I' for Inactive)
REMARK    1  A    between atoms: C_2  and  C_3
REMARK    2  A    between atoms: C_6  and  N_7
REMARK    3  A    between atoms: C_12  and  C_13
REMARK    4  A    between atoms: N_15  and  C_16
REMARK    5  A    between atoms: C_16  and  C_17
REMARK                            x       y       z     vdW  Elec       q    Type
REMARK                         _______ _______ _______ _____ _____    ______ ____
ROOT
ATOM      1  N   UNL     1       3.703   4.053  19.340  0.00  0.00    +0.000 N 
ATOM      2  C   UNL     1       3.738   2.873  20.108  0.00  0.00    +0.000 C 
ATOM      3  O   UNL     1       4.573   1.981  20.127  0.00  0.00    +0.000 OA
ATOM      4  C   UNL     1       2.486   2.795  20.937  0.00  0.00    +0.000 C 
ATOM      5  C   UNL     1       1.958   4.207  20.919  0.00  0.00    +0.000 C 
ATOM      6  C   UNL     1       2.475   4.792  19.608  0.00  0.00    +0.000 C 
ENDROOT
BRANCH   1  10
ATOM      7  C   UNL     1       6.236   4.804  15.968  0.00  0.00    +0.000 A 
ATOM      8  C   UNL     1       6.635   5.166  17.247  0.00  0.00    +0.000 A 
ATOM      9  C   UNL     1       5.798   4.918  18.345  0.00  0.00    +0.000 A 
ATOM     10  C   UNL     1       4.543   4.301  18.204  0.00  0.00    +0.000 A 
ATOM     11  C   UNL     1       4.176   3.923  16.904  0.00  0.00    +0.000 A 
ATOM     12  C   UNL     1       5.002   4.178  15.797  0.00  0.00    +0.000 A 
BRANCH   7  14
ATOM     13  N   UNL     1       7.769   5.267  13.927  0.00  0.00    +0.000 NA
ATOM     14  C   UNL     1       7.084   5.057  14.840  0.00  0.00    +0.000 C 
ENDBRANCH   7  14
ENDBRANCH   1  10
BRANCH   6  15
ATOM     15  C   UNL     1       2.542   6.321  19.765  0.00  0.00    +0.000 C 
ATOM     16  O   UNL     1       3.196   7.002  18.973  0.00  0.00    +0.000 OA
ATOM     17  N   UNL     1       1.773   6.892  20.754  0.00  0.00    +0.000 N 
ATOM     18  H   UNL     1       1.507   6.303  21.537  0.00  0.00    +0.000 HD
BRANCH  17  19
ATOM     19  C   UNL     1       1.897   8.319  20.974  0.00  0.00    +0.000 C 
BRANCH  19  20
ATOM     20  C   UNL     1       0.863   9.152  20.262  0.00  0.00    +0.000 A 
ATOM     21  C   UNL     1       1.045   9.451  18.898  0.00  0.00    +0.000 A 
ATOM     22  C   UNL     1       0.143  10.275  18.218  0.00  0.00    +0.000 A 
ATOM     23  C   UNL     1      -0.951  10.806  18.893  0.00  0.00    +0.000 A 
ATOM     24 CL   UNL     1      -2.064  11.816  18.056  0.00  0.00    +0.000 Cl
ATOM     25  C   UNL     1      -1.147  10.532  20.244  0.00  0.00    +0.000 A 
ATOM     26  C   UNL     1      -0.241   9.714  20.925  0.00  0.00    +0.000 A 
ATOM     27 CL   UNL     1      -0.521   9.440  22.609  0.00  0.00    +0.000 Cl
ENDBRANCH  19  20
ENDBRANCH  17  19
ENDBRANCH   6  15
TORSDOF 5
ENDMDL
MODEL 3
REMARK VINA RESULT:      -8.0      1.279      1.923
REMARK  Name = 
REMARK  5 active torsions:
REMARK  status: ('A' for Active; 'I' for Inactive)
REMARK    1  A    between atoms: C_2  and  C_3
REMARK    2  A    between atoms: C_6  and  N_7
REMARK    3  A    between atoms: C_12  and  C_13
REMARK    4  A    between atoms: N_15  and  C_16
REMARK    5  A    between atoms: C_16  and  C_17
REMARK                            x       y       z     vdW  Elec       q    Type
REMARK                         _______ _______ _______ _____ _____    ______ ____
ROOT
ATOM      1  N   UNL     1       3.292   4.613  19.375  0.00  0.00    +0.000 N 
ATOM      2  C   UNL     1       3.199   3.495  20.227  0.00  0.00    +0.000 C 
ATOM      3  O   UNL     1       3.981   2.571  20.386  0.00  0.00    +0.000 OA
ATOM      4  C   UNL     1       1.877   3.540  20.944  0.00  0.00    +0.000 C 
ATOM      5  C   UNL     1       1.427   4.969  20.775  0.00  0.00    +0.000 C 
ATOM      6  C   UNL     1       2.086   5.427  19.477  0.00  0.00    +0.000 C 
ENDROOT
BRANCH   1  10
ATOM      7  C   UNL     1       6.097   4.960  16.157  0.00  0.00    +0.000 A 
ATOM      8  C   UNL     1       4.924   4.235  15.998  0.00  0.00    +0.000 A 
ATOM      9  C   UNL     1       4.013   4.125  17.058  0.00  0.00    +0.000 A 
ATOM     10  C   UNL     1       4.239   4.734  18.305  0.00  0.00    +0.000 A 
ATOM     11  C   UNL     1       5.420   5.482  18.429  0.00  0.00    +0.000 A 
ATOM     12  C   UNL     1       6.344   5.588  17.377  0.00  0.00    +0.000 A 
BRANCH   7  14
ATOM     13  N   UNL     1       7.798   5.171  14.208  0.00  0.00    +0.000 NA
ATOM     14  C   UNL     1       7.036   5.074  15.078  0.00  0.00    +0.000 C 
ENDBRANCH   7  14
ENDBRANCH   1  10
BRANCH   6  15
ATOM     15  C   UNL     1       2.219   6.958  19.528  0.00  0.00    +0.000 C 
ATOM     16  O   UNL     1       2.621   7.583  18.544  0.00  0.00    +0.000 OA
ATOM     17  N   UNL     1       1.783   7.596  20.667  0.00  0.00    +0.000 N 
ATOM     18  H   UNL     1       1.751   7.052  21.524  0.00  0.00    +0.000 HD
BRANCH  17  19
ATOM     19  C   UNL     1       1.988   9.027  20.767  0.00  0.00    +0.000 C 
BRANCH  19  20
ATOM     20  C   UNL     1       0.860   9.773  21.433  0.00  0.00    +0.000 A 
ATOM     21  C   UNL     1       0.397   9.337  22.689  0.00  0.00    +0.000 A 
ATOM     22  C   UNL     1      -0.689   9.961  23.310  0.00  0.00    +0.000 A 
ATOM     23  C   UNL     1      -1.321  11.030  22.682  0.00  0.00    +0.000 A 
ATOM     24 CL   UNL     1      -2.655  11.802  23.447  0.00  0.00    +0.000 Cl
ATOM     25  C   UNL     1      -0.887  11.474  21.437  0.00  0.00    +0.000 A 
ATOM     26  C   UNL     1       0.194  10.844  20.813  0.00  0.00    +0.000 A 
ATOM     27 CL   UNL     1       0.663  11.419  19.252  0.00  0.00    +0.000 Cl
ENDBRANCH  19  20
ENDBRANCH  17  19
ENDBRANCH   6  15
TORSDOF 5
ENDMDL
MODEL 4
REMARK VINA RESULT:      -7.7      1.293      1.482
REMARK  Name = 
REMARK  5 active torsions:
REMARK  status: ('A' for Active; 'I' for Inactive)
REMARK    1  A    between atoms: C_2  and  C_3
REMARK    2  A    between atoms: C_6  and  N_7
REMARK    3  A    between atoms: C_12  and  C_13
REMARK    4  A    between atoms: N_15  and  C_16
REMARK    5  A    between atoms: C_16  and  C_17
REMARK                            x       y       z     vdW  Elec       q    Type
REMARK                         _______ _______ _______ _____ _____    ______ ____
ROOT
ATOM      1  N   UNL     1       3.254   4.648  19.200  0.00  0.00    +0.000 N 
ATOM      2  C   UNL     1       3.213   3.518  20.040  0.00  0.00    +0.000 C 
ATOM      3  O   UNL     1       4.037   2.628  20.188  0.00  0.00    +0.000 OA
ATOM      4  C   UNL     1       1.892   3.495  20.759  0.00  0.00    +0.000 C 
ATOM      5  C   UNL     1       1.378   4.904  20.606  0.00  0.00    +0.000 C 
ATOM      6  C   UNL     1       2.013   5.404  19.312  0.00  0.00    +0.000 C 
ENDROOT
BRANCH   1  10
ATOM      7  C   UNL     1       6.038   5.150  15.983  0.00  0.00    +0.000 A 
ATOM      8  C   UNL     1       5.017   4.215  15.895  0.00  0.00    +0.000 A 
ATOM      9  C   UNL     1       4.112   4.055  16.954  0.00  0.00    +0.000 A 
ATOM     10  C   UNL     1       4.192   4.823  18.129  0.00  0.00    +0.000 A 
ATOM     11  C   UNL     1       5.218   5.780  18.180  0.00  0.00    +0.000 A 
ATOM     12  C   UNL     1       6.137   5.938  17.130  0.00  0.00    +0.000 A 
BRANCH   7  14
ATOM     13  N   UNL     1       7.720   5.455  14.032  0.00  0.00    +0.000 NA
ATOM     14  C   UNL     1       6.970   5.317  14.906  0.00  0.00    +0.000 C 
ENDBRANCH   7  14
ENDBRANCH   1  10
BRANCH   6  15
ATOM     15  C   UNL     1       2.076   6.940  19.379  0.00  0.00    +0.000 C 
ATOM     16  O   UNL     1       2.299   7.509  20.449  0.00  0.00    +0.000 OA
ATOM     17  N   UNL     1       1.973   7.632  18.193  0.00  0.00    +0.000 N 
ATOM     18  H   UNL     1       1.505   7.168  17.420  0.00  0.00    +0.000 HD
BRANCH  17  19
ATOM     19  C   UNL     1       1.937   9.080  18.251  0.00  0.00    +0.000 C 
BRANCH  19  20
ATOM     20  C   UNL     1       0.554   9.666  18.362  0.00  0.00    +0.000 A 
ATOM     21  C   UNL     1      -0.368   9.449  17.320  0.00  0.00    +0.000 A 
ATOM     22  C   UNL     1      -1.640  10.030  17.355  0.00  0.00    +0.000 A 
ATOM     23  C   UNL     1      -2.003  10.831  18.432  0.00  0.00    +0.000 A 
ATOM     24 CL   UNL     1      -3.568  11.543  18.479  0.00  0.00    +0.000 Cl
ATOM     25  C   UNL     1      -1.106  11.068  19.470  0.00  0.00    +0.000 A 
ATOM     26  C   UNL     1       0.168  10.493  19.431  0.00  0.00    +0.000 A 
ATOM     27 CL   UNL     1       1.248  10.853  20.732  0.00  0.00    +0.000 Cl
ENDBRANCH  19  20
ENDBRANCH  17  19
ENDBRANCH   6  15
TORSDOF 5
ENDMDL
MODEL 5
REMARK VINA RESULT:      -7.7      1.397      2.174
REMARK  Name = 
REMARK  5 active torsions:
REMARK  status: ('A' for Active; 'I' for Inactive)
REMARK    1  A    between atoms: C_2  and  C_3
REMARK    2  A    between atoms: C_6  and  N_7
REMARK    3  A    between atoms: C_12  and  C_13
REMARK    4  A    between atoms: N_15  and  C_16
REMARK    5  A    between atoms: C_16  and  C_17
REMARK                            x       y       z     vdW  Elec       q    Type
REMARK                         _______ _______ _______ _____ _____    ______ ____
ROOT
ATOM      1  N   UNL     1       3.712   4.668  18.796  0.00  0.00    +0.000 N 
ATOM      2  C   UNL     1       3.838   3.671  19.782  0.00  0.00    +0.000 C 
ATOM      3  O   UNL     1       4.774   2.922  20.017  0.00  0.00    +0.000 OA
ATOM      4  C   UNL     1       2.548   3.582  20.551  0.00  0.00    +0.000 C 
ATOM      5  C   UNL     1       1.851   4.879  20.228  0.00  0.00    +0.000 C 
ATOM      6  C   UNL     1       2.385   5.270  18.853  0.00  0.00    +0.000 C 
ENDROOT
BRANCH   1  10
ATOM      7  C   UNL     1       6.367   5.110  15.464  0.00  0.00    +0.000 A 
ATOM      8  C   UNL     1       6.504   5.911  16.588  0.00  0.00    +0.000 A 
ATOM      9  C   UNL     1       5.629   5.761  17.674  0.00  0.00    +0.000 A 
ATOM     10  C   UNL     1       4.595   4.809  17.674  0.00  0.00    +0.000 A 
ATOM     11  C   UNL     1       4.496   3.995  16.535  0.00  0.00    +0.000 A 
ATOM     12  C   UNL     1       5.360   4.146  15.439  0.00  0.00    +0.000 A 
BRANCH   7  14
ATOM     13  N   UNL     1       7.976   5.387  13.446  0.00  0.00    +0.000 NA
ATOM     14  C   UNL     1       7.257   5.260  14.349  0.00  0.00    +0.000 C 
ENDBRANCH   7  14
ENDBRANCH   1  10
BRANCH   6  15
ATOM     15  C   UNL     1       2.249   6.795  18.709  0.00  0.00    +0.000 C 
ATOM     16  O   UNL     1       2.316   7.325  17.598  0.00  0.00    +0.000 OA
ATOM     17  N   UNL     1       1.957   7.517  19.844  0.00  0.00    +0.000 N 
ATOM     18  H   UNL     1       2.204   7.104  20.737  0.00  0.00    +0.000 HD
BRANCH  17  19
ATOM     19  C   UNL     1       1.918   8.962  19.741  0.00  0.00    +0.000 C 
BRANCH  19  20
ATOM     20  C   UNL     1       0.947   9.629  20.680  0.00  0.00    +0.000 A 
ATOM     21  C   UNL     1       0.475   8.915  21.799  0.00  0.00    +0.000 A 
ATOM     22  C   UNL     1      -0.475   9.473  22.658  0.00  0.00    +0.000 A 
ATOM     23  C   UNL     1      -0.963  10.753  22.409  0.00  0.00    +0.000 A 
ATOM     24 CL   UNL     1      -2.130  11.443  23.468  0.00  0.00    +0.000 Cl
ATOM     25  C   UNL     1      -0.519  11.475  21.305  0.00  0.00    +0.000 A 
ATOM     26  C   UNL     1       0.426  10.913  20.443  0.00  0.00    +0.000 A 
ATOM     27 CL   UNL     1       0.912  11.845  19.070  0.00  0.00    +0.000 Cl
ENDBRANCH  19  20
ENDBRANCH  17  19
ENDBRANCH   6  15
TORSDOF 5
ENDMDL
MODEL 6
REMARK VINA RESULT:      -7.6      1.088      1.757
REMARK  Name = 
REMARK  5 active torsions:
REMARK  status: ('A' for Active; 'I' for Inactive)
REMARK    1  A    between atoms: C_2  and  C_3
REMARK    2  A    between atoms: C_6  and  N_7
REMARK    3  A    between atoms: C_12  and  C_13
REMARK    4  A    between atoms: N_15  and  C_16
REMARK    5  A    between atoms: C_16  and  C_17
REMARK                            x       y       z     vdW  Elec       q    Type
REMARK                         _______ _______ _______ _____ _____    ______ ____
ROOT
ATOM      1  N   UNL     1       3.595   4.070  19.367  0.00  0.00    +0.000 N 
ATOM      2  C   UNL     1       3.540   2.879  20.116  0.00  0.00    +0.000 C 
ATOM      3  O   UNL     1       4.312   1.932  20.130  0.00  0.00    +0.000 OA
ATOM      4  C   UNL     1       2.275   2.874  20.930  0.00  0.00    +0.000 C 
ATOM      5  C   UNL     1       1.845   4.320  20.928  0.00  0.00    +0.000 C 
ATOM      6  C   UNL     1       2.417   4.888  19.633  0.00  0.00    +0.000 C 
ENDROOT
BRANCH   1  10
ATOM      7  C   UNL     1       6.216   4.693  16.037  0.00  0.00    +0.000 A 
ATOM      8  C   UNL     1       6.683   4.819  17.337  0.00  0.00    +0.000 A 
ATOM      9  C   UNL     1       5.817   4.615  18.422  0.00  0.00    +0.000 A 
ATOM     10  C   UNL     1       4.464   4.278  18.245  0.00  0.00    +0.000 A 
ATOM     11  C   UNL     1       4.025   4.132  16.920  0.00  0.00    +0.000 A 
ATOM     12  C   UNL     1       4.882   4.346  15.828  0.00  0.00    +0.000 A 
BRANCH   7  14
ATOM     13  N   UNL     1       7.801   5.073  14.018  0.00  0.00    +0.000 NA
ATOM     14  C   UNL     1       7.095   4.903  14.923  0.00  0.00    +0.000 C 
ENDBRANCH   7  14
ENDBRANCH   1  10
BRANCH   6  15
ATOM     15  C   UNL     1       2.586   6.406  19.815  0.00  0.00    +0.000 C 
ATOM     16  O   UNL     1       3.471   7.013  19.210  0.00  0.00    +0.000 OA
ATOM     17  N   UNL     1       1.659   7.059  20.595  0.00  0.00    +0.000 N 
ATOM     18  H   UNL     1       1.159   6.508  21.287  0.00  0.00    +0.000 HD
BRANCH  17  19
ATOM     19  C   UNL     1       1.858   8.471  20.853  0.00  0.00    +0.000 C 
BRANCH  19  20
ATOM     20  C   UNL     1       0.782   9.365  20.293  0.00  0.00    +0.000 A 
ATOM     21  C   UNL     1      -0.241   9.823  21.145  0.00  0.00    +0.000 A 
ATOM     22  C   UNL     1      -1.292  10.600  20.650  0.00  0.00    +0.000 A 
ATOM     23  C   UNL     1      -1.331  10.929  19.299  0.00  0.00    +0.000 A 
ATOM     24 CL   UNL     1      -2.622  11.889  18.689  0.00  0.00    +0.000 Cl
ATOM     25  C   UNL     1      -0.336  10.481  18.435  0.00  0.00    +0.000 A 
ATOM     26  C   UNL     1       0.711   9.698  18.929  0.00  0.00    +0.000 A 
ATOM     27 CL   UNL     1       1.896   9.142  17.800  0.00  0.00    +0.000 Cl
ENDBRANCH  19  20
ENDBRANCH  17  19
ENDBRANCH   6  15
TORSDOF 5
ENDMDL
MODEL 7
REMARK VINA RESULT:      -7.6      1.409      1.538
REMARK  Name = 
REMARK  5 active torsions:
REMARK  status: ('A' for Active; 'I' for Inactive)
REMARK    1  A    between atoms: C_2  and  C_3
REMARK    2  A    between atoms: C_6  and  N_7
REMARK    3  A    between atoms: C_12  and  C_13
REMARK    4  A    between atoms: N_15  and  C_16
REMARK    5  A    between atoms: C_16  and  C_17
REMARK                            x       y       z     vdW  Elec       q    Type
REMARK                         _______ _______ _______ _____ _____    ______ ____
ROOT
ATOM      1  N   UNL     1       3.357   3.615  17.987  0.00  0.00    +0.000 N 
ATOM      2  C   UNL     1       3.074   2.277  18.322  0.00  0.00    +0.000 C 
ATOM      3  O   UNL     1       3.741   1.271  18.137  0.00  0.00    +0.000 OA
ATOM      4  C   UNL     1       1.703   2.209  18.938  0.00  0.00    +0.000 C 
ATOM      5  C   UNL     1       1.417   3.638  19.328  0.00  0.00    +0.000 C 
ATOM      6  C   UNL     1       2.234   4.474  18.348  0.00  0.00    +0.000 C 
ENDROOT
BRANCH   1  10
ATOM      7  C   UNL     1       6.464   4.819  15.296  0.00  0.00    +0.000 A 
ATOM      8  C   UNL     1       5.225   4.423  14.813  0.00  0.00    +0.000 A 
ATOM      9  C   UNL     1       4.214   4.028  15.701  0.00  0.00    +0.000 A 
ATOM     10  C   UNL     1       4.404   4.019  17.094  0.00  0.00    +0.000 A 
ATOM     11  C   UNL     1       5.658   4.450  17.556  0.00  0.00    +0.000 A 
ATOM     12  C   UNL     1       6.680   4.835  16.673  0.00  0.00    +0.000 A 
BRANCH   7  14
ATOM     13  N   UNL     1       8.347   5.542  13.663  0.00  0.00    +0.000 NA
ATOM     14  C   UNL     1       7.504   5.221  14.393  0.00  0.00    +0.000 C 
ENDBRANCH   7  14
ENDBRANCH   1  10
BRANCH   6  15
ATOM     15  C   UNL     1       2.516   5.835  19.006  0.00  0.00    +0.000 C 
ATOM     16  O   UNL     1       2.962   5.893  20.154  0.00  0.00    +0.000 OA
ATOM     17  N   UNL     1       2.343   6.962  18.234  0.00  0.00    +0.000 N 
ATOM     18  H   UNL     1       1.713   6.892  17.441  0.00  0.00    +0.000 HD
BRANCH  17  19
ATOM     19  C   UNL     1       2.514   8.254  18.867  0.00  0.00    +0.000 C 
BRANCH  19  20
ATOM     20  C   UNL     1       1.243   9.050  19.015  0.00  0.00    +0.000 A 
ATOM     21  C   UNL     1       0.630   9.581  17.864  0.00  0.00    +0.000 A 
ATOM     22  C   UNL     1      -0.514  10.379  17.964  0.00  0.00    +0.000 A 
ATOM     23  C   UNL     1      -1.057  10.651  19.216  0.00  0.00    +0.000 A 
ATOM     24 CL   UNL     1      -2.467  11.629  19.340  0.00  0.00    +0.000 Cl
ATOM     25  C   UNL     1      -0.464  10.145  20.368  0.00  0.00    +0.000 A 
ATOM     26  C   UNL     1       0.684   9.353  20.268  0.00  0.00    +0.000 A 
ATOM     27 CL   UNL     1       1.394   8.783  21.737  0.00  0.00    +0.000 Cl
ENDBRANCH  19  20
ENDBRANCH  17  19
ENDBRANCH   6  15
TORSDOF 5
ENDMDL
MODEL 8
REMARK VINA RESULT:      -7.6      1.771      1.848
REMARK  Name = 
REMARK  5 active torsions:
REMARK  status: ('A' for Active; 'I' for Inactive)
REMARK    1  A    between atoms: C_2  and  C_3
REMARK    2  A    between atoms: C_6  and  N_7
REMARK    3  A    between atoms: C_12  and  C_13
REMARK    4  A    between atoms: N_15  and  C_16
REMARK    5  A    between atoms: C_16  and  C_17
REMARK                            x       y       z     vdW  Elec       q    Type
REMARK                         _______ _______ _______ _____ _____    ______ ____
ROOT
ATOM      1  N   UNL     1       3.016   3.796  18.820  0.00  0.00    +0.000 N 
ATOM      2  C   UNL     1       2.918   2.425  18.512  0.00  0.00    +0.000 C 
ATOM      3  O   UNL     1       3.773   1.657  18.100  0.00  0.00    +0.000 OA
ATOM      4  C   UNL     1       1.494   1.983  18.711  0.00  0.00    +0.000 C 
ATOM      5  C   UNL     1       0.898   3.075  19.564  0.00  0.00    +0.000 C 
ATOM      6  C   UNL     1       1.715   4.317  19.223  0.00  0.00    +0.000 C 
ENDROOT
BRANCH   1  10
ATOM      7  C   UNL     1       6.285   6.307  17.654  0.00  0.00    +0.000 A 
ATOM      8  C   UNL     1       5.075   6.361  16.977  0.00  0.00    +0.000 A 
ATOM      9  C   UNL     1       4.011   5.534  17.364  0.00  0.00    +0.000 A 
ATOM     10  C   UNL     1       4.117   4.631  18.437  0.00  0.00    +0.000 A 
ATOM     11  C   UNL     1       5.343   4.616  19.120  0.00  0.00    +0.000 A 
ATOM     12  C   UNL     1       6.418   5.432  18.732  0.00  0.00    +0.000 A 
BRANCH   7  14
ATOM     13  N   UNL     1       8.264   7.825  16.940  0.00  0.00    +0.000 NA
ATOM     14  C   UNL     1       7.379   7.148  17.262  0.00  0.00    +0.000 C 
ENDBRANCH   7  14
ENDBRANCH   1  10
BRANCH   6  15
ATOM     15  C   UNL     1       1.634   5.281  20.419  0.00  0.00    +0.000 C 
ATOM     16  O   UNL     1       1.833   4.872  21.565  0.00  0.00    +0.000 OA
ATOM     17  N   UNL     1       1.430   6.615  20.147  0.00  0.00    +0.000 N 
ATOM     18  H   UNL     1       0.987   6.849  19.264  0.00  0.00    +0.000 HD
BRANCH  17  19
ATOM     19  C   UNL     1       1.258   7.520  21.266  0.00  0.00    +0.000 C 
BRANCH  19  20
ATOM     20  C   UNL     1       0.874   8.924  20.879  0.00  0.00    +0.000 A 
ATOM     21  C   UNL     1       1.104   9.359  19.560  0.00  0.00    +0.000 A 
ATOM     22  C   UNL     1       0.822  10.674  19.178  0.00  0.00    +0.000 A 
ATOM     23  C   UNL     1       0.306  11.567  20.112  0.00  0.00    +0.000 A 
ATOM     24 CL   UNL     1      -0.045  13.185  19.642  0.00  0.00    +0.000 Cl
ATOM     25  C   UNL     1       0.079  11.164  21.424  0.00  0.00    +0.000 A 
ATOM     26  C   UNL     1       0.368   9.851  21.807  0.00  0.00    +0.000 A 
ATOM     27 CL   UNL     1       0.097   9.421  23.459  0.00  0.00    +0.000 Cl
ENDBRANCH  19  20
ENDBRANCH  17  19
ENDBRANCH   6  15
TORSDOF 5
ENDMDL
MODEL 9
REMARK VINA RESULT:      -7.5      1.083      1.481
REMARK  Name = 
REMARK  5 active torsions:
REMARK  status: ('A' for Active; 'I' for Inactive)
REMARK    1  A    between atoms: C_2  and  C_3
REMARK    2  A    between atoms: C_6  and  N_7
REMARK    3  A    between atoms: C_12  and  C_13
REMARK    4  A    between atoms: N_15  and  C_16
REMARK    5  A    between atoms: C_16  and  C_17
REMARK                            x       y       z     vdW  Elec       q    Type
REMARK                         _______ _______ _______ _____ _____    ______ ____
ROOT
ATOM      1  N   UNL     1       3.326   3.882  19.153  0.00  0.00    +0.000 N 
ATOM      2  C   UNL     1       3.129   2.615  19.737  0.00  0.00    +0.000 C 
ATOM      3  O   UNL     1       3.818   1.609  19.665  0.00  0.00    +0.000 OA
ATOM      4  C   UNL     1       1.822   2.622  20.482  0.00  0.00    +0.000 C 
ATOM      5  C   UNL     1       1.513   4.088  20.647  0.00  0.00    +0.000 C 
ATOM      6  C   UNL     1       2.206   4.761  19.466  0.00  0.00    +0.000 C 
ENDROOT
BRANCH   1  10
ATOM      7  C   UNL     1       6.132   4.683  16.017  0.00  0.00    +0.000 A 
ATOM      8  C   UNL     1       4.803   4.412  15.725  0.00  0.00    +0.000 A 
ATOM      9  C   UNL     1       3.892   4.148  16.758  0.00  0.00    +0.000 A 
ATOM     10  C   UNL     1       4.274   4.150  18.111  0.00  0.00    +0.000 A 
ATOM     11  C   UNL     1       5.618   4.453  18.379  0.00  0.00    +0.000 A 
ATOM     12  C   UNL     1       6.540   4.707  17.350  0.00  0.00    +0.000 A 
BRANCH   7  14
ATOM     13  N   UNL     1       7.826   5.166  14.112  0.00  0.00    +0.000 NA
ATOM     14  C   UNL     1       7.070   4.951  14.966  0.00  0.00    +0.000 C 
ENDBRANCH   7  14
ENDBRANCH   1  10
BRANCH   6  15
ATOM     15  C   UNL     1       2.489   6.223  19.853  0.00  0.00    +0.000 C 
ATOM     16  O   UNL     1       3.509   6.788  19.455  0.00  0.00    +0.000 OA
ATOM     17  N   UNL     1       1.519   6.889  20.568  0.00  0.00    +0.000 N 
ATOM     18  H   UNL     1       0.870   6.328  21.111  0.00  0.00    +0.000 HD
BRANCH  17  19
ATOM     19  C   UNL     1       1.810   8.235  21.020  0.00  0.00    +0.000 C 
BRANCH  19  20
ATOM     20  C   UNL     1       0.830   9.277  20.546  0.00  0.00    +0.000 A 
ATOM     21  C   UNL     1      -0.105   9.803  21.458  0.00  0.00    +0.000 A 
ATOM     22  C   UNL     1      -1.072  10.723  21.043  0.00  0.00    +0.000 A 
ATOM     23  C   UNL     1      -1.113  11.128  19.712  0.00  0.00    +0.000 A 
ATOM     24 CL   UNL     1      -2.300  12.263  19.201  0.00  0.00    +0.000 Cl
ATOM     25  C   UNL     1      -0.205  10.616  18.790  0.00  0.00    +0.000 A 
ATOM     26  C   UNL     1       0.758   9.691  19.205  0.00  0.00    +0.000 A 
ATOM     27 CL   UNL     1       1.835   9.066  18.006  0.00  0.00    +0.000 Cl
ENDBRANCH  19  20
ENDBRANCH  17  19
ENDBRANCH   6  15
TORSDOF 5
ENDMDL
