MODEL 1
REMARK VINA RESULT:      -8.9      0.000      0.000
REMARK  Name = 
REMARK  7 active torsions:
REMARK  status: ('A' for Active; 'I' for Inactive)
REMARK    1  A    between atoms: C_1  and  C_2
REMARK    2  A    between atoms: C_2  and  C_3
REMARK    3  A    between atoms: C_7  and  N_8
REMARK    4  A    between atoms: C_10  and  O_11
REMARK    5  A    between atoms: O_11  and  C_12
REMARK    6  A    between atoms: C_12  and  C_13
REMARK    7  A    between atoms: N_15  and  C_16
REMARK                            x       y       z     vdW  Elec       q    Type
REMARK                         _______ _______ _______ _____ _____    ______ ____
ROOT
ATOM      1  N   UNL     1       2.916   6.209  19.320  0.00  0.00    +0.000 N 
ATOM      2  N   UNL     1       4.221   6.044  18.906  0.00  0.00    +0.000 NA
ATOM      3  C   UNL     1       4.529   4.832  19.361  0.00  0.00    +0.000 A 
ATOM      4  C   UNL     1       3.454   4.138  19.934  0.00  0.00    +0.000 A 
ATOM      5  C   UNL     1       3.227   2.864  20.472  0.00  0.00    +0.000 A 
ATOM      6  C   UNL     1       1.929   2.567  20.878  0.00  0.00    +0.000 A 
ATOM      7  C   UNL     1       0.948   3.540  20.763  0.00  0.00    +0.000 A 
ATOM      8  N   UNL     1       1.134   4.793  20.288  0.00  0.00    +0.000 NA
ATOM      9  C   UNL     1       2.404   5.040  19.886  0.00  0.00    +0.000 A 
ENDROOT
BRANCH   1  14
ATOM     10  C   UNL     1       1.034   9.321  20.152  0.00  0.00    +0.000 A 
ATOM     11  C   UNL     1       0.911   9.899  18.882  0.00  0.00    +0.000 A 
ATOM     12  C   UNL     1       1.450   9.267  17.765  0.00  0.00    +0.000 A 
ATOM     13  C   UNL     1       2.131   8.057  17.908  0.00  0.00    +0.000 A 
ATOM     14  C   UNL     1       2.246   7.456  19.169  0.00  0.00    +0.000 A 
ATOM     15  C   UNL     1       1.681   8.082  20.287  0.00  0.00    +0.000 A 
BRANCH  10  17
ATOM     16  C   UNL     1       0.500   9.099  22.576  0.00  0.00    +0.000 C 
ATOM     17  C   UNL     1       0.438  10.002  21.357  0.00  0.00    +0.000 C 
ENDBRANCH  10  17
ENDBRANCH   1  14
BRANCH   3  18
ATOM     18  O   UNL     1       5.789   4.358  19.317  0.00  0.00    +0.000 OA
BRANCH  18  19
ATOM     19  C   UNL     1       6.752   5.262  18.784  0.00  0.00    +0.000 C 
BRANCH  19  20
ATOM     20  C   UNL     1       7.284   4.640  17.488  0.00  0.00    +0.000 C 
ATOM     21  O   UNL     1       8.393   4.119  17.409  0.00  0.00    +0.000 OA
ATOM     22  N   UNL     1       6.433   4.786  16.404  0.00  0.00    +0.000 N 
ATOM     23  H   UNL     1       5.473   5.010  16.633  0.00  0.00    +0.000 HD
BRANCH  22  24
ATOM     24  C   UNL     1       6.714   4.201  15.110  0.00  0.00    +0.000 C 
ATOM     25  C   UNL     1       5.446   3.847  14.337  0.00  0.00    +0.000 C 
ATOM     26  C   UNL     1       5.920   3.721  12.894  0.00  0.00    +0.000 C 
ATOM     27  C   UNL     1       7.135   4.640  12.767  0.00  0.00    +0.000 C 
ATOM     28  C   UNL     1       7.412   5.179  14.168  0.00  0.00    +0.000 C 
ENDBRANCH  22  24
ENDBRANCH  19  20
ENDBRANCH  18  19
ENDBRANCH   3  18
TORSDOF 6
ENDMDL
MODEL 2
REMARK VINA RESULT:      -8.4      1.367      1.597
REMARK  Name = 
REMARK  7 active torsions:
REMARK  status: ('A' for Active; 'I' for Inactive)
REMARK    1  A    between atoms: C_1  and  C_2
REMARK    2  A    between atoms: C_2  and  C_3
REMARK    3  A    between atoms: C_7  and  N_8
REMARK    4  A    between atoms: C_10  and  O_11
REMARK    5  A    between atoms: O_11  and  C_12
REMARK    6  A    between atoms: C_12  and  C_13
REMARK    7  A    between atoms: N_15  and  C_16
REMARK                            x       y       z     vdW  Elec       q    Type
REMARK                         _______ _______ _______ _____ _____    ______ ____
ROOT
ATOM      1  N   UNL     1       3.282   5.949  18.636  0.00  0.00    +0.000 N 
ATOM      2  N   UNL     1       4.648   5.971  18.448  0.00  0.00    +0.000 NA
ATOM      3  C   UNL     1       4.968   4.680  18.417  0.00  0.00    +0.000 A 
ATOM      4  C   UNL     1       3.868   3.810  18.439  0.00  0.00    +0.000 A 
ATOM      5  C   UNL     1       3.653   2.428  18.355  0.00  0.00    +0.000 A 
ATOM      6  C   UNL     1       2.332   1.989  18.348  0.00  0.00    +0.000 A 
ATOM      7  C   UNL     1       1.312   2.922  18.456  0.00  0.00    +0.000 A 
ATOM      8  N   UNL     1       1.477   4.259  18.581  0.00  0.00    +0.000 NA
ATOM      9  C   UNL     1       2.774   4.650  18.565  0.00  0.00    +0.000 A 
ENDROOT
BRANCH   1  14
ATOM     10  C   UNL     1       1.379   8.607  20.434  0.00  0.00    +0.000 A 
ATOM     11  C   UNL     1       1.098   9.486  19.380  0.00  0.00    +0.000 A 
ATOM     12  C   UNL     1       1.539   9.202  18.090  0.00  0.00    +0.000 A 
ATOM     13  C   UNL     1       2.279   8.044  17.843  0.00  0.00    +0.000 A 
ATOM     14  C   UNL     1       2.551   7.145  18.884  0.00  0.00    +0.000 A 
ATOM     15  C   UNL     1       2.085   7.421  20.175  0.00  0.00    +0.000 A 
BRANCH  10  17
ATOM     16  C   UNL     1      -0.562   8.495  21.993  0.00  0.00    +0.000 C 
ATOM     17  C   UNL     1       0.889   8.911  21.827  0.00  0.00    +0.000 C 
ENDBRANCH  10  17
ENDBRANCH   1  14
BRANCH   3  18
ATOM     18  O   UNL     1       6.249   4.267  18.423  0.00  0.00    +0.000 OA
BRANCH  18  19
ATOM     19  C   UNL     1       7.199   5.255  18.034  0.00  0.00    +0.000 C 
BRANCH  19  20
ATOM     20  C   UNL     1       6.864   5.658  16.594  0.00  0.00    +0.000 C 
ATOM     21  O   UNL     1       6.658   6.822  16.262  0.00  0.00    +0.000 OA
ATOM     22  N   UNL     1       6.744   4.586  15.724  0.00  0.00    +0.000 N 
ATOM     23  H   UNL     1       7.160   3.720  16.042  0.00  0.00    +0.000 HD
BRANCH  22  24
ATOM     24  C   UNL     1       6.510   4.757  14.305  0.00  0.00    +0.000 C 
ATOM     25  C   UNL     1       7.798   4.992  13.521  0.00  0.00    +0.000 C 
ATOM     26  C   UNL     1       7.415   4.666  12.082  0.00  0.00    +0.000 C 
ATOM     27  C   UNL     1       6.281   3.644  12.168  0.00  0.00    +0.000 C 
ATOM     28  C   UNL     1       5.950   3.497  13.651  0.00  0.00    +0.000 C 
ENDBRANCH  22  24
ENDBRANCH  19  20
ENDBRANCH  18  19
ENDBRANCH   3  18
TORSDOF 6
ENDMDL
MODEL 3
REMARK VINA RESULT:      -8.2      0.818      1.664
REMARK  Name = 
REMARK  7 active torsions:
REMARK  status: ('A' for Active; 'I' for Inactive)
REMARK    1  A    between atoms: C_1  and  C_2
REMARK    2  A    between atoms: C_2  and  C_3
REMARK    3  A    between atoms: C_7  and  N_8
REMARK    4  A    between atoms: C_10  and  O_11
REMARK    5  A    between atoms: O_11  and  C_12
REMARK    6  A    between atoms: C_12  and  C_13
REMARK    7  A    between atoms: N_15  and  C_16
REMARK                            x       y       z     vdW  Elec       q    Type
REMARK                         _______ _______ _______ _____ _____    ______ ____
ROOT
ATOM      1  N   UNL     1       2.734   6.240  19.682  0.00  0.00    +0.000 N 
ATOM      2  N   UNL     1       3.973   6.281  19.079  0.00  0.00    +0.000 NA
ATOM      3  C   UNL     1       4.372   5.013  19.127  0.00  0.00    +0.000 A 
ATOM      4  C   UNL     1       3.405   4.119  19.607  0.00  0.00    +0.000 A 
ATOM      5  C   UNL     1       3.287   2.734  19.784  0.00  0.00    +0.000 A 
ATOM      6  C   UNL     1       2.065   2.252  20.246  0.00  0.00    +0.000 A 
ATOM      7  C   UNL     1       1.053   3.155  20.537  0.00  0.00    +0.000 A 
ATOM      8  N   UNL     1       1.139   4.500  20.420  0.00  0.00    +0.000 NA
ATOM      9  C   UNL     1       2.335   4.930  19.950  0.00  0.00    +0.000 A 
ENDROOT
BRANCH   1  14
ATOM     10  C   UNL     1       1.167   9.602  19.277  0.00  0.00    +0.000 A 
ATOM     11  C   UNL     1       0.626   9.794  20.555  0.00  0.00    +0.000 A 
ATOM     12  C   UNL     1       0.774   8.818  21.536  0.00  0.00    +0.000 A 
ATOM     13  C   UNL     1       1.453   7.633  21.247  0.00  0.00    +0.000 A 
ATOM     14  C   UNL     1       2.017   7.434  19.978  0.00  0.00    +0.000 A 
ATOM     15  C   UNL     1       1.888   8.429  19.001  0.00  0.00    +0.000 A 
BRANCH  10  17
ATOM     16  C   UNL     1       1.422  12.027  18.761  0.00  0.00    +0.000 C 
ATOM     17  C   UNL     1       1.016  10.667  18.221  0.00  0.00    +0.000 C 
ENDBRANCH  10  17
ENDBRANCH   1  14
BRANCH   3  18
ATOM     18  O   UNL     1       5.626   4.651  18.793  0.00  0.00    +0.000 OA
BRANCH  18  19
ATOM     19  C   UNL     1       6.328   5.595  17.990  0.00  0.00    +0.000 C 
BRANCH  19  20
ATOM     20  C   UNL     1       6.971   4.816  16.837  0.00  0.00    +0.000 C 
ATOM     21  O   UNL     1       8.036   4.218  16.953  0.00  0.00    +0.000 OA
ATOM     22  N   UNL     1       6.278   4.911  15.640  0.00  0.00    +0.000 N 
ATOM     23  H   UNL     1       5.317   5.220  15.718  0.00  0.00    +0.000 HD
BRANCH  22  24
ATOM     24  C   UNL     1       6.674   4.185  14.452  0.00  0.00    +0.000 C 
ATOM     25  C   UNL     1       5.481   3.732  13.615  0.00  0.00    +0.000 C 
ATOM     26  C   UNL     1       6.083   3.448  12.244  0.00  0.00    +0.000 C 
ATOM     27  C   UNL     1       7.305   4.358  12.122  0.00  0.00    +0.000 C 
ATOM     28  C   UNL     1       7.454   5.056  13.471  0.00  0.00    +0.000 C 
ENDBRANCH  22  24
ENDBRANCH  19  20
ENDBRANCH  18  19
ENDBRANCH   3  18
TORSDOF 6
ENDMDL
MODEL 4
REMARK VINA RESULT:      -8.2      2.457      8.129
REMARK  Name = 
REMARK  7 active torsions:
REMARK  status: ('A' for Active; 'I' for Inactive)
REMARK    1  A    between atoms: C_1  and  C_2
REMARK    2  A    between atoms: C_2  and  C_3
REMARK    3  A    between atoms: C_7  and  N_8
REMARK    4  A    between atoms: C_10  and  O_11
REMARK    5  A    between atoms: O_11  and  C_12
REMARK    6  A    between atoms: C_12  and  C_13
REMARK    7  A    between atoms: N_15  and  C_16
REMARK                            x       y       z     vdW  Elec       q    Type
REMARK                         _______ _______ _______ _____ _____    ______ ____
ROOT
ATOM      1  N   UNL     1       4.066   5.233  17.858  0.00  0.00    +0.000 N 
ATOM      2  N   UNL     1       3.828   6.529  18.263  0.00  0.00    +0.000 NA
ATOM      3  C   UNL     1       2.732   6.414  19.009  0.00  0.00    +0.000 A 
ATOM      4  C   UNL     1       2.315   5.094  19.226  0.00  0.00    +0.000 A 
ATOM      5  C   UNL     1       1.315   4.442  19.960  0.00  0.00    +0.000 A 
ATOM      6  C   UNL     1       1.315   3.050  19.941  0.00  0.00    +0.000 A 
ATOM      7  C   UNL     1       2.268   2.388  19.181  0.00  0.00    +0.000 A 
ATOM      8  N   UNL     1       3.223   2.978  18.426  0.00  0.00    +0.000 NA
ATOM      9  C   UNL     1       3.203   4.332  18.484  0.00  0.00    +0.000 A 
ENDROOT
BRANCH   1  14
ATOM     10  C   UNL     1       5.706   4.300  14.639  0.00  0.00    +0.000 A 
ATOM     11  C   UNL     1       7.055   4.321  15.017  0.00  0.00    +0.000 A 
ATOM     12  C   UNL     1       7.415   4.646  16.322  0.00  0.00    +0.000 A 
ATOM     13  C   UNL     1       6.432   4.968  17.260  0.00  0.00    +0.000 A 
ATOM     14  C   UNL     1       5.077   4.932  16.902  0.00  0.00    +0.000 A 
ATOM     15  C   UNL     1       4.716   4.580  15.596  0.00  0.00    +0.000 A 
BRANCH  10  17
ATOM     16  C   UNL     1       6.539   3.538  12.418  0.00  0.00    +0.000 C 
ATOM     17  C   UNL     1       5.319   3.934  13.229  0.00  0.00    +0.000 C 
ENDBRANCH  10  17
ENDBRANCH   1  14
BRANCH   3  18
ATOM     18  O   UNL     1       2.063   7.494  19.456  0.00  0.00    +0.000 OA
BRANCH  18  19
ATOM     19  C   UNL     1       1.942   8.557  18.516  0.00  0.00    +0.000 C 
BRANCH  19  20
ATOM     20  C   UNL     1       0.828   9.481  19.022  0.00  0.00    +0.000 C 
ATOM     21  O   UNL     1       0.116  10.137  18.268  0.00  0.00    +0.000 OA
ATOM     22  N   UNL     1       0.751   9.563  20.404  0.00  0.00    +0.000 N 
ATOM     23  H   UNL     1       1.215   8.817  20.909  0.00  0.00    +0.000 HD
BRANCH  22  24
ATOM     24  C   UNL     1      -0.280  10.318  21.083  0.00  0.00    +0.000 C 
ATOM     25  C   UNL     1      -0.563   9.795  22.488  0.00  0.00    +0.000 C 
ATOM     26  C   UNL     1      -1.271  10.957  23.175  0.00  0.00    +0.000 C 
ATOM     27  C   UNL     1      -0.761  12.226  22.492  0.00  0.00    +0.000 C 
ATOM     28  C   UNL     1       0.133  11.764  21.344  0.00  0.00    +0.000 C 
ENDBRANCH  22  24
ENDBRANCH  19  20
ENDBRANCH  18  19
ENDBRANCH   3  18
TORSDOF 6
ENDMDL
MODEL 5
REMARK VINA RESULT:      -8.2      2.554      7.651
REMARK  Name = 
REMARK  7 active torsions:
REMARK  status: ('A' for Active; 'I' for Inactive)
REMARK    1  A    between atoms: C_1  and  C_2
REMARK    2  A    between atoms: C_2  and  C_3
REMARK    3  A    between atoms: C_7  and  N_8
REMARK    4  A    between atoms: C_10  and  O_11
REMARK    5  A    between atoms: O_11  and  C_12
REMARK    6  A    between atoms: C_12  and  C_13
REMARK    7  A    between atoms: N_15  and  C_16
REMARK                            x       y       z     vdW  Elec       q    Type
REMARK                         _______ _______ _______ _____ _____    ______ ____
ROOT
ATOM      1  N   UNL     1       3.919   5.272  18.719  0.00  0.00    +0.000 N 
ATOM      2  N   UNL     1       3.502   6.564  18.958  0.00  0.00    +0.000 NA
ATOM      3  C   UNL     1       2.358   6.394  19.616  0.00  0.00    +0.000 A 
ATOM      4  C   UNL     1       2.069   5.061  19.939  0.00  0.00    +0.000 A 
ATOM      5  C   UNL     1       1.081   4.370  20.653  0.00  0.00    +0.000 A 
ATOM      6  C   UNL     1       1.236   2.993  20.786  0.00  0.00    +0.000 A 
ATOM      7  C   UNL     1       2.324   2.377  20.186  0.00  0.00    +0.000 A 
ATOM      8  N   UNL     1       3.277   3.000  19.455  0.00  0.00    +0.000 NA
ATOM      9  C   UNL     1       3.103   4.341  19.364  0.00  0.00    +0.000 A 
ENDROOT
BRANCH   1  14
ATOM     10  C   UNL     1       5.961   4.466  15.702  0.00  0.00    +0.000 A 
ATOM     11  C   UNL     1       7.248   4.449  16.254  0.00  0.00    +0.000 A 
ATOM     12  C   UNL     1       7.436   4.708  17.609  0.00  0.00    +0.000 A 
ATOM     13  C   UNL     1       6.341   5.000  18.424  0.00  0.00    +0.000 A 
ATOM     14  C   UNL     1       5.044   5.001  17.890  0.00  0.00    +0.000 A 
ATOM     15  C   UNL     1       4.856   4.716  16.532  0.00  0.00    +0.000 A 
BRANCH  10  17
ATOM     16  C   UNL     1       6.999   4.533  13.437  0.00  0.00    +0.000 C 
ATOM     17  C   UNL     1       5.760   4.172  14.237  0.00  0.00    +0.000 C 
ENDBRANCH  10  17
ENDBRANCH   1  14
BRANCH   3  18
ATOM     18  O   UNL     1       1.535   7.425  19.884  0.00  0.00    +0.000 OA
BRANCH  18  19
ATOM     19  C   UNL     1       1.716   8.019  21.166  0.00  0.00    +0.000 C 
BRANCH  19  20
ATOM     20  C   UNL     1       0.968   9.357  21.152  0.00  0.00    +0.000 C 
ATOM     21  O   UNL     1       0.884  10.081  22.139  0.00  0.00    +0.000 OA
ATOM     22  N   UNL     1       0.336   9.634  19.949  0.00  0.00    +0.000 N 
ATOM     23  H   UNL     1       0.663   9.099  19.154  0.00  0.00    +0.000 HD
BRANCH  22  24
ATOM     24  C   UNL     1      -0.357  10.881  19.703  0.00  0.00    +0.000 C 
ATOM     25  C   UNL     1       0.522  11.914  19.003  0.00  0.00    +0.000 C 
ATOM     26  C   UNL     1      -0.476  12.908  18.420  0.00  0.00    +0.000 C 
ATOM     27  C   UNL     1      -1.760  12.119  18.169  0.00  0.00    +0.000 C 
ATOM     28  C   UNL     1      -1.519  10.719  18.727  0.00  0.00    +0.000 C 
ENDBRANCH  22  24
ENDBRANCH  19  20
ENDBRANCH  18  19
ENDBRANCH   3  18
TORSDOF 6
ENDMDL
MODEL 6
REMARK VINA RESULT:      -8.2      2.438      7.753
REMARK  Name = 
REMARK  7 active torsions:
REMARK  status: ('A' for Active; 'I' for Inactive)
REMARK    1  A    between atoms: C_1  and  C_2
REMARK    2  A    between atoms: C_2  and  C_3
REMARK    3  A    between atoms: C_7  and  N_8
REMARK    4  A    between atoms: C_10  and  O_11
REMARK    5  A    between atoms: O_11  and  C_12
REMARK    6  A    between atoms: C_12  and  C_13
REMARK    7  A    between atoms: N_15  and  C_16
REMARK                            x       y       z     vdW  Elec       q    Type
REMARK                         _______ _______ _______ _____ _____    ______ ____
ROOT
ATOM      1  N   UNL     1       6.064   5.623  15.421  0.00  0.00    +0.000 N 
ATOM      2  N   UNL     1       5.105   6.605  15.553  0.00  0.00    +0.000 NA
ATOM      3  C   UNL     1       5.045   6.790  16.870  0.00  0.00    +0.000 A 
ATOM      4  C   UNL     1       6.008   6.079  17.599  0.00  0.00    +0.000 A 
ATOM      5  C   UNL     1       6.411   5.977  18.938  0.00  0.00    +0.000 A 
ATOM      6  C   UNL     1       7.508   5.165  19.212  0.00  0.00    +0.000 A 
ATOM      7  C   UNL     1       8.117   4.483  18.170  0.00  0.00    +0.000 A 
ATOM      8  N   UNL     1       7.735   4.521  16.873  0.00  0.00    +0.000 NA
ATOM      9  C   UNL     1       6.677   5.335  16.642  0.00  0.00    +0.000 A 
ENDROOT
BRANCH   1  14
ATOM     10  C   UNL     1       5.609   3.588  12.327  0.00  0.00    +0.000 A 
ATOM     11  C   UNL     1       6.841   3.795  11.694  0.00  0.00    +0.000 A 
ATOM     12  C   UNL     1       7.808   4.605  12.284  0.00  0.00    +0.000 A 
ATOM     13  C   UNL     1       7.549   5.227  13.506  0.00  0.00    +0.000 A 
ATOM     14  C   UNL     1       6.327   5.014  14.162  0.00  0.00    +0.000 A 
ATOM     15  C   UNL     1       5.366   4.179  13.578  0.00  0.00    +0.000 A 
BRANCH  10  17
ATOM     16  C   UNL     1       3.722   3.481  10.702  0.00  0.00    +0.000 C 
ATOM     17  C   UNL     1       4.569   2.701  11.692  0.00  0.00    +0.000 C 
ENDBRANCH  10  17
ENDBRANCH   1  14
BRANCH   3  18
ATOM     18  O   UNL     1       4.092   7.556  17.434  0.00  0.00    +0.000 OA
BRANCH  18  19
ATOM     19  C   UNL     1       2.798   6.961  17.489  0.00  0.00    +0.000 C 
BRANCH  19  20
ATOM     20  C   UNL     1       2.593   6.462  18.924  0.00  0.00    +0.000 C 
ATOM     21  O   UNL     1       2.315   7.213  19.854  0.00  0.00    +0.000 OA
ATOM     22  N   UNL     1       2.822   5.105  19.085  0.00  0.00    +0.000 N 
ATOM     23  H   UNL     1       2.810   4.558  18.232  0.00  0.00    +0.000 HD
BRANCH  22  24
ATOM     24  C   UNL     1       2.606   4.423  20.343  0.00  0.00    +0.000 C 
ATOM     25  C   UNL     1       1.176   3.910  20.497  0.00  0.00    +0.000 C 
ATOM     26  C   UNL     1       1.281   2.854  21.591  0.00  0.00    +0.000 C 
ATOM     27  C   UNL     1       2.706   2.306  21.513  0.00  0.00    +0.000 C 
ATOM     28  C   UNL     1       3.429   3.143  20.461  0.00  0.00    +0.000 C 
ENDBRANCH  22  24
ENDBRANCH  19  20
ENDBRANCH  18  19
ENDBRANCH   3  18
TORSDOF 6
ENDMDL
MODEL 7
REMARK VINA RESULT:      -8.2      1.500      2.227
REMARK  Name = 
REMARK  7 active torsions:
REMARK  status: ('A' for Active; 'I' for Inactive)
REMARK    1  A    between atoms: C_1  and  C_2
REMARK    2  A    between atoms: C_2  and  C_3
REMARK    3  A    between atoms: C_7  and  N_8
REMARK    4  A    between atoms: C_10  and  O_11
REMARK    5  A    between atoms: O_11  and  C_12
REMARK    6  A    between atoms: C_12  and  C_13
REMARK    7  A    between atoms: N_15  and  C_16
REMARK                            x       y       z     vdW  Elec       q    Type
REMARK                         _______ _______ _______ _____ _____    ______ ____
ROOT
ATOM      1  N   UNL     1       3.195   5.855  19.057  0.00  0.00    +0.000 N 
ATOM      2  N   UNL     1       4.554   6.005  18.877  0.00  0.00    +0.000 NA
ATOM      3  C   UNL     1       4.954   4.775  18.564  0.00  0.00    +0.000 A 
ATOM      4  C   UNL     1       3.911   3.853  18.396  0.00  0.00    +0.000 A 
ATOM      5  C   UNL     1       3.781   2.511  18.012  0.00  0.00    +0.000 A 
ATOM      6  C   UNL     1       2.491   2.000  17.910  0.00  0.00    +0.000 A 
ATOM      7  C   UNL     1       1.416   2.820  18.221  0.00  0.00    +0.000 A 
ATOM      8  N   UNL     1       1.499   4.105  18.634  0.00  0.00    +0.000 NA
ATOM      9  C   UNL     1       2.769   4.573  18.704  0.00  0.00    +0.000 A 
ENDROOT
BRANCH   1  14
ATOM     10  C   UNL     1       1.330   9.081  19.237  0.00  0.00    +0.000 A 
ATOM     11  C   UNL     1       0.838   9.025  20.547  0.00  0.00    +0.000 A 
ATOM     12  C   UNL     1       1.116   7.928  21.359  0.00  0.00    +0.000 A 
ATOM     13  C   UNL     1       1.879   6.869  20.864  0.00  0.00    +0.000 A 
ATOM     14  C   UNL     1       2.395   6.919  19.561  0.00  0.00    +0.000 A 
ATOM     15  C   UNL     1       2.134   8.034  18.756  0.00  0.00    +0.000 A 
BRANCH  10  17
ATOM     16  C   UNL     1      -0.460  10.485  18.219  0.00  0.00    +0.000 C 
ATOM     17  C   UNL     1       1.037  10.276  18.366  0.00  0.00    +0.000 C 
ENDBRANCH  10  17
ENDBRANCH   1  14
BRANCH   3  18
ATOM     18  O   UNL     1       6.259   4.454  18.479  0.00  0.00    +0.000 OA
BRANCH  18  19
ATOM     19  C   UNL     1       7.104   5.500  18.009  0.00  0.00    +0.000 C 
BRANCH  19  20
ATOM     20  C   UNL     1       6.690   5.797  16.563  0.00  0.00    +0.000 C 
ATOM     21  O   UNL     1       6.255   6.889  16.209  0.00  0.00    +0.000 OA
ATOM     22  N   UNL     1       6.781   4.704  15.717  0.00  0.00    +0.000 N 
ATOM     23  H   UNL     1       7.361   3.944  16.050  0.00  0.00    +0.000 HD
BRANCH  22  24
ATOM     24  C   UNL     1       6.512   4.794  14.297  0.00  0.00    +0.000 C 
ATOM     25  C   UNL     1       7.771   5.054  13.475  0.00  0.00    +0.000 C 
ATOM     26  C   UNL     1       7.378   4.639  12.062  0.00  0.00    +0.000 C 
ATOM     27  C   UNL     1       6.299   3.568  12.221  0.00  0.00    +0.000 C 
ATOM     28  C   UNL     1       6.004   3.477  13.716  0.00  0.00    +0.000 C 
ENDBRANCH  22  24
ENDBRANCH  19  20
ENDBRANCH  18  19
ENDBRANCH   3  18
TORSDOF 6
ENDMDL
MODEL 8
REMARK VINA RESULT:      -8.1      2.476      8.160
REMARK  Name = 
REMARK  7 active torsions:
REMARK  status: ('A' for Active; 'I' for Inactive)
REMARK    1  A    between atoms: C_1  and  C_2
REMARK    2  A    between atoms: C_2  and  C_3
REMARK    3  A    between atoms: C_7  and  N_8
REMARK    4  A    between atoms: C_10  and  O_11
REMARK    5  A    between atoms: O_11  and  C_12
REMARK    6  A    between atoms: C_12  and  C_13
REMARK    7  A    between atoms: N_15  and  C_16
REMARK                            x       y       z     vdW  Elec       q    Type
REMARK                         _______ _______ _______ _____ _____    ______ ____
ROOT
ATOM      1  N   UNL     1       3.822   4.862  18.788  0.00  0.00    +0.000 N 
ATOM      2  N   UNL     1       3.588   5.996  19.537  0.00  0.00    +0.000 NA
ATOM      3  C   UNL     1       2.392   5.760  20.071  0.00  0.00    +0.000 A 
ATOM      4  C   UNL     1       1.889   4.476  19.822  0.00  0.00    +0.000 A 
ATOM      5  C   UNL     1       0.766   3.725  20.194  0.00  0.00    +0.000 A 
ATOM      6  C   UNL     1       0.706   2.406  19.751  0.00  0.00    +0.000 A 
ATOM      7  C   UNL     1       1.727   1.920  18.948  0.00  0.00    +0.000 A 
ATOM      8  N   UNL     1       2.805   2.622  18.532  0.00  0.00    +0.000 NA
ATOM      9  C   UNL     1       2.839   3.894  18.998  0.00  0.00    +0.000 A 
ENDROOT
BRANCH   1  14
ATOM     10  C   UNL     1       5.847   4.497  15.675  0.00  0.00    +0.000 A 
ATOM     11  C   UNL     1       7.145   4.575  16.197  0.00  0.00    +0.000 A 
ATOM     12  C   UNL     1       7.345   4.752  17.564  0.00  0.00    +0.000 A 
ATOM     13  C   UNL     1       6.250   4.868  18.422  0.00  0.00    +0.000 A 
ATOM     14  C   UNL     1       4.945   4.772  17.917  0.00  0.00    +0.000 A 
ATOM     15  C   UNL     1       4.747   4.569  16.546  0.00  0.00    +0.000 A 
BRANCH  10  17
ATOM     16  C   UNL     1       6.948   4.393  13.442  0.00  0.00    +0.000 C 
ATOM     17  C   UNL     1       5.634   4.293  14.197  0.00  0.00    +0.000 C 
ENDBRANCH  10  17
ENDBRANCH   1  14
BRANCH   3  18
ATOM     18  O   UNL     1       1.715   6.713  20.741  0.00  0.00    +0.000 OA
BRANCH  18  19
ATOM     19  C   UNL     1       1.675   7.984  20.100  0.00  0.00    +0.000 C 
BRANCH  19  20
ATOM     20  C   UNL     1       1.246   9.008  21.157  0.00  0.00    +0.000 C 
ATOM     21  O   UNL     1       1.678   8.995  22.306  0.00  0.00    +0.000 OA
ATOM     22  N   UNL     1       0.276   9.895  20.719  0.00  0.00    +0.000 N 
ATOM     23  H   UNL     1       0.173   9.963  19.714  0.00  0.00    +0.000 HD
BRANCH  22  24
ATOM     24  C   UNL     1      -0.207  10.987  21.537  0.00  0.00    +0.000 C 
ATOM     25  C   UNL     1      -1.271  11.824  20.832  0.00  0.00    +0.000 C 
ATOM     26  C   UNL     1      -1.967  12.565  21.968  0.00  0.00    +0.000 C 
ATOM     27  C   UNL     1      -1.823  11.675  23.202  0.00  0.00    +0.000 C 
ATOM     28  C   UNL     1      -0.942  10.501  22.783  0.00  0.00    +0.000 C 
ENDBRANCH  22  24
ENDBRANCH  19  20
ENDBRANCH  18  19
ENDBRANCH   3  18
TORSDOF 6
ENDMDL
MODEL 9
REMARK VINA RESULT:      -8.1      3.111      7.822
REMARK  Name = 
REMARK  7 active torsions:
REMARK  status: ('A' for Active; 'I' for Inactive)
REMARK    1  A    between atoms: C_1  and  C_2
REMARK    2  A    between atoms: C_2  and  C_3
REMARK    3  A    between atoms: C_7  and  N_8
REMARK    4  A    between atoms: C_10  and  O_11
REMARK    5  A    between atoms: O_11  and  C_12
REMARK    6  A    between atoms: C_12  and  C_13
REMARK    7  A    between atoms: N_15  and  C_16
REMARK                            x       y       z     vdW  Elec       q    Type
REMARK                         _______ _______ _______ _____ _____    ______ ____
ROOT
ATOM      1  N   UNL     1       4.081   5.829  18.249  0.00  0.00    +0.000 N 
ATOM      2  N   UNL     1       3.679   7.148  18.245  0.00  0.00    +0.000 NA
ATOM      3  C   UNL     1       2.646   7.149  19.083  0.00  0.00    +0.000 A 
ATOM      4  C   UNL     1       2.433   5.930  19.741  0.00  0.00    +0.000 A 
ATOM      5  C   UNL     1       1.571   5.436  20.730  0.00  0.00    +0.000 A 
ATOM      6  C   UNL     1       1.770   4.123  21.150  0.00  0.00    +0.000 A 
ATOM      7  C   UNL     1       2.771   3.371  20.555  0.00  0.00    +0.000 A 
ATOM      8  N   UNL     1       3.596   3.795  19.570  0.00  0.00    +0.000 NA
ATOM      9  C   UNL     1       3.386   5.082  19.201  0.00  0.00    +0.000 A 
ENDROOT
BRANCH   1  14
ATOM     10  C   UNL     1       5.733   4.669  15.111  0.00  0.00    +0.000 A 
ATOM     11  C   UNL     1       7.030   4.418  15.576  0.00  0.00    +0.000 A 
ATOM     12  C   UNL     1       7.354   4.637  16.913  0.00  0.00    +0.000 A 
ATOM     13  C   UNL     1       6.388   5.122  17.796  0.00  0.00    +0.000 A 
ATOM     14  C   UNL     1       5.080   5.359  17.350  0.00  0.00    +0.000 A 
ATOM     15  C   UNL     1       4.751   5.115  16.011  0.00  0.00    +0.000 A 
BRANCH  10  17
ATOM     16  C   UNL     1       6.314   3.388  13.054  0.00  0.00    +0.000 C 
ATOM     17  C   UNL     1       5.383   4.419  13.667  0.00  0.00    +0.000 C 
ENDBRANCH  10  17
ENDBRANCH   1  14
BRANCH   3  18
ATOM     18  O   UNL     1       1.851   8.226  19.226  0.00  0.00    +0.000 OA
BRANCH  18  19
ATOM     19  C   UNL     1       1.614   8.961  18.029  0.00  0.00    +0.000 C 
BRANCH  19  20
ATOM     20  C   UNL     1       0.388   9.847  18.279  0.00  0.00    +0.000 C 
ATOM     21  O   UNL     1       0.266  10.542  19.284  0.00  0.00    +0.000 OA
ATOM     22  N   UNL     1      -0.594   9.733  17.308  0.00  0.00    +0.000 N 
ATOM     23  H   UNL     1      -0.293   9.328  16.431  0.00  0.00    +0.000 HD
BRANCH  22  24
ATOM     24  C   UNL     1      -1.794  10.542  17.317  0.00  0.00    +0.000 C 
ATOM     25  C   UNL     1      -2.458  10.625  15.945  0.00  0.00    +0.000 C 
ATOM     26  C   UNL     1      -3.882  11.073  16.254  0.00  0.00    +0.000 C 
ATOM     27  C   UNL     1      -4.190  10.562  17.661  0.00  0.00    +0.000 C 
ATOM     28  C   UNL     1      -2.898   9.939  18.183  0.00  0.00    +0.000 C 
ENDBRANCH  22  24
ENDBRANCH  19  20
ENDBRANCH  18  19
ENDBRANCH   3  18
TORSDOF 6
ENDMDL
