MODEL 1
REMARK VINA RESULT:      -8.1      0.000      0.000
REMARK  Name = 
REMARK  4 active torsions:
REMARK  status: ('A' for Active; 'I' for Inactive)
REMARK    1  A    between atoms: C_2  and  C_3
REMARK    2  A    between atoms: C_3  and  O_4
REMARK    3  A    between atoms: O_4  and  C_5
REMARK    4  A    between atoms: N_18  and  C_19
REMARK                            x       y       z     vdW  Elec       q    Type
REMARK                         _______ _______ _______ _____ _____    ______ ____
ROOT
ATOM      1  O   UNL     1       2.005   9.724  17.553  0.00  0.00    +0.000 OA
ATOM      2  C   UNL     1       1.562   9.217  18.586  0.00  0.00    +0.000 C 
ATOM      3  N   UNL     1       0.468   9.749  19.245  0.00  0.00    +0.000 N 
ATOM      4  C   UNL     1      -0.085   9.286  20.526  0.00  0.00    +0.000 C 
ATOM      5  C   UNL     1       0.017  10.385  21.595  0.00  0.00    +0.000 C 
ATOM      6  N   UNL     1      -0.594  11.638  21.116  0.00  0.00    +0.000 N 
ATOM      7  C   UNL     1      -0.087  12.123  19.817  0.00  0.00    +0.000 C 
ATOM      8  C   UNL     1      -0.140  10.998  18.757  0.00  0.00    +0.000 C 
ENDROOT
BRANCH   6   9
ATOM      9  C   UNL     1      -1.755  12.147  21.667  0.00  0.00    +0.000 A 
ATOM     10  C   UNL     1      -2.054  11.949  23.025  0.00  0.00    +0.000 A 
ATOM     11  C   UNL     1      -3.257  12.394  23.588  0.00  0.00    +0.000 A 
ATOM     12  C   UNL     1      -4.188  13.062  22.804  0.00  0.00    +0.000 A 
ATOM     13  C   UNL     1      -3.912  13.292  21.461  0.00  0.00    +0.000 A 
ATOM     14  C   UNL     1      -2.711  12.835  20.904  0.00  0.00    +0.000 A 
ENDBRANCH   6   9
BRANCH   2  15
ATOM     15  C   UNL     1       2.224   7.948  19.139  0.00  0.00    +0.000 C 
BRANCH  15  16
ATOM     16  O   UNL     1       3.228   7.498  18.234  0.00  0.00    +0.000 OA
BRANCH  16  17
ATOM     17  C   UNL     1       3.197   6.175  17.859  0.00  0.00    +0.000 A 
ATOM     18  C   UNL     1       2.103   5.326  18.066  0.00  0.00    +0.000 A 
ATOM     19  C   UNL     1       2.159   3.989  17.683  0.00  0.00    +0.000 A 
ATOM     20  C   UNL     1       3.304   3.481  17.078  0.00  0.00    +0.000 A 
ATOM     21  C   UNL     1       4.407   4.310  16.834  0.00  0.00    +0.000 A 
ATOM     22  C   UNL     1       5.558   3.790  16.214  0.00  0.00    +0.000 A 
ATOM     23  C   UNL     1       6.654   4.604  15.950  0.00  0.00    +0.000 A 
ATOM     24  C   UNL     1       6.619   5.949  16.299  0.00  0.00    +0.000 A 
ATOM     25  C   UNL     1       5.485   6.477  16.924  0.00  0.00    +0.000 A 
ATOM     26  C   UNL     1       4.362   5.677  17.213  0.00  0.00    +0.000 A 
ENDBRANCH  16  17
ENDBRANCH  15  16
ENDBRANCH   2  15
TORSDOF 4
ENDMDL
MODEL 2
REMARK VINA RESULT:      -8.1      0.804      2.297
REMARK  Name = 
REMARK  4 active torsions:
REMARK  status: ('A' for Active; 'I' for Inactive)
REMARK    1  A    between atoms: C_2  and  C_3
REMARK    2  A    between atoms: C_3  and  O_4
REMARK    3  A    between atoms: O_4  and  C_5
REMARK    4  A    between atoms: N_18  and  C_19
REMARK                            x       y       z     vdW  Elec       q    Type
REMARK                         _______ _______ _______ _____ _____    ______ ____
ROOT
ATOM      1  O   UNL     1       1.961   9.720  17.425  0.00  0.00    +0.000 OA
ATOM      2  C   UNL     1       1.577   9.222  18.485  0.00  0.00    +0.000 C 
ATOM      3  N   UNL     1       0.508   9.747  19.189  0.00  0.00    +0.000 N 
ATOM      4  C   UNL     1       0.025   9.295  20.502  0.00  0.00    +0.000 C 
ATOM      5  C   UNL     1       0.160  10.411  21.549  0.00  0.00    +0.000 C 
ATOM      6  N   UNL     1      -0.493  11.647  21.083  0.00  0.00    +0.000 N 
ATOM      7  C   UNL     1      -0.057  12.121  19.754  0.00  0.00    +0.000 C 
ATOM      8  C   UNL     1      -0.143  10.979  18.714  0.00  0.00    +0.000 C 
ENDROOT
BRANCH   6   9
ATOM      9  C   UNL     1      -1.633  12.146  21.683  0.00  0.00    +0.000 A 
ATOM     10  C   UNL     1      -1.972  11.787  22.997  0.00  0.00    +0.000 A 
ATOM     11  C   UNL     1      -3.159  12.224  23.600  0.00  0.00    +0.000 A 
ATOM     12  C   UNL     1      -4.033  13.045  22.901  0.00  0.00    +0.000 A 
ATOM     13  C   UNL     1      -3.716  13.436  21.605  0.00  0.00    +0.000 A 
ATOM     14  C   UNL     1      -2.532  12.987  21.008  0.00  0.00    +0.000 A 
ENDBRANCH   6   9
BRANCH   2  15
ATOM     15  C   UNL     1       2.285   7.972  19.023  0.00  0.00    +0.000 C 
BRANCH  15  16
ATOM     16  O   UNL     1       1.995   6.858  18.183  0.00  0.00    +0.000 OA
BRANCH  16  17
ATOM     17  C   UNL     1       3.035   6.016  17.864  0.00  0.00    +0.000 A 
ATOM     18  C   UNL     1       4.296   6.453  17.439  0.00  0.00    +0.000 A 
ATOM     19  C   UNL     1       5.290   5.537  17.107  0.00  0.00    +0.000 A 
ATOM     20  C   UNL     1       5.045   4.171  17.203  0.00  0.00    +0.000 A 
ATOM     21  C   UNL     1       3.801   3.701  17.649  0.00  0.00    +0.000 A 
ATOM     22  C   UNL     1       3.564   2.319  17.752  0.00  0.00    +0.000 A 
ATOM     23  C   UNL     1       2.342   1.837  18.209  0.00  0.00    +0.000 A 
ATOM     24  C   UNL     1       1.338   2.728  18.570  0.00  0.00    +0.000 A 
ATOM     25  C   UNL     1       1.557   4.105  18.465  0.00  0.00    +0.000 A 
ATOM     26  C   UNL     1       2.781   4.624  17.998  0.00  0.00    +0.000 A 
ENDBRANCH  16  17
ENDBRANCH  15  16
ENDBRANCH   2  15
TORSDOF 4
ENDMDL
MODEL 3
REMARK VINA RESULT:      -8.1      2.989     10.077
REMARK  Name = 
REMARK  4 active torsions:
REMARK  status: ('A' for Active; 'I' for Inactive)
REMARK    1  A    between atoms: C_2  and  C_3
REMARK    2  A    between atoms: C_3  and  O_4
REMARK    3  A    between atoms: O_4  and  C_5
REMARK    4  A    between atoms: N_18  and  C_19
REMARK                            x       y       z     vdW  Elec       q    Type
REMARK                         _______ _______ _______ _____ _____    ______ ____
ROOT
ATOM      1  O   UNL     1       2.918   4.017  19.367  0.00  0.00    +0.000 OA
ATOM      2  C   UNL     1       3.443   5.016  18.872  0.00  0.00    +0.000 C 
ATOM      3  N   UNL     1       3.956   5.006  17.587  0.00  0.00    +0.000 N 
ATOM      4  C   UNL     1       4.683   6.103  16.932  0.00  0.00    +0.000 C 
ATOM      5  C   UNL     1       6.121   5.681  16.592  0.00  0.00    +0.000 C 
ATOM      6  N   UNL     1       6.128   4.431  15.812  0.00  0.00    +0.000 N 
ATOM      7  C   UNL     1       5.385   3.310  16.422  0.00  0.00    +0.000 C 
ATOM      8  C   UNL     1       3.955   3.754  16.812  0.00  0.00    +0.000 C 
ENDROOT
BRANCH   6   9
ATOM      9  C   UNL     1       6.521   4.394  14.488  0.00  0.00    +0.000 A 
ATOM     10  C   UNL     1       7.514   5.262  14.006  0.00  0.00    +0.000 A 
ATOM     11  C   UNL     1       7.878   5.290  12.654  0.00  0.00    +0.000 A 
ATOM     12  C   UNL     1       7.261   4.437  11.749  0.00  0.00    +0.000 A 
ATOM     13  C   UNL     1       6.288   3.551  12.198  0.00  0.00    +0.000 A 
ATOM     14  C   UNL     1       5.925   3.536  13.550  0.00  0.00    +0.000 A 
ENDBRANCH   6   9
BRANCH   2  15
ATOM     15  C   UNL     1       3.505   6.312  19.691  0.00  0.00    +0.000 C 
BRANCH  15  16
ATOM     16  O   UNL     1       2.183   6.760  19.979  0.00  0.00    +0.000 OA
BRANCH  16  17
ATOM     17  C   UNL     1       1.818   8.002  19.512  0.00  0.00    +0.000 A 
ATOM     18  C   UNL     1       2.127   8.480  18.232  0.00  0.00    +0.000 A 
ATOM     19  C   UNL     1       1.746   9.761  17.842  0.00  0.00    +0.000 A 
ATOM     20  C   UNL     1       1.044  10.581  18.720  0.00  0.00    +0.000 A 
ATOM     21  C   UNL     1       0.699  10.124  19.999  0.00  0.00    +0.000 A 
ATOM     22  C   UNL     1      -0.018  10.956  20.877  0.00  0.00    +0.000 A 
ATOM     23  C   UNL     1      -0.383  10.510  22.143  0.00  0.00    +0.000 A 
ATOM     24  C   UNL     1      -0.038   9.227  22.552  0.00  0.00    +0.000 A 
ATOM     25  C   UNL     1       0.683   8.392  21.692  0.00  0.00    +0.000 A 
ATOM     26  C   UNL     1       1.074   8.817  20.407  0.00  0.00    +0.000 A 
ENDBRANCH  16  17
ENDBRANCH  15  16
ENDBRANCH   2  15
TORSDOF 4
ENDMDL
MODEL 4
REMARK VINA RESULT:      -8.0      2.619      9.507
REMARK  Name = 
REMARK  4 active torsions:
REMARK  status: ('A' for Active; 'I' for Inactive)
REMARK    1  A    between atoms: C_2  and  C_3
REMARK    2  A    between atoms: C_3  and  O_4
REMARK    3  A    between atoms: O_4  and  C_5
REMARK    4  A    between atoms: N_18  and  C_19
REMARK                            x       y       z     vdW  Elec       q    Type
REMARK                         _______ _______ _______ _____ _____    ______ ____
ROOT
ATOM      1  O   UNL     1       2.337   4.384  21.497  0.00  0.00    +0.000 OA
ATOM      2  C   UNL     1       2.133   5.113  20.524  0.00  0.00    +0.000 C 
ATOM      3  N   UNL     1       2.769   4.905  19.313  0.00  0.00    +0.000 N 
ATOM      4  C   UNL     1       2.672   5.761  18.122  0.00  0.00    +0.000 C 
ATOM      5  C   UNL     1       4.043   6.357  17.765  0.00  0.00    +0.000 C 
ATOM      6  N   UNL     1       5.058   5.297  17.639  0.00  0.00    +0.000 N 
ATOM      7  C   UNL     1       5.167   4.396  18.805  0.00  0.00    +0.000 C 
ATOM      8  C   UNL     1       3.778   3.839  19.194  0.00  0.00    +0.000 C 
ENDROOT
BRANCH   6   9
ATOM      9  C   UNL     1       5.635   4.973  16.427  0.00  0.00    +0.000 A 
ATOM     10  C   UNL     1       6.945   5.376  16.122  0.00  0.00    +0.000 A 
ATOM     11  C   UNL     1       7.525   5.121  14.872  0.00  0.00    +0.000 A 
ATOM     12  C   UNL     1       6.807   4.440  13.898  0.00  0.00    +0.000 A 
ATOM     13  C   UNL     1       5.515   4.009  14.176  0.00  0.00    +0.000 A 
ATOM     14  C   UNL     1       4.941   4.277  15.425  0.00  0.00    +0.000 A 
ENDBRANCH   6   9
BRANCH   2  15
ATOM     15  C   UNL     1       1.127   6.265  20.652  0.00  0.00    +0.000 C 
BRANCH  15  16
ATOM     16  O   UNL     1       1.826   7.491  20.847  0.00  0.00    +0.000 OA
BRANCH  16  17
ATOM     17  C   UNL     1       1.304   8.620  20.259  0.00  0.00    +0.000 A 
ATOM     18  C   UNL     1       1.509   8.973  18.919  0.00  0.00    +0.000 A 
ATOM     19  C   UNL     1       0.970  10.147  18.403  0.00  0.00    +0.000 A 
ATOM     20  C   UNL     1       0.209  10.984  19.214  0.00  0.00    +0.000 A 
ATOM     21  C   UNL     1      -0.036  10.648  20.552  0.00  0.00    +0.000 A 
ATOM     22  C   UNL     1      -0.814  11.494  21.363  0.00  0.00    +0.000 A 
ATOM     23  C   UNL     1      -1.079  11.166  22.688  0.00  0.00    +0.000 A 
ATOM     24  C   UNL     1      -0.574   9.987  23.224  0.00  0.00    +0.000 A 
ATOM     25  C   UNL     1       0.208   9.140  22.432  0.00  0.00    +0.000 A 
ATOM     26  C   UNL     1       0.502   9.449  21.090  0.00  0.00    +0.000 A 
ENDBRANCH  16  17
ENDBRANCH  15  16
ENDBRANCH   2  15
TORSDOF 4
ENDMDL
MODEL 5
REMARK VINA RESULT:      -7.9      2.753      4.137
REMARK  Name = 
REMARK  4 active torsions:
REMARK  status: ('A' for Active; 'I' for Inactive)
REMARK    1  A    between atoms: C_2  and  C_3
REMARK    2  A    between atoms: C_3  and  O_4
REMARK    3  A    between atoms: O_4  and  C_5
REMARK    4  A    between atoms: N_18  and  C_19
REMARK                            x       y       z     vdW  Elec       q    Type
REMARK                         _______ _______ _______ _____ _____    ______ ____
ROOT
ATOM      1  O   UNL     1       1.829   5.387  20.328  0.00  0.00    +0.000 OA
ATOM      2  C   UNL     1       2.201   5.984  19.315  0.00  0.00    +0.000 C 
ATOM      3  N   UNL     1       2.307   7.363  19.283  0.00  0.00    +0.000 N 
ATOM      4  C   UNL     1       2.648   8.181  18.110  0.00  0.00    +0.000 C 
ATOM      5  C   UNL     1       1.487   9.117  17.739  0.00  0.00    +0.000 C 
ATOM      6  N   UNL     1       1.066   9.915  18.904  0.00  0.00    +0.000 N 
ATOM      7  C   UNL     1       0.741   9.132  20.114  0.00  0.00    +0.000 C 
ATOM      8  C   UNL     1       1.890   8.153  20.452  0.00  0.00    +0.000 C 
ENDROOT
BRANCH   6   9
ATOM      9  C   UNL     1       1.259  11.282  18.966  0.00  0.00    +0.000 A 
ATOM     10  C   UNL     1       2.256  11.904  18.198  0.00  0.00    +0.000 A 
ATOM     11  C   UNL     1       2.517  13.277  18.297  0.00  0.00    +0.000 A 
ATOM     12  C   UNL     1       1.772  14.066  19.164  0.00  0.00    +0.000 A 
ATOM     13  C   UNL     1       0.764  13.483  19.924  0.00  0.00    +0.000 A 
ATOM     14  C   UNL     1       0.517  12.109  19.824  0.00  0.00    +0.000 A 
ENDBRANCH   6   9
BRANCH   2  15
ATOM     15  C   UNL     1       2.582   5.175  18.068  0.00  0.00    +0.000 C 
BRANCH  15  16
ATOM     16  O   UNL     1       3.611   4.245  18.396  0.00  0.00    +0.000 OA
BRANCH  16  17
ATOM     17  C   UNL     1       4.913   4.681  18.305  0.00  0.00    +0.000 A 
ATOM     18  C   UNL     1       5.664   5.144  19.394  0.00  0.00    +0.000 A 
ATOM     19  C   UNL     1       6.968   5.595  19.216  0.00  0.00    +0.000 A 
ATOM     20  C   UNL     1       7.548   5.584  17.951  0.00  0.00    +0.000 A 
ATOM     21  C   UNL     1       6.832   5.105  16.845  0.00  0.00    +0.000 A 
ATOM     22  C   UNL     1       7.427   5.089  15.571  0.00  0.00    +0.000 A 
ATOM     23  C   UNL     1       6.736   4.600  14.467  0.00  0.00    +0.000 A 
ATOM     24  C   UNL     1       5.441   4.120  14.618  0.00  0.00    +0.000 A 
ATOM     25  C   UNL     1       4.833   4.139  15.877  0.00  0.00    +0.000 A 
ATOM     26  C   UNL     1       5.503   4.634  17.013  0.00  0.00    +0.000 A 
ENDBRANCH  16  17
ENDBRANCH  15  16
ENDBRANCH   2  15
TORSDOF 4
ENDMDL
MODEL 6
REMARK VINA RESULT:      -7.8      1.490      2.786
REMARK  Name = 
REMARK  4 active torsions:
REMARK  status: ('A' for Active; 'I' for Inactive)
REMARK    1  A    between atoms: C_2  and  C_3
REMARK    2  A    between atoms: C_3  and  O_4
REMARK    3  A    between atoms: O_4  and  C_5
REMARK    4  A    between atoms: N_18  and  C_19
REMARK                            x       y       z     vdW  Elec       q    Type
REMARK                         _______ _______ _______ _____ _____    ______ ____
ROOT
ATOM      1  O   UNL     1       2.566  10.515  17.557  0.00  0.00    +0.000 OA
ATOM      2  C   UNL     1       1.678   9.904  18.156  0.00  0.00    +0.000 C 
ATOM      3  N   UNL     1       0.791  10.552  18.998  0.00  0.00    +0.000 N 
ATOM      4  C   UNL     1      -0.241   9.916  19.830  0.00  0.00    +0.000 C 
ATOM      5  C   UNL     1       0.028  10.168  21.322  0.00  0.00    +0.000 C 
ATOM      6  N   UNL     1       0.185  11.609  21.588  0.00  0.00    +0.000 N 
ATOM      7  C   UNL     1       1.192  12.293  20.753  0.00  0.00    +0.000 C 
ATOM      8  C   UNL     1       0.951  11.993  19.255  0.00  0.00    +0.000 C 
ENDROOT
BRANCH   6   9
ATOM      9  C   UNL     1      -0.740  12.324  22.325  0.00  0.00    +0.000 A 
ATOM     10  C   UNL     1      -1.903  11.709  22.813  0.00  0.00    +0.000 A 
ATOM     11  C   UNL     1      -2.888  12.430  23.501  0.00  0.00    +0.000 A 
ATOM     12  C   UNL     1      -2.723  13.790  23.728  0.00  0.00    +0.000 A 
ATOM     13  C   UNL     1      -1.572  14.424  23.276  0.00  0.00    +0.000 A 
ATOM     14  C   UNL     1      -0.597  13.697  22.582  0.00  0.00    +0.000 A 
ENDBRANCH   6   9
BRANCH   2  15
ATOM     15  C   UNL     1       1.537   8.391  17.944  0.00  0.00    +0.000 C 
BRANCH  15  16
ATOM     16  O   UNL     1       2.342   7.697  18.893  0.00  0.00    +0.000 OA
BRANCH  16  17
ATOM     17  C   UNL     1       2.997   6.566  18.464  0.00  0.00    +0.000 A 
ATOM     18  C   UNL     1       3.981   6.561  17.466  0.00  0.00    +0.000 A 
ATOM     19  C   UNL     1       4.578   5.369  17.066  0.00  0.00    +0.000 A 
ATOM     20  C   UNL     1       4.211   4.166  17.660  0.00  0.00    +0.000 A 
ATOM     21  C   UNL     1       3.247   4.140  18.678  0.00  0.00    +0.000 A 
ATOM     22  C   UNL     1       2.888   2.921  19.280  0.00  0.00    +0.000 A 
ATOM     23  C   UNL     1       1.946   2.882  20.303  0.00  0.00    +0.000 A 
ATOM     24  C   UNL     1       1.350   4.058  20.741  0.00  0.00    +0.000 A 
ATOM     25  C   UNL     1       1.691   5.277  20.145  0.00  0.00    +0.000 A 
ATOM     26  C   UNL     1       2.635   5.349  19.102  0.00  0.00    +0.000 A 
ENDBRANCH  16  17
ENDBRANCH  15  16
ENDBRANCH   2  15
TORSDOF 4
ENDMDL
MODEL 7
REMARK VINA RESULT:      -7.8      1.408      2.083
REMARK  Name = 
REMARK  4 active torsions:
REMARK  status: ('A' for Active; 'I' for Inactive)
REMARK    1  A    between atoms: C_2  and  C_3
REMARK    2  A    between atoms: C_3  and  O_4
REMARK    3  A    between atoms: O_4  and  C_5
REMARK    4  A    between atoms: N_18  and  C_19
REMARK                            x       y       z     vdW  Elec       q    Type
REMARK                         _______ _______ _______ _____ _____    ______ ____
ROOT
ATOM      1  O   UNL     1       1.509   9.354  19.018  0.00  0.00    +0.000 OA
ATOM      2  C   UNL     1       1.012   8.988  20.085  0.00  0.00    +0.000 C 
ATOM      3  N   UNL     1      -0.140   9.568  20.586  0.00  0.00    +0.000 N 
ATOM      4  C   UNL     1      -0.766   9.278  21.884  0.00  0.00    +0.000 C 
ATOM      5  C   UNL     1      -0.771  10.526  22.780  0.00  0.00    +0.000 C 
ATOM      6  N   UNL     1      -1.386  11.669  22.081  0.00  0.00    +0.000 N 
ATOM      7  C   UNL     1      -0.805  11.977  20.758  0.00  0.00    +0.000 C 
ATOM      8  C   UNL     1      -0.751  10.705  19.879  0.00  0.00    +0.000 C 
ENDROOT
BRANCH   6   9
ATOM      9  C   UNL     1      -2.596  12.206  22.474  0.00  0.00    +0.000 A 
ATOM     10  C   UNL     1      -3.458  12.801  21.540  0.00  0.00    +0.000 A 
ATOM     11  C   UNL     1      -4.657  13.414  21.926  0.00  0.00    +0.000 A 
ATOM     12  C   UNL     1      -5.028  13.436  23.264  0.00  0.00    +0.000 A 
ATOM     13  C   UNL     1      -4.206  12.837  24.211  0.00  0.00    +0.000 A 
ATOM     14  C   UNL     1      -3.006  12.234  23.817  0.00  0.00    +0.000 A 
ENDBRANCH   6   9
BRANCH   2  15
ATOM     15  C   UNL     1       1.672   7.843  20.863  0.00  0.00    +0.000 C 
BRANCH  15  16
ATOM     16  O   UNL     1       2.537   7.113  19.999  0.00  0.00    +0.000 OA
BRANCH  16  17
ATOM     17  C   UNL     1       2.246   5.785  19.784  0.00  0.00    +0.000 A 
ATOM     18  C   UNL     1       1.318   5.054  20.537  0.00  0.00    +0.000 A 
ATOM     19  C   UNL     1       1.100   3.704  20.277  0.00  0.00    +0.000 A 
ATOM     20  C   UNL     1       1.796   3.065  19.256  0.00  0.00    +0.000 A 
ATOM     21  C   UNL     1       2.714   3.774  18.468  0.00  0.00    +0.000 A 
ATOM     22  C   UNL     1       3.407   3.123  17.432  0.00  0.00    +0.000 A 
ATOM     23  C   UNL     1       4.308   3.817  16.631  0.00  0.00    +0.000 A 
ATOM     24  C   UNL     1       4.530   5.171  16.852  0.00  0.00    +0.000 A 
ATOM     25  C   UNL     1       3.853   5.830  17.884  0.00  0.00    +0.000 A 
ATOM     26  C   UNL     1       2.942   5.153  18.718  0.00  0.00    +0.000 A 
ENDBRANCH  16  17
ENDBRANCH  15  16
ENDBRANCH   2  15
TORSDOF 4
ENDMDL
MODEL 8
REMARK VINA RESULT:      -7.7      1.468      2.917
REMARK  Name = 
REMARK  4 active torsions:
REMARK  status: ('A' for Active; 'I' for Inactive)
REMARK    1  A    between atoms: C_2  and  C_3
REMARK    2  A    between atoms: C_3  and  O_4
REMARK    3  A    between atoms: O_4  and  C_5
REMARK    4  A    between atoms: N_18  and  C_19
REMARK                            x       y       z     vdW  Elec       q    Type
REMARK                         _______ _______ _______ _____ _____    ______ ____
ROOT
ATOM      1  O   UNL     1       1.818   9.632  17.460  0.00  0.00    +0.000 OA
ATOM      2  C   UNL     1       1.503   9.196  18.569  0.00  0.00    +0.000 C 
ATOM      3  N   UNL     1       0.427   9.708  19.272  0.00  0.00    +0.000 N 
ATOM      4  C   UNL     1       0.019   9.331  20.633  0.00  0.00    +0.000 C 
ATOM      5  C   UNL     1       0.117  10.533  21.586  0.00  0.00    +0.000 C 
ATOM      6  N   UNL     1      -0.630  11.686  21.052  0.00  0.00    +0.000 N 
ATOM      7  C   UNL     1      -0.271  12.079  19.675  0.00  0.00    +0.000 C 
ATOM      8  C   UNL     1      -0.318  10.856  18.730  0.00  0.00    +0.000 C 
ENDROOT
BRANCH   6   9
ATOM      9  C   UNL     1      -1.779  12.159  21.656  0.00  0.00    +0.000 A 
ATOM     10  C   UNL     1      -2.641  13.035  20.977  0.00  0.00    +0.000 A 
ATOM     11  C   UNL     1      -3.774  13.582  21.593  0.00  0.00    +0.000 A 
ATOM     12  C   UNL     1      -4.079  13.253  22.908  0.00  0.00    +0.000 A 
ATOM     13  C   UNL     1      -3.256  12.372  23.600  0.00  0.00    +0.000 A 
ATOM     14  C   UNL     1      -2.122  11.837  22.979  0.00  0.00    +0.000 A 
ENDBRANCH   6   9
BRANCH   2  15
ATOM     15  C   UNL     1       2.309   8.039  19.174  0.00  0.00    +0.000 C 
BRANCH  15  16
ATOM     16  O   UNL     1       2.259   6.913  18.302  0.00  0.00    +0.000 OA
BRANCH  16  17
ATOM     17  C   UNL     1       3.181   5.913  18.503  0.00  0.00    +0.000 A 
ATOM     18  C   UNL     1       4.472   5.914  17.958  0.00  0.00    +0.000 A 
ATOM     19  C   UNL     1       5.339   4.850  18.186  0.00  0.00    +0.000 A 
ATOM     20  C   UNL     1       4.937   3.772  18.968  0.00  0.00    +0.000 A 
ATOM     21  C   UNL     1       3.661   3.751  19.548  0.00  0.00    +0.000 A 
ATOM     22  C   UNL     1       3.265   2.662  20.344  0.00  0.00    +0.000 A 
ATOM     23  C   UNL     1       2.008   2.635  20.941  0.00  0.00    +0.000 A 
ATOM     24  C   UNL     1       1.129   3.695  20.752  0.00  0.00    +0.000 A 
ATOM     25  C   UNL     1       1.506   4.780  19.955  0.00  0.00    +0.000 A 
ATOM     26  C   UNL     1       2.768   4.833  19.330  0.00  0.00    +0.000 A 
ENDBRANCH  16  17
ENDBRANCH  15  16
ENDBRANCH   2  15
TORSDOF 4
ENDMDL
MODEL 9
REMARK VINA RESULT:      -7.7      2.619      9.877
REMARK  Name = 
REMARK  4 active torsions:
REMARK  status: ('A' for Active; 'I' for Inactive)
REMARK    1  A    between atoms: C_2  and  C_3
REMARK    2  A    between atoms: C_3  and  O_4
REMARK    3  A    between atoms: O_4  and  C_5
REMARK    4  A    between atoms: N_18  and  C_19
REMARK                            x       y       z     vdW  Elec       q    Type
REMARK                         _______ _______ _______ _____ _____    ______ ____
ROOT
ATOM      1  O   UNL     1       1.603   4.589  19.712  0.00  0.00    +0.000 OA
ATOM      2  C   UNL     1       2.387   5.470  19.353  0.00  0.00    +0.000 C 
ATOM      3  N   UNL     1       3.061   5.395  18.147  0.00  0.00    +0.000 N 
ATOM      4  C   UNL     1       4.082   6.334  17.662  0.00  0.00    +0.000 C 
ATOM      5  C   UNL     1       5.435   5.627  17.484  0.00  0.00    +0.000 C 
ATOM      6  N   UNL     1       5.292   4.432  16.633  0.00  0.00    +0.000 N 
ATOM      7  C   UNL     1       4.255   3.475  17.070  0.00  0.00    +0.000 C 
ATOM      8  C   UNL     1       2.908   4.200  17.301  0.00  0.00    +0.000 C 
ENDROOT
BRANCH   6   9
ATOM      9  C   UNL     1       5.849   4.358  15.371  0.00  0.00    +0.000 A 
ATOM     10  C   UNL     1       7.040   5.038  15.068  0.00  0.00    +0.000 A 
ATOM     11  C   UNL     1       7.585   5.035  13.778  0.00  0.00    +0.000 A 
ATOM     12  C   UNL     1       6.953   4.336  12.757  0.00  0.00    +0.000 A 
ATOM     13  C   UNL     1       5.783   3.636  13.030  0.00  0.00    +0.000 A 
ATOM     14  C   UNL     1       5.242   3.652  14.321  0.00  0.00    +0.000 A 
ENDBRANCH   6   9
BRANCH   2  15
ATOM     15  C   UNL     1       2.600   6.693  20.254  0.00  0.00    +0.000 C 
BRANCH  15  16
ATOM     16  O   UNL     1       1.345   7.305  20.537  0.00  0.00    +0.000 OA
BRANCH  16  17
ATOM     17  C   UNL     1       1.147   8.588  20.081  0.00  0.00    +0.000 A 
ATOM     18  C   UNL     1       1.554   9.044  18.820  0.00  0.00    +0.000 A 
ATOM     19  C   UNL     1       1.343  10.367  18.442  0.00  0.00    +0.000 A 
ATOM     20  C   UNL     1       0.715  11.253  19.311  0.00  0.00    +0.000 A 
ATOM     21  C   UNL     1       0.275  10.822  20.570  0.00  0.00    +0.000 A 
ATOM     22  C   UNL     1      -0.367  11.722  21.440  0.00  0.00    +0.000 A 
ATOM     23  C   UNL     1      -0.825  11.306  22.686  0.00  0.00    +0.000 A 
ATOM     24  C   UNL     1      -0.650   9.985  23.082  0.00  0.00    +0.000 A 
ATOM     25  C   UNL     1      -0.006   9.081  22.230  0.00  0.00    +0.000 A 
ATOM     26  C   UNL     1       0.476   9.474  20.967  0.00  0.00    +0.000 A 
ENDBRANCH  16  17
ENDBRANCH  15  16
ENDBRANCH   2  15
TORSDOF 4
ENDMDL
