MODEL 1
REMARK VINA RESULT:      -8.7      0.000      0.000
REMARK  Name = 
REMARK  7 active torsions:
REMARK  status: ('A' for Active; 'I' for Inactive)
REMARK    1  A    between atoms: C_1  and  O_2
REMARK    2  A    between atoms: O_2  and  C_3
REMARK    3  A    between atoms: C_7  and  C_8
REMARK    4  A    between atoms: C_13  and  C_14
REMARK    5  A    between atoms: C_15  and  C_16
REMARK    6  A    between atoms: C_18  and  C_19
REMARK    7  A    between atoms: C_22  and  C_23
REMARK                            x       y       z     vdW  Elec       q    Type
REMARK                         _______ _______ _______ _____ _____    ______ ____
ROOT
ATOM      1  C   UNL     1       4.923   4.264  19.509  0.00  0.00    +0.000 C 
ATOM      2  N   UNL     1       5.216   2.858  19.321  0.00  0.00    +0.000 N 
ATOM      3  C   UNL     1       4.323   1.869  19.538  0.00  0.00    +0.000 C 
ATOM      4  O   UNL     1       4.663   0.694  19.608  0.00  0.00    +0.000 OA
ATOM      5  N   UNL     1       3.020   2.253  19.622  0.00  0.00    +0.000 N 
ATOM      6  C   UNL     1       2.551   3.539  19.468  0.00  0.00    +0.000 C 
ATOM      7  C   UNL     1       1.052   3.675  19.423  0.00  0.00    +0.000 C 
ATOM      8  C   UNL     1       3.434   4.562  19.369  0.00  0.00    +0.000 C 
ATOM      9  H   UNL     1       6.182   2.561  19.289  0.00  0.00    +0.000 HD
ATOM     10  H   UNL     1       2.371   1.481  19.726  0.00  0.00    +0.000 HD
ENDROOT
BRANCH   1  15
ATOM     11  C   UNL     1       6.548   5.614  16.326  0.00  0.00    +0.000 A 
ATOM     12  C   UNL     1       7.464   6.527  16.854  0.00  0.00    +0.000 A 
ATOM     13  C   UNL     1       7.563   6.718  18.232  0.00  0.00    +0.000 A 
ATOM     14  C   UNL     1       6.742   5.995  19.092  0.00  0.00    +0.000 A 
ATOM     15  C   UNL     1       5.828   5.057  18.582  0.00  0.00    +0.000 A 
ATOM     16  C   UNL     1       5.736   4.880  17.192  0.00  0.00    +0.000 A 
BRANCH  11  18
ATOM     17  C   UNL     1       6.414   4.226  14.402  0.00  0.00    +0.000 C 
ATOM     18  O   UNL     1       6.543   5.528  14.960  0.00  0.00    +0.000 OA
ENDBRANCH  11  18
ENDBRANCH   1  15
BRANCH   8  19
ATOM     19  C   UNL     1       2.918   5.898  19.231  0.00  0.00    +0.000 A 
ATOM     20  N   UNL     1       2.236   6.580  20.135  0.00  0.00    +0.000 NA
ATOM     21  C   UNL     1       1.924   7.855  19.666  0.00  0.00    +0.000 A 
ATOM     22  C   UNL     1       2.365   8.117  18.385  0.00  0.00    +0.000 A 
ATOM     23  S   UNL     1       3.170   6.755  17.744  0.00  0.00    +0.000 S 
BRANCH  21  24
ATOM     24  C   UNL     1       1.163   8.808  20.473  0.00  0.00    +0.000 A 
ATOM     25  C   UNL     1       1.048   8.679  21.866  0.00  0.00    +0.000 A 
ATOM     26  C   UNL     1       0.317   9.608  22.617  0.00  0.00    +0.000 A 
ATOM     27  C   UNL     1      -0.311  10.684  21.986  0.00  0.00    +0.000 A 
ATOM     28  C   UNL     1      -0.202  10.824  20.598  0.00  0.00    +0.000 A 
ATOM     29  C   UNL     1       0.526   9.892  19.850  0.00  0.00    +0.000 A 
BRANCH  27  30
ATOM     30  C   UNL     1      -1.066  11.633  22.754  0.00  0.00    +0.000 C 
ATOM     31  N   UNL     1      -1.674  12.400  23.378  0.00  0.00    +0.000 NA
ENDBRANCH  27  30
ENDBRANCH  21  24
ENDBRANCH   8  19
TORSDOF 5
ENDMDL
MODEL 2
REMARK VINA RESULT:      -8.7      0.892      1.858
REMARK  Name = 
REMARK  7 active torsions:
REMARK  status: ('A' for Active; 'I' for Inactive)
REMARK    1  A    between atoms: C_1  and  O_2
REMARK    2  A    between atoms: O_2  and  C_3
REMARK    3  A    between atoms: C_7  and  C_8
REMARK    4  A    between atoms: C_13  and  C_14
REMARK    5  A    between atoms: C_15  and  C_16
REMARK    6  A    between atoms: C_18  and  C_19
REMARK    7  A    between atoms: C_22  and  C_23
REMARK                            x       y       z     vdW  Elec       q    Type
REMARK                         _______ _______ _______ _____ _____    ______ ____
ROOT
ATOM      1  C   UNL     1       4.984   4.384  19.430  0.00  0.00    +0.000 C 
ATOM      2  N   UNL     1       5.291   2.970  19.496  0.00  0.00    +0.000 N 
ATOM      3  C   UNL     1       4.580   2.081  20.222  0.00  0.00    +0.000 C 
ATOM      4  O   UNL     1       4.999   0.953  20.454  0.00  0.00    +0.000 OA
ATOM      5  N   UNL     1       3.350   2.496  20.631  0.00  0.00    +0.000 N 
ATOM      6  C   UNL     1       2.776   3.713  20.337  0.00  0.00    +0.000 C 
ATOM      7  C   UNL     1       1.336   3.861  20.752  0.00  0.00    +0.000 C 
ATOM      8  C   UNL     1       3.513   4.665  19.716  0.00  0.00    +0.000 C 
ATOM      9  H   UNL     1       6.213   2.658  19.224  0.00  0.00    +0.000 HD
ATOM     10  H   UNL     1       2.819   1.786  21.121  0.00  0.00    +0.000 HD
ENDROOT
BRANCH   1  15
ATOM     11  C   UNL     1       6.917   6.442  16.855  0.00  0.00    +0.000 A 
ATOM     12  C   UNL     1       6.467   5.874  15.660  0.00  0.00    +0.000 A 
ATOM     13  C   UNL     1       5.547   4.827  15.673  0.00  0.00    +0.000 A 
ATOM     14  C   UNL     1       5.070   4.339  16.887  0.00  0.00    +0.000 A 
ATOM     15  C   UNL     1       5.493   4.909  18.099  0.00  0.00    +0.000 A 
ATOM     16  C   UNL     1       6.425   5.960  18.070  0.00  0.00    +0.000 A 
BRANCH  11  18
ATOM     17  C   UNL     1       7.891   8.413  17.755  0.00  0.00    +0.000 C 
ATOM     18  O   UNL     1       7.825   7.454  16.706  0.00  0.00    +0.000 OA
ENDBRANCH  11  18
ENDBRANCH   1  15
BRANCH   8  19
ATOM     19  C   UNL     1       2.896   5.935  19.440  0.00  0.00    +0.000 A 
ATOM     20  N   UNL     1       2.272   6.716  20.305  0.00  0.00    +0.000 NA
ATOM     21  C   UNL     1       1.825   7.883  19.690  0.00  0.00    +0.000 A 
ATOM     22  C   UNL     1       2.104   7.962  18.341  0.00  0.00    +0.000 A 
ATOM     23  S   UNL     1       2.925   6.558  17.821  0.00  0.00    +0.000 S 
BRANCH  21  24
ATOM     24  C   UNL     1       1.094   8.913  20.429  0.00  0.00    +0.000 A 
ATOM     25  C   UNL     1       0.429   9.965  19.779  0.00  0.00    +0.000 A 
ATOM     26  C   UNL     1      -0.267  10.936  20.510  0.00  0.00    +0.000 A 
ATOM     27  C   UNL     1      -0.309  10.871  21.904  0.00  0.00    +0.000 A 
ATOM     28  C   UNL     1       0.350   9.828  22.562  0.00  0.00    +0.000 A 
ATOM     29  C   UNL     1       1.048   8.860  21.830  0.00  0.00    +0.000 A 
BRANCH  27  30
ATOM     30  C   UNL     1      -1.016  11.871  22.654  0.00  0.00    +0.000 C 
ATOM     31  N   UNL     1      -1.585  12.682  23.259  0.00  0.00    +0.000 NA
ENDBRANCH  27  30
ENDBRANCH  21  24
ENDBRANCH   8  19
TORSDOF 5
ENDMDL
MODEL 3
REMARK VINA RESULT:      -8.2      0.782      1.218
REMARK  Name = 
REMARK  7 active torsions:
REMARK  status: ('A' for Active; 'I' for Inactive)
REMARK    1  A    between atoms: C_1  and  O_2
REMARK    2  A    between atoms: O_2  and  C_3
REMARK    3  A    between atoms: C_7  and  C_8
REMARK    4  A    between atoms: C_13  and  C_14
REMARK    5  A    between atoms: C_15  and  C_16
REMARK    6  A    between atoms: C_18  and  C_19
REMARK    7  A    between atoms: C_22  and  C_23
REMARK                            x       y       z     vdW  Elec       q    Type
REMARK                         _______ _______ _______ _____ _____    ______ ____
ROOT
ATOM      1  C   UNL     1       4.941   4.425  19.625  0.00  0.00    +0.000 C 
ATOM      2  N   UNL     1       5.255   3.016  19.738  0.00  0.00    +0.000 N 
ATOM      3  C   UNL     1       4.501   2.132  20.427  0.00  0.00    +0.000 C 
ATOM      4  O   UNL     1       4.912   1.013  20.709  0.00  0.00    +0.000 OA
ATOM      5  N   UNL     1       3.242   2.542  20.741  0.00  0.00    +0.000 N 
ATOM      6  C   UNL     1       2.680   3.749  20.386  0.00  0.00    +0.000 C 
ATOM      7  C   UNL     1       1.213   3.889  20.695  0.00  0.00    +0.000 C 
ATOM      8  C   UNL     1       3.451   4.697  19.801  0.00  0.00    +0.000 C 
ATOM      9  H   UNL     1       6.196   2.708  19.537  0.00  0.00    +0.000 HD
ATOM     10  H   UNL     1       2.684   1.835  21.205  0.00  0.00    +0.000 HD
ENDROOT
BRANCH   1  15
ATOM     11  C   UNL     1       5.807   4.715  15.914  0.00  0.00    +0.000 A 
ATOM     12  C   UNL     1       6.602   5.864  15.910  0.00  0.00    +0.000 A 
ATOM     13  C   UNL     1       6.862   6.554  17.093  0.00  0.00    +0.000 A 
ATOM     14  C   UNL     1       6.323   6.097  18.293  0.00  0.00    +0.000 A 
ATOM     15  C   UNL     1       5.538   4.933  18.323  0.00  0.00    +0.000 A 
ATOM     16  C   UNL     1       5.281   4.252  17.122  0.00  0.00    +0.000 A 
BRANCH  11  18
ATOM     17  C   UNL     1       6.617   4.392  13.704  0.00  0.00    +0.000 C 
ATOM     18  O   UNL     1       5.621   4.138  14.688  0.00  0.00    +0.000 OA
ENDBRANCH  11  18
ENDBRANCH   1  15
BRANCH   8  19
ATOM     19  C   UNL     1       2.844   5.956  19.459  0.00  0.00    +0.000 A 
ATOM     20  N   UNL     1       2.290   6.819  20.293  0.00  0.00    +0.000 NA
ATOM     21  C   UNL     1       1.830   7.944  19.612  0.00  0.00    +0.000 A 
ATOM     22  C   UNL     1       2.027   7.907  18.247  0.00  0.00    +0.000 A 
ATOM     23  S   UNL     1       2.786   6.446  17.796  0.00  0.00    +0.000 S 
BRANCH  21  24
ATOM     24  C   UNL     1       1.167   9.048  20.306  0.00  0.00    +0.000 A 
ATOM     25  C   UNL     1       0.906  10.275  19.676  0.00  0.00    +0.000 A 
ATOM     26  C   UNL     1       0.266  11.314  20.362  0.00  0.00    +0.000 A 
ATOM     27  C   UNL     1      -0.124  11.144  21.691  0.00  0.00    +0.000 A 
ATOM     28  C   UNL     1       0.129   9.926  22.330  0.00  0.00    +0.000 A 
ATOM     29  C   UNL     1       0.772   8.889  21.643  0.00  0.00    +0.000 A 
BRANCH  27  30
ATOM     30  C   UNL     1      -0.774  12.213  22.398  0.00  0.00    +0.000 C 
ATOM     31  N   UNL     1      -1.295  13.077  22.969  0.00  0.00    +0.000 NA
ENDBRANCH  27  30
ENDBRANCH  21  24
ENDBRANCH   8  19
TORSDOF 5
ENDMDL
MODEL 4
REMARK VINA RESULT:      -7.7      4.727      9.716
REMARK  Name = 
REMARK  7 active torsions:
REMARK  status: ('A' for Active; 'I' for Inactive)
REMARK    1  A    between atoms: C_1  and  O_2
REMARK    2  A    between atoms: O_2  and  C_3
REMARK    3  A    between atoms: C_7  and  C_8
REMARK    4  A    between atoms: C_13  and  C_14
REMARK    5  A    between atoms: C_15  and  C_16
REMARK    6  A    between atoms: C_18  and  C_19
REMARK    7  A    between atoms: C_22  and  C_23
REMARK                            x       y       z     vdW  Elec       q    Type
REMARK                         _______ _______ _______ _____ _____    ______ ____
ROOT
ATOM      1  C   UNL     1      -1.283  12.755  19.627  0.00  0.00    +0.000 C 
ATOM      2  N   UNL     1      -1.253  14.043  18.964  0.00  0.00    +0.000 N 
ATOM      3  C   UNL     1      -0.299  14.974  19.177  0.00  0.00    +0.000 C 
ATOM      4  O   UNL     1      -0.429  16.132  18.797  0.00  0.00    +0.000 OA
ATOM      5  N   UNL     1       0.834  14.536  19.791  0.00  0.00    +0.000 N 
ATOM      6  C   UNL     1       1.089  13.236  20.169  0.00  0.00    +0.000 C 
ATOM      7  C   UNL     1       2.487  12.973  20.662  0.00  0.00    +0.000 C 
ATOM      8  C   UNL     1       0.104  12.310  20.076  0.00  0.00    +0.000 C 
ATOM      9  H   UNL     1      -2.099  14.389  18.534  0.00  0.00    +0.000 HD
ATOM     10  H   UNL     1       1.552  15.245  19.882  0.00  0.00    +0.000 HD
ENDROOT
BRANCH   1  15
ATOM     11  C   UNL     1      -4.091  10.931  17.787  0.00  0.00    +0.000 A 
ATOM     12  C   UNL     1      -3.365  10.013  17.023  0.00  0.00    +0.000 A 
ATOM     13  C   UNL     1      -1.973   9.976  17.090  0.00  0.00    +0.000 A 
ATOM     14  C   UNL     1      -1.297  10.863  17.924  0.00  0.00    +0.000 A 
ATOM     15  C   UNL     1      -2.008  11.780  18.716  0.00  0.00    +0.000 A 
ATOM     16  C   UNL     1      -3.410  11.808  18.633  0.00  0.00    +0.000 A 
BRANCH  11  18
ATOM     17  C   UNL     1      -6.218  10.557  18.778  0.00  0.00    +0.000 C 
ATOM     18  O   UNL     1      -5.448  10.871  17.623  0.00  0.00    +0.000 OA
ENDBRANCH  11  18
ENDBRANCH   1  15
BRANCH   8  19
ATOM     19  C   UNL     1       0.391  10.964  20.498  0.00  0.00    +0.000 A 
ATOM     20  N   UNL     1       1.008  10.030  19.795  0.00  0.00    +0.000 NA
ATOM     21  C   UNL     1       1.137   8.855  20.533  0.00  0.00    +0.000 A 
ATOM     22  C   UNL     1       0.590   8.911  21.798  0.00  0.00    +0.000 A 
ATOM     23  S   UNL     1      -0.110  10.444  22.075  0.00  0.00    +0.000 S 
BRANCH  21  24
ATOM     24  C   UNL     1       1.779   7.663  19.978  0.00  0.00    +0.000 A 
ATOM     25  C   UNL     1       1.791   6.438  20.663  0.00  0.00    +0.000 A 
ATOM     26  C   UNL     1       2.408   5.310  20.108  0.00  0.00    +0.000 A 
ATOM     27  C   UNL     1       3.024   5.389  18.858  0.00  0.00    +0.000 A 
ATOM     28  C   UNL     1       3.017   6.604  18.166  0.00  0.00    +0.000 A 
ATOM     29  C   UNL     1       2.402   7.731  18.724  0.00  0.00    +0.000 A 
BRANCH  27  30
ATOM     30  C   UNL     1       3.664   4.234  18.292  0.00  0.00    +0.000 C 
ATOM     31  N   UNL     1       4.184   3.303  17.835  0.00  0.00    +0.000 NA
ENDBRANCH  27  30
ENDBRANCH  21  24
ENDBRANCH   8  19
TORSDOF 5
ENDMDL
MODEL 5
REMARK VINA RESULT:      -7.6      4.614      9.782
REMARK  Name = 
REMARK  7 active torsions:
REMARK  status: ('A' for Active; 'I' for Inactive)
REMARK    1  A    between atoms: C_1  and  O_2
REMARK    2  A    between atoms: O_2  and  C_3
REMARK    3  A    between atoms: C_7  and  C_8
REMARK    4  A    between atoms: C_13  and  C_14
REMARK    5  A    between atoms: C_15  and  C_16
REMARK    6  A    between atoms: C_18  and  C_19
REMARK    7  A    between atoms: C_22  and  C_23
REMARK                            x       y       z     vdW  Elec       q    Type
REMARK                         _______ _______ _______ _____ _____    ______ ____
ROOT
ATOM      1  C   UNL     1      -1.422  13.414  20.121  0.00  0.00    +0.000 C 
ATOM      2  N   UNL     1      -1.393  14.747  19.554  0.00  0.00    +0.000 N 
ATOM      3  C   UNL     1      -0.358  15.602  19.701  0.00  0.00    +0.000 C 
ATOM      4  O   UNL     1      -0.459  16.792  19.425  0.00  0.00    +0.000 OA
ATOM      5  N   UNL     1       0.813  15.052  20.122  0.00  0.00    +0.000 N 
ATOM      6  C   UNL     1       1.027  13.714  20.369  0.00  0.00    +0.000 C 
ATOM      7  C   UNL     1       2.457  13.334  20.649  0.00  0.00    +0.000 C 
ATOM      8  C   UNL     1      -0.021  12.856  20.346  0.00  0.00    +0.000 C 
ATOM      9  H   UNL     1      -2.263  15.174  19.268  0.00  0.00    +0.000 HD
ATOM     10  H   UNL     1       1.583  15.710  20.165  0.00  0.00    +0.000 HD
ENDROOT
BRANCH   1  15
ATOM     11  C   UNL     1      -2.624  11.150  17.287  0.00  0.00    +0.000 A 
ATOM     12  C   UNL     1      -3.959  10.950  17.647  0.00  0.00    +0.000 A 
ATOM     13  C   UNL     1      -4.480  11.535  18.800  0.00  0.00    +0.000 A 
ATOM     14  C   UNL     1      -3.664  12.325  19.604  0.00  0.00    +0.000 A 
ATOM     15  C   UNL     1      -2.324  12.557  19.250  0.00  0.00    +0.000 A 
ATOM     16  C   UNL     1      -1.813  11.956  18.088  0.00  0.00    +0.000 A 
BRANCH  11  18
ATOM     17  C   UNL     1      -3.131  10.579  15.037  0.00  0.00    +0.000 C 
ATOM     18  O   UNL     1      -2.234  10.514  16.140  0.00  0.00    +0.000 OA
ENDBRANCH  11  18
ENDBRANCH   1  15
BRANCH   8  19
ATOM     19  C   UNL     1       0.227  11.467  20.628  0.00  0.00    +0.000 A 
ATOM     20  N   UNL     1       0.878  10.609  19.862  0.00  0.00    +0.000 NA
ATOM     21  C   UNL     1       0.951   9.357  20.468  0.00  0.00    +0.000 A 
ATOM     22  C   UNL     1       0.327   9.278  21.696  0.00  0.00    +0.000 A 
ATOM     23  S   UNL     1      -0.374  10.780  22.103  0.00  0.00    +0.000 S 
BRANCH  21  24
ATOM     24  C   UNL     1       1.615   8.224  19.821  0.00  0.00    +0.000 A 
ATOM     25  C   UNL     1       1.772   6.987  20.465  0.00  0.00    +0.000 A 
ATOM     26  C   UNL     1       2.408   5.918  19.822  0.00  0.00    +0.000 A 
ATOM     27  C   UNL     1       2.897   6.068  18.523  0.00  0.00    +0.000 A 
ATOM     28  C   UNL     1       2.746   7.297  17.871  0.00  0.00    +0.000 A 
ATOM     29  C   UNL     1       2.113   8.365  18.517  0.00  0.00    +0.000 A 
BRANCH  27  30
ATOM     30  C   UNL     1       3.556   4.974  17.866  0.00  0.00    +0.000 C 
ATOM     31  N   UNL     1       4.085   4.088  17.336  0.00  0.00    +0.000 NA
ENDBRANCH  27  30
ENDBRANCH  21  24
ENDBRANCH   8  19
TORSDOF 5
ENDMDL
MODEL 6
REMARK VINA RESULT:      -7.6      4.855      9.965
REMARK  Name = 
REMARK  7 active torsions:
REMARK  status: ('A' for Active; 'I' for Inactive)
REMARK    1  A    between atoms: C_1  and  O_2
REMARK    2  A    between atoms: O_2  and  C_3
REMARK    3  A    between atoms: C_7  and  C_8
REMARK    4  A    between atoms: C_13  and  C_14
REMARK    5  A    between atoms: C_15  and  C_16
REMARK    6  A    between atoms: C_18  and  C_19
REMARK    7  A    between atoms: C_22  and  C_23
REMARK                            x       y       z     vdW  Elec       q    Type
REMARK                         _______ _______ _______ _____ _____    ______ ____
ROOT
ATOM      1  C   UNL     1      -1.418  13.004  19.888  0.00  0.00    +0.000 C 
ATOM      2  N   UNL     1      -1.406  14.337  19.322  0.00  0.00    +0.000 N 
ATOM      3  C   UNL     1      -0.439  15.248  19.567  0.00  0.00    +0.000 C 
ATOM      4  O   UNL     1      -0.577  16.431  19.279  0.00  0.00    +0.000 OA
ATOM      5  N   UNL     1       0.713  14.762  20.105  0.00  0.00    +0.000 N 
ATOM      6  C   UNL     1       0.974  13.437  20.377  0.00  0.00    +0.000 C 
ATOM      7  C   UNL     1       2.388  13.136  20.798  0.00  0.00    +0.000 C 
ATOM      8  C   UNL     1      -0.018  12.523  20.253  0.00  0.00    +0.000 C 
ATOM      9  H   UNL     1      -2.265  14.716  18.949  0.00  0.00    +0.000 HD
ATOM     10  H   UNL     1       1.437  15.461  20.222  0.00  0.00    +0.000 HD
ENDROOT
BRANCH   1  15
ATOM     11  C   UNL     1      -4.274  11.061  18.254  0.00  0.00    +0.000 A 
ATOM     12  C   UNL     1      -3.615  10.463  17.177  0.00  0.00    +0.000 A 
ATOM     13  C   UNL     1      -2.254  10.682  16.966  0.00  0.00    +0.000 A 
ATOM     14  C   UNL     1      -1.543  11.505  17.834  0.00  0.00    +0.000 A 
ATOM     15  C   UNL     1      -2.181  12.100  18.935  0.00  0.00    +0.000 A 
ATOM     16  C   UNL     1      -3.554  11.874  19.131  0.00  0.00    +0.000 A 
BRANCH  11  18
ATOM     17  C   UNL     1      -6.509  11.771  17.874  0.00  0.00    +0.000 C 
ATOM     18  O   UNL     1      -5.609  10.775  18.344  0.00  0.00    +0.000 OA
ENDBRANCH  11  18
ENDBRANCH   1  15
BRANCH   8  19
ATOM     19  C   UNL     1       0.277  11.149  20.563  0.00  0.00    +0.000 A 
ATOM     20  N   UNL     1       0.939  10.292  19.805  0.00  0.00    +0.000 NA
ATOM     21  C   UNL     1       1.061   9.058  20.440  0.00  0.00    +0.000 A 
ATOM     22  C   UNL     1       0.463   8.991  21.681  0.00  0.00    +0.000 A 
ATOM     23  S   UNL     1      -0.276  10.481  22.066  0.00  0.00    +0.000 S 
BRANCH  21  24
ATOM     24  C   UNL     1       1.746   7.930  19.807  0.00  0.00    +0.000 A 
ATOM     25  C   UNL     1       2.321   8.029  18.531  0.00  0.00    +0.000 A 
ATOM     26  C   UNL     1       2.975   6.936  17.950  0.00  0.00    +0.000 A 
ATOM     27  C   UNL     1       3.063   5.723  18.636  0.00  0.00    +0.000 A 
ATOM     28  C   UNL     1       2.494   5.612  19.909  0.00  0.00    +0.000 A 
ATOM     29  C   UNL     1       1.839   6.706  20.486  0.00  0.00    +0.000 A 
BRANCH  27  30
ATOM     30  C   UNL     1       3.727   4.599  18.037  0.00  0.00    +0.000 C 
ATOM     31  N   UNL     1       4.260   3.689  17.553  0.00  0.00    +0.000 NA
ENDBRANCH  27  30
ENDBRANCH  21  24
ENDBRANCH   8  19
TORSDOF 5
ENDMDL
MODEL 7
REMARK VINA RESULT:      -7.5      4.505      9.393
REMARK  Name = 
REMARK  7 active torsions:
REMARK  status: ('A' for Active; 'I' for Inactive)
REMARK    1  A    between atoms: C_1  and  O_2
REMARK    2  A    between atoms: O_2  and  C_3
REMARK    3  A    between atoms: C_7  and  C_8
REMARK    4  A    between atoms: C_13  and  C_14
REMARK    5  A    between atoms: C_15  and  C_16
REMARK    6  A    between atoms: C_18  and  C_19
REMARK    7  A    between atoms: C_22  and  C_23
REMARK                            x       y       z     vdW  Elec       q    Type
REMARK                         _______ _______ _______ _____ _____    ______ ____
ROOT
ATOM      1  C   UNL     1      -1.206  12.632  19.433  0.00  0.00    +0.000 C 
ATOM      2  N   UNL     1      -1.204  13.912  18.755  0.00  0.00    +0.000 N 
ATOM      3  C   UNL     1      -0.286  14.877  18.976  0.00  0.00    +0.000 C 
ATOM      4  O   UNL     1      -0.446  16.026  18.579  0.00  0.00    +0.000 OA
ATOM      5  N   UNL     1       0.847  14.484  19.619  0.00  0.00    +0.000 N 
ATOM      6  C   UNL     1       1.136  13.198  20.019  0.00  0.00    +0.000 C 
ATOM      7  C   UNL     1       2.531  12.988  20.546  0.00  0.00    +0.000 C 
ATOM      8  C   UNL     1       0.185  12.239  19.918  0.00  0.00    +0.000 C 
ATOM      9  H   UNL     1      -2.052  14.225  18.302  0.00  0.00    +0.000 HD
ATOM     10  H   UNL     1       1.539  15.218  19.717  0.00  0.00    +0.000 HD
ENDROOT
BRANCH   1  15
ATOM     11  C   UNL     1      -2.506  10.914  16.276  0.00  0.00    +0.000 A 
ATOM     12  C   UNL     1      -3.086   9.763  16.813  0.00  0.00    +0.000 A 
ATOM     13  C   UNL     1      -3.061   9.528  18.187  0.00  0.00    +0.000 A 
ATOM     14  C   UNL     1      -2.451  10.448  19.035  0.00  0.00    +0.000 A 
ATOM     15  C   UNL     1      -1.879  11.622  18.519  0.00  0.00    +0.000 A 
ATOM     16  C   UNL     1      -1.907  11.842  17.132  0.00  0.00    +0.000 A 
BRANCH  11  18
ATOM     17  C   UNL     1      -3.531  10.177  14.264  0.00  0.00    +0.000 C 
ATOM     18  O   UNL     1      -2.589  11.021  14.915  0.00  0.00    +0.000 OA
ENDBRANCH  11  18
ENDBRANCH   1  15
BRANCH   8  19
ATOM     19  C   UNL     1       0.507  10.908  20.362  0.00  0.00    +0.000 A 
ATOM     20  N   UNL     1       1.065   9.948  19.644  0.00  0.00    +0.000 NA
ATOM     21  C   UNL     1       1.255   8.801  20.411  0.00  0.00    +0.000 A 
ATOM     22  C   UNL     1       0.813   8.903  21.714  0.00  0.00    +0.000 A 
ATOM     23  S   UNL     1       0.138  10.446  21.992  0.00  0.00    +0.000 S 
BRANCH  21  24
ATOM     24  C   UNL     1       1.850   7.588  19.849  0.00  0.00    +0.000 A 
ATOM     25  C   UNL     1       2.451   7.572  18.581  0.00  0.00    +0.000 A 
ATOM     26  C   UNL     1       3.017   6.399  18.067  0.00  0.00    +0.000 A 
ATOM     27  C   UNL     1       2.991   5.220  18.815  0.00  0.00    +0.000 A 
ATOM     28  C   UNL     1       2.395   5.223  20.080  0.00  0.00    +0.000 A 
ATOM     29  C   UNL     1       1.827   6.397  20.590  0.00  0.00    +0.000 A 
BRANCH  27  30
ATOM     30  C   UNL     1       3.564   4.014  18.286  0.00  0.00    +0.000 C 
ATOM     31  N   UNL     1       4.031   3.041  17.859  0.00  0.00    +0.000 NA
ENDBRANCH  27  30
ENDBRANCH  21  24
ENDBRANCH   8  19
TORSDOF 5
ENDMDL
MODEL 8
REMARK VINA RESULT:      -7.4      4.773      9.868
REMARK  Name = 
REMARK  7 active torsions:
REMARK  status: ('A' for Active; 'I' for Inactive)
REMARK    1  A    between atoms: C_1  and  O_2
REMARK    2  A    between atoms: O_2  and  C_3
REMARK    3  A    between atoms: C_7  and  C_8
REMARK    4  A    between atoms: C_13  and  C_14
REMARK    5  A    between atoms: C_15  and  C_16
REMARK    6  A    between atoms: C_18  and  C_19
REMARK    7  A    between atoms: C_22  and  C_23
REMARK                            x       y       z     vdW  Elec       q    Type
REMARK                         _______ _______ _______ _____ _____    ______ ____
ROOT
ATOM      1  C   UNL     1      -3.160  12.689  19.326  0.00  0.00    +0.000 C 
ATOM      2  N   UNL     1      -4.596  12.669  19.144  0.00  0.00    +0.000 N 
ATOM      3  C   UNL     1      -5.201  12.361  17.977  0.00  0.00    +0.000 C 
ATOM      4  O   UNL     1      -6.390  12.588  17.785  0.00  0.00    +0.000 OA
ATOM      5  N   UNL     1      -4.423  11.739  17.050  0.00  0.00    +0.000 N 
ATOM      6  C   UNL     1      -3.106  11.374  17.224  0.00  0.00    +0.000 C 
ATOM      7  C   UNL     1      -2.521  10.535  16.118  0.00  0.00    +0.000 C 
ATOM      8  C   UNL     1      -2.444  11.777  18.335  0.00  0.00    +0.000 C 
ATOM      9  H   UNL     1      -5.179  13.157  19.811  0.00  0.00    +0.000 HD
ATOM     10  H   UNL     1      -4.922  11.469  16.210  0.00  0.00    +0.000 HD
ENDROOT
BRANCH   1  15
ATOM     11  C   UNL     1      -1.359  11.568  22.504  0.00  0.00    +0.000 A 
ATOM     12  C   UNL     1      -2.304  11.891  23.480  0.00  0.00    +0.000 A 
ATOM     13  C   UNL     1      -3.521  12.473  23.127  0.00  0.00    +0.000 A 
ATOM     14  C   UNL     1      -3.799  12.737  21.789  0.00  0.00    +0.000 A 
ATOM     15  C   UNL     1      -2.871  12.402  20.789  0.00  0.00    +0.000 A 
ATOM     16  C   UNL     1      -1.647  11.822  21.162  0.00  0.00    +0.000 A 
BRANCH  11  18
ATOM     17  C   UNL     1      -0.142   9.592  23.011  0.00  0.00    +0.000 C 
ATOM     18  O   UNL     1      -0.203  11.013  22.982  0.00  0.00    +0.000 OA
ENDBRANCH  11  18
ENDBRANCH   1  15
BRANCH   8  19
ATOM     19  C   UNL     1      -1.063  11.401  18.481  0.00  0.00    +0.000 A 
ATOM     20  N   UNL     1      -0.587  10.173  18.605  0.00  0.00    +0.000 NA
ATOM     21  C   UNL     1       0.803  10.186  18.695  0.00  0.00    +0.000 A 
ATOM     22  C   UNL     1       1.368  11.444  18.659  0.00  0.00    +0.000 A 
ATOM     23  S   UNL     1       0.154  12.636  18.522  0.00  0.00    +0.000 S 
BRANCH  21  24
ATOM     24  C   UNL     1       1.577   8.953  18.847  0.00  0.00    +0.000 A 
ATOM     25  C   UNL     1       1.482   8.151  19.995  0.00  0.00    +0.000 A 
ATOM     26  C   UNL     1       2.230   6.974  20.114  0.00  0.00    +0.000 A 
ATOM     27  C   UNL     1       3.087   6.578  19.085  0.00  0.00    +0.000 A 
ATOM     28  C   UNL     1       3.190   7.369  17.936  0.00  0.00    +0.000 A 
ATOM     29  C   UNL     1       2.443   8.547  17.821  0.00  0.00    +0.000 A 
BRANCH  27  30
ATOM     30  C   UNL     1       3.861   5.375  19.209  0.00  0.00    +0.000 C 
ATOM     31  N   UNL     1       4.486   4.402  19.313  0.00  0.00    +0.000 NA
ENDBRANCH  27  30
ENDBRANCH  21  24
ENDBRANCH   8  19
TORSDOF 5
ENDMDL
MODEL 9
REMARK VINA RESULT:      -7.4      4.531      9.407
REMARK  Name = 
REMARK  7 active torsions:
REMARK  status: ('A' for Active; 'I' for Inactive)
REMARK    1  A    between atoms: C_1  and  O_2
REMARK    2  A    between atoms: O_2  and  C_3
REMARK    3  A    between atoms: C_7  and  C_8
REMARK    4  A    between atoms: C_13  and  C_14
REMARK    5  A    between atoms: C_15  and  C_16
REMARK    6  A    between atoms: C_18  and  C_19
REMARK    7  A    between atoms: C_22  and  C_23
REMARK                            x       y       z     vdW  Elec       q    Type
REMARK                         _______ _______ _______ _____ _____    ______ ____
ROOT
ATOM      1  C   UNL     1      -1.255  12.485  19.463  0.00  0.00    +0.000 C 
ATOM      2  N   UNL     1      -1.354  13.821  18.914  0.00  0.00    +0.000 N 
ATOM      3  C   UNL     1      -0.465  14.805  19.168  0.00  0.00    +0.000 C 
ATOM      4  O   UNL     1      -0.700  15.976  18.895  0.00  0.00    +0.000 OA
ATOM      5  N   UNL     1       0.725  14.409  19.697  0.00  0.00    +0.000 N 
ATOM      6  C   UNL     1       1.096  13.107  19.951  0.00  0.00    +0.000 C 
ATOM      7  C   UNL     1       2.531  12.917  20.364  0.00  0.00    +0.000 C 
ATOM      8  C   UNL     1       0.182  12.116  19.818  0.00  0.00    +0.000 C 
ATOM      9  H   UNL     1      -2.243  14.133  18.548  0.00  0.00    +0.000 HD
ATOM     10  H   UNL     1       1.390  15.163  19.821  0.00  0.00    +0.000 HD
ENDROOT
BRANCH   1  15
ATOM     11  C   UNL     1      -2.594  10.955  16.228  0.00  0.00    +0.000 A 
ATOM     12  C   UNL     1      -3.183   9.781  16.706  0.00  0.00    +0.000 A 
ATOM     13  C   UNL     1      -3.152   9.472  18.065  0.00  0.00    +0.000 A 
ATOM     14  C   UNL     1      -2.526  10.338  18.957  0.00  0.00    +0.000 A 
ATOM     15  C   UNL     1      -1.945  11.533  18.501  0.00  0.00    +0.000 A 
ATOM     16  C   UNL     1      -1.980  11.828  17.128  0.00  0.00    +0.000 A 
BRANCH  11  18
ATOM     17  C   UNL     1      -3.127  10.021  14.109  0.00  0.00    +0.000 C 
ATOM     18  O   UNL     1      -2.685  11.136  14.875  0.00  0.00    +0.000 OA
ENDBRANCH  11  18
ENDBRANCH   1  15
BRANCH   8  19
ATOM     19  C   UNL     1       0.589  10.767  20.110  0.00  0.00    +0.000 A 
ATOM     20  N   UNL     1       1.254   9.951  19.310  0.00  0.00    +0.000 NA
ATOM     21  C   UNL     1       1.502   8.732  19.937  0.00  0.00    +0.000 A 
ATOM     22  C   UNL     1       0.997   8.634  21.217  0.00  0.00    +0.000 A 
ATOM     23  S   UNL     1       0.188  10.074  21.648  0.00  0.00    +0.000 S 
BRANCH  21  24
ATOM     24  C   UNL     1       2.217   7.649  19.261  0.00  0.00    +0.000 A 
ATOM     25  C   UNL     1       2.268   6.349  19.788  0.00  0.00    +0.000 A 
ATOM     26  C   UNL     1       2.955   5.329  19.119  0.00  0.00    +0.000 A 
ATOM     27  C   UNL     1       3.603   5.592  17.910  0.00  0.00    +0.000 A 
ATOM     28  C   UNL     1       3.558   6.884  17.375  0.00  0.00    +0.000 A 
ATOM     29  C   UNL     1       2.873   7.902  18.047  0.00  0.00    +0.000 A 
BRANCH  27  30
ATOM     30  C   UNL     1       4.315   4.548  17.228  0.00  0.00    +0.000 C 
ATOM     31  N   UNL     1       4.893   3.706  16.676  0.00  0.00    +0.000 NA
ENDBRANCH  27  30
ENDBRANCH  21  24
ENDBRANCH   8  19
TORSDOF 5
ENDMDL
