MODEL 1
REMARK VINA RESULT:      -5.9      0.000      0.000
REMARK  Name = 
REMARK  7 active torsions:
REMARK  status: ('A' for Active; 'I' for Inactive)
REMARK    1  A    between atoms: C_1  and  C_2
REMARK    2  A    between atoms: C_2  and  C_3
REMARK    3  A    between atoms: C_3  and  C_4
REMARK    4  A    between atoms: C_4  and  N_5
REMARK    5  A    between atoms: C_9  and  C_10
REMARK    6  A    between atoms: C_13  and  O_14
REMARK    7  A    between atoms: O_14  and  C_15
REMARK                            x       y       z     vdW  Elec       q    Type
REMARK                         _______ _______ _______ _____ _____    ______ ____
ROOT
ATOM      1  N   UNL     1       0.573  11.609  21.173  0.00  0.00    +0.000 N 
ATOM      2  C   UNL     1      -0.683  11.884  21.623  0.00  0.00    +0.000 C 
ATOM      3  O   UNL     1      -1.441  11.195  22.303  0.00  0.00    +0.000 OA
ATOM      4  C   UNL     1      -0.863  13.334  21.330  0.00  0.00    +0.000 C 
ATOM      5  C   UNL     1      -1.687  13.810  20.366  0.00  0.00    +0.000 C 
ATOM      6  N   UNL     1      -1.688  15.070  19.772  0.00  0.00    +0.000 N 
ATOM      7  C   UNL     1      -0.604  15.970  19.599  0.00  0.00    +0.000 A 
ATOM      8  C   UNL     1      -0.631  16.814  18.475  0.00  0.00    +0.000 A 
ATOM      9  C   UNL     1       0.373  17.760  18.235  0.00  0.00    +0.000 A 
ATOM     10  C   UNL     1       1.407  17.921  19.144  0.00  0.00    +0.000 A 
ATOM     11  C   UNL     1       1.466  17.092  20.254  0.00  0.00    +0.000 A 
ATOM     12  C   UNL     1       0.503  16.082  20.457  0.00  0.00    +0.000 A 
ATOM     13  C   UNL     1       0.704  15.200  21.650  0.00  0.00    +0.000 C 
ATOM     14  N   UNL     1       0.410  13.825  21.407  0.00  0.00    +0.000 N 
ATOM     15  C   UNL     1       1.281  12.797  21.019  0.00  0.00    +0.000 C 
ATOM     16  O   UNL     1       2.422  12.930  20.613  0.00  0.00    +0.000 OA
ATOM     17  H   UNL     1      -2.393  15.158  19.045  0.00  0.00    +0.000 HD
ENDROOT
BRANCH   5  18
ATOM     18  C   UNL     1      -2.216  12.727  19.477  0.00  0.00    +0.000 A 
ATOM     19  C   UNL     1      -1.510  12.215  18.390  0.00  0.00    +0.000 A 
ATOM     20  C   UNL     1      -2.195  11.493  17.403  0.00  0.00    +0.000 A 
ATOM     21  C   UNL     1      -3.570  11.243  17.503  0.00  0.00    +0.000 A 
ATOM     22  C   UNL     1      -4.267  11.697  18.617  0.00  0.00    +0.000 A 
ATOM     23  C   UNL     1      -3.590  12.421  19.602  0.00  0.00    +0.000 A 
BRANCH  21  24
ATOM     24  O   UNL     1      -4.135  10.631  16.419  0.00  0.00    +0.000 OA
ATOM     25  C   UNL     1      -3.354  10.616  15.228  0.00  0.00    +0.000 C 
ENDBRANCH  21  24
ENDBRANCH   5  18
BRANCH   1  26
ATOM     26  C   UNL     1       1.061  10.254  21.048  0.00  0.00    +0.000 C 
BRANCH  26  27
ATOM     27  C   UNL     1       0.551   9.524  19.812  0.00  0.00    +0.000 C 
BRANCH  27  29
ATOM     28  C   UNL     1       1.964   8.750  17.863  0.00  0.00    +0.000 C 
ATOM     29  C   UNL     1       1.358   9.940  18.595  0.00  0.00    +0.000 C 
ENDBRANCH  27  29
ENDBRANCH  26  27
ENDBRANCH   1  26
TORSDOF 5
ENDMDL
MODEL 2
REMARK VINA RESULT:      -5.9      1.589      1.990
REMARK  Name = 
REMARK  7 active torsions:
REMARK  status: ('A' for Active; 'I' for Inactive)
REMARK    1  A    between atoms: C_1  and  C_2
REMARK    2  A    between atoms: C_2  and  C_3
REMARK    3  A    between atoms: C_3  and  C_4
REMARK    4  A    between atoms: C_4  and  N_5
REMARK    5  A    between atoms: C_9  and  C_10
REMARK    6  A    between atoms: C_13  and  O_14
REMARK    7  A    between atoms: O_14  and  C_15
REMARK                            x       y       z     vdW  Elec       q    Type
REMARK                         _______ _______ _______ _____ _____    ______ ____
ROOT
ATOM      1  N   UNL     1       0.929  10.696  18.945  0.00  0.00    +0.000 N 
ATOM      2  C   UNL     1       0.181  10.928  20.059  0.00  0.00    +0.000 C 
ATOM      3  O   UNL     1      -0.233  10.138  20.904  0.00  0.00    +0.000 OA
ATOM      4  C   UNL     1       0.176  12.413  20.188  0.00  0.00    +0.000 C 
ATOM      5  C   UNL     1      -0.912  13.185  19.953  0.00  0.00    +0.000 C 
ATOM      6  N   UNL     1      -0.965  14.555  19.704  0.00  0.00    +0.000 N 
ATOM      7  C   UNL     1       0.027  15.390  19.126  0.00  0.00    +0.000 A 
ATOM      8  C   UNL     1      -0.410  16.503  18.386  0.00  0.00    +0.000 A 
ATOM      9  C   UNL     1       0.491  17.405  17.806  0.00  0.00    +0.000 A 
ATOM     10  C   UNL     1       1.854  17.246  17.997  0.00  0.00    +0.000 A 
ATOM     11  C   UNL     1       2.313  16.150  18.712  0.00  0.00    +0.000 A 
ATOM     12  C   UNL     1       1.414  15.192  19.226  0.00  0.00    +0.000 A 
ATOM     13  C   UNL     1       2.023  14.012  19.919  0.00  0.00    +0.000 C 
ATOM     14  N   UNL     1       1.371  12.776  19.633  0.00  0.00    +0.000 N 
ATOM     15  C   UNL     1       1.679  11.830  18.645  0.00  0.00    +0.000 C 
ATOM     16  O   UNL     1       2.439  11.986  17.705  0.00  0.00    +0.000 OA
ATOM     17  H   UNL     1      -1.910  14.882  19.523  0.00  0.00    +0.000 HD
ENDROOT
BRANCH   5  18
ATOM     18  C   UNL     1      -2.036  12.418  19.327  0.00  0.00    +0.000 A 
ATOM     19  C   UNL     1      -1.992  11.917  18.028  0.00  0.00    +0.000 A 
ATOM     20  C   UNL     1      -3.186  11.549  17.392  0.00  0.00    +0.000 A 
ATOM     21  C   UNL     1      -4.421  11.640  18.047  0.00  0.00    +0.000 A 
ATOM     22  C   UNL     1      -4.463  12.078  19.366  0.00  0.00    +0.000 A 
ATOM     23  C   UNL     1      -3.277  12.450  20.004  0.00  0.00    +0.000 A 
BRANCH  21  24
ATOM     24  O   UNL     1      -5.514  11.361  17.276  0.00  0.00    +0.000 OA
ATOM     25  C   UNL     1      -6.755  11.892  17.729  0.00  0.00    +0.000 C 
ENDBRANCH  21  24
ENDBRANCH   5  18
BRANCH   1  26
ATOM     26  C   UNL     1       0.991   9.393  18.323  0.00  0.00    +0.000 C 
BRANCH  26  27
ATOM     27  C   UNL     1       2.068   8.483  18.900  0.00  0.00    +0.000 C 
BRANCH  27  29
ATOM     28  C   UNL     1       3.444   6.513  18.110  0.00  0.00    +0.000 C 
ATOM     29  C   UNL     1       2.909   7.900  17.778  0.00  0.00    +0.000 C 
ENDBRANCH  27  29
ENDBRANCH  26  27
ENDBRANCH   1  26
TORSDOF 5
ENDMDL
MODEL 3
REMARK VINA RESULT:      -5.8      2.484      5.896
REMARK  Name = 
REMARK  7 active torsions:
REMARK  status: ('A' for Active; 'I' for Inactive)
REMARK    1  A    between atoms: C_1  and  C_2
REMARK    2  A    between atoms: C_2  and  C_3
REMARK    3  A    between atoms: C_3  and  C_4
REMARK    4  A    between atoms: C_4  and  N_5
REMARK    5  A    between atoms: C_9  and  C_10
REMARK    6  A    between atoms: C_13  and  O_14
REMARK    7  A    between atoms: O_14  and  C_15
REMARK                            x       y       z     vdW  Elec       q    Type
REMARK                         _______ _______ _______ _____ _____    ______ ____
ROOT
ATOM      1  N   UNL     1       1.059  12.851  19.814  0.00  0.00    +0.000 N 
ATOM      2  C   UNL     1       0.857  11.817  20.678  0.00  0.00    +0.000 C 
ATOM      3  O   UNL     1       1.465  11.524  21.705  0.00  0.00    +0.000 OA
ATOM      4  C   UNL     1      -0.448  11.238  20.251  0.00  0.00    +0.000 C 
ATOM      5  C   UNL     1      -0.573  10.039  19.634  0.00  0.00    +0.000 C 
ATOM      6  N   UNL     1      -1.650   9.554  18.896  0.00  0.00    +0.000 N 
ATOM      7  C   UNL     1      -2.622  10.283  18.161  0.00  0.00    +0.000 A 
ATOM      8  C   UNL     1      -3.172   9.669  17.021  0.00  0.00    +0.000 A 
ATOM      9  C   UNL     1      -4.162  10.291  16.251  0.00  0.00    +0.000 A 
ATOM     10  C   UNL     1      -4.666  11.524  16.632  0.00  0.00    +0.000 A 
ATOM     11  C   UNL     1      -4.132  12.158  17.743  0.00  0.00    +0.000 A 
ATOM     12  C   UNL     1      -3.077  11.574  18.475  0.00  0.00    +0.000 A 
ATOM     13  C   UNL     1      -2.530  12.378  19.613  0.00  0.00    +0.000 C 
ATOM     14  N   UNL     1      -1.110  12.316  19.733  0.00  0.00    +0.000 N 
ATOM     15  C   UNL     1      -0.146  13.184  19.200  0.00  0.00    +0.000 C 
ATOM     16  O   UNL     1      -0.333  14.043  18.357  0.00  0.00    +0.000 OA
ATOM     17  H   UNL     1      -1.473   8.632  18.506  0.00  0.00    +0.000 HD
ENDROOT
BRANCH   5  18
ATOM     18  C   UNL     1       0.746   9.467  19.217  0.00  0.00    +0.000 A 
ATOM     19  C   UNL     1       1.329   9.710  17.975  0.00  0.00    +0.000 A 
ATOM     20  C   UNL     1       2.351   8.866  17.518  0.00  0.00    +0.000 A 
ATOM     21  C   UNL     1       2.825   7.804  18.299  0.00  0.00    +0.000 A 
ATOM     22  C   UNL     1       2.292   7.597  19.565  0.00  0.00    +0.000 A 
ATOM     23  C   UNL     1       1.270   8.432  20.025  0.00  0.00    +0.000 A 
BRANCH  21  24
ATOM     24  O   UNL     1       3.739   6.992  17.688  0.00  0.00    +0.000 OA
ATOM     25  C   UNL     1       3.873   5.680  18.226  0.00  0.00    +0.000 C 
ENDBRANCH  21  24
ENDBRANCH   5  18
BRANCH   1  26
ATOM     26  C   UNL     1       2.327  13.537  19.725  0.00  0.00    +0.000 C 
BRANCH  26  27
ATOM     27  C   UNL     1       3.016  13.391  18.373  0.00  0.00    +0.000 C 
BRANCH  27  29
ATOM     28  C   UNL     1       3.483  15.686  17.420  0.00  0.00    +0.000 C 
ATOM     29  C   UNL     1       4.040  14.498  18.191  0.00  0.00    +0.000 C 
ENDBRANCH  27  29
ENDBRANCH  26  27
ENDBRANCH   1  26
TORSDOF 5
ENDMDL
MODEL 4
REMARK VINA RESULT:      -5.8      1.859      2.766
REMARK  Name = 
REMARK  7 active torsions:
REMARK  status: ('A' for Active; 'I' for Inactive)
REMARK    1  A    between atoms: C_1  and  C_2
REMARK    2  A    between atoms: C_2  and  C_3
REMARK    3  A    between atoms: C_3  and  C_4
REMARK    4  A    between atoms: C_4  and  N_5
REMARK    5  A    between atoms: C_9  and  C_10
REMARK    6  A    between atoms: C_13  and  O_14
REMARK    7  A    between atoms: O_14  and  C_15
REMARK                            x       y       z     vdW  Elec       q    Type
REMARK                         _______ _______ _______ _____ _____    ______ ____
ROOT
ATOM      1  N   UNL     1       0.597  11.945  19.922  0.00  0.00    +0.000 N 
ATOM      2  C   UNL     1       0.324  12.385  21.182  0.00  0.00    +0.000 C 
ATOM      3  O   UNL     1       0.370  11.780  22.251  0.00  0.00    +0.000 OA
ATOM      4  C   UNL     1       0.198  13.862  21.030  0.00  0.00    +0.000 C 
ATOM      5  C   UNL     1      -0.977  14.530  21.123  0.00  0.00    +0.000 C 
ATOM      6  N   UNL     1      -1.281  15.813  20.673  0.00  0.00    +0.000 N 
ATOM      7  C   UNL     1      -0.700  16.537  19.599  0.00  0.00    +0.000 A 
ATOM      8  C   UNL     1      -1.518  17.452  18.912  0.00  0.00    +0.000 A 
ATOM      9  C   UNL     1      -1.029  18.239  17.862  0.00  0.00    +0.000 A 
ATOM     10  C   UNL     1       0.309  18.168  17.506  0.00  0.00    +0.000 A 
ATOM     11  C   UNL     1       1.135  17.265  18.157  0.00  0.00    +0.000 A 
ATOM     12  C   UNL     1       0.628  16.411  19.158  0.00  0.00    +0.000 A 
ATOM     13  C   UNL     1       1.592  15.426  19.744  0.00  0.00    +0.000 C 
ATOM     14  N   UNL     1       1.028  14.136  19.980  0.00  0.00    +0.000 N 
ATOM     15  C   UNL     1       1.032  13.012  19.141  0.00  0.00    +0.000 C 
ATOM     16  O   UNL     1       1.338  12.989  17.963  0.00  0.00    +0.000 OA
ATOM     17  H   UNL     1      -2.252  16.064  20.836  0.00  0.00    +0.000 HD
ENDROOT
BRANCH   5  18
ATOM     18  C   UNL     1      -2.158  13.612  21.161  0.00  0.00    +0.000 A 
ATOM     19  C   UNL     1      -2.812  13.155  20.018  0.00  0.00    +0.000 A 
ATOM     20  C   UNL     1      -4.103  12.620  20.131  0.00  0.00    +0.000 A 
ATOM     21  C   UNL     1      -4.737  12.499  21.375  0.00  0.00    +0.000 A 
ATOM     22  C   UNL     1      -4.064  12.894  22.526  0.00  0.00    +0.000 A 
ATOM     23  C   UNL     1      -2.779  13.432  22.419  0.00  0.00    +0.000 A 
BRANCH  21  24
ATOM     24  O   UNL     1      -6.034  12.071  21.331  0.00  0.00    +0.000 OA
ATOM     25  C   UNL     1      -6.742  12.331  20.124  0.00  0.00    +0.000 C 
ENDBRANCH  21  24
ENDBRANCH   5  18
BRANCH   1  26
ATOM     26  C   UNL     1       0.560  10.542  19.578  0.00  0.00    +0.000 C 
BRANCH  26  27
ATOM     27  C   UNL     1      -0.845   9.997  19.350  0.00  0.00    +0.000 C 
BRANCH  27  29
ATOM     28  C   UNL     1      -2.742   9.896  17.681  0.00  0.00    +0.000 C 
ATOM     29  C   UNL     1      -1.303  10.320  17.939  0.00  0.00    +0.000 C 
ENDBRANCH  27  29
ENDBRANCH  26  27
ENDBRANCH   1  26
TORSDOF 5
ENDMDL
MODEL 5
REMARK VINA RESULT:      -5.7      1.182      1.377
REMARK  Name = 
REMARK  7 active torsions:
REMARK  status: ('A' for Active; 'I' for Inactive)
REMARK    1  A    between atoms: C_1  and  C_2
REMARK    2  A    between atoms: C_2  and  C_3
REMARK    3  A    between atoms: C_3  and  C_4
REMARK    4  A    between atoms: C_4  and  N_5
REMARK    5  A    between atoms: C_9  and  C_10
REMARK    6  A    between atoms: C_13  and  O_14
REMARK    7  A    between atoms: O_14  and  C_15
REMARK                            x       y       z     vdW  Elec       q    Type
REMARK                         _______ _______ _______ _____ _____    ______ ____
ROOT
ATOM      1  N   UNL     1       0.900  11.909  20.731  0.00  0.00    +0.000 N 
ATOM      2  C   UNL     1      -0.027  12.400  21.600  0.00  0.00    +0.000 C 
ATOM      3  O   UNL     1      -0.507  11.886  22.608  0.00  0.00    +0.000 OA
ATOM      4  C   UNL     1      -0.162  13.833  21.212  0.00  0.00    +0.000 C 
ATOM      5  C   UNL     1      -1.255  14.346  20.598  0.00  0.00    +0.000 C 
ATOM      6  N   UNL     1      -1.370  15.542  19.892  0.00  0.00    +0.000 N 
ATOM      7  C   UNL     1      -0.365  16.256  19.187  0.00  0.00    +0.000 A 
ATOM      8  C   UNL     1      -0.763  17.002  18.064  0.00  0.00    +0.000 A 
ATOM      9  C   UNL     1       0.146  17.768  17.324  0.00  0.00    +0.000 A 
ATOM     10  C   UNL     1       1.472  17.847  17.721  0.00  0.00    +0.000 A 
ATOM     11  C   UNL     1       1.894  17.111  18.817  0.00  0.00    +0.000 A 
ATOM     12  C   UNL     1       1.000  16.272  19.515  0.00  0.00    +0.000 A 
ATOM     13  C   UNL     1       1.581  15.469  20.637  0.00  0.00    +0.000 C 
ATOM     14  N   UNL     1       1.074  14.137  20.715  0.00  0.00    +0.000 N 
ATOM     15  C   UNL     1       1.601  12.964  20.154  0.00  0.00    +0.000 C 
ATOM     16  O   UNL     1       2.483  12.895  19.317  0.00  0.00    +0.000 OA
ATOM     17  H   UNL     1      -2.297  15.674  19.497  0.00  0.00    +0.000 HD
ENDROOT
BRANCH   5  18
ATOM     18  C   UNL     1      -2.208  13.286  20.141  0.00  0.00    +0.000 A 
ATOM     19  C   UNL     1      -1.997  12.501  19.010  0.00  0.00    +0.000 A 
ATOM     20  C   UNL     1      -3.076  11.809  18.441  0.00  0.00    +0.000 A 
ATOM     21  C   UNL     1      -4.356  11.860  19.008  0.00  0.00    +0.000 A 
ATOM     22  C   UNL     1      -4.558  12.590  20.173  0.00  0.00    +0.000 A 
ATOM     23  C   UNL     1      -3.488  13.285  20.743  0.00  0.00    +0.000 A 
BRANCH  21  24
ATOM     24  O   UNL     1      -5.339  11.237  18.290  0.00  0.00    +0.000 OA
ATOM     25  C   UNL     1      -6.376  12.072  17.787  0.00  0.00    +0.000 C 
ENDBRANCH  21  24
ENDBRANCH   5  18
BRANCH   1  26
ATOM     26  C   UNL     1       1.153  10.492  20.605  0.00  0.00    +0.000 C 
BRANCH  26  27
ATOM     27  C   UNL     1       0.149   9.760  19.722  0.00  0.00    +0.000 C 
BRANCH  27  29
ATOM     28  C   UNL     1       1.841   9.196  17.929  0.00  0.00    +0.000 C 
ATOM     29  C   UNL     1       0.537   9.909  18.262  0.00  0.00    +0.000 C 
ENDBRANCH  27  29
ENDBRANCH  26  27
ENDBRANCH   1  26
TORSDOF 5
ENDMDL
MODEL 6
REMARK VINA RESULT:      -5.7      2.958      4.848
REMARK  Name = 
REMARK  7 active torsions:
REMARK  status: ('A' for Active; 'I' for Inactive)
REMARK    1  A    between atoms: C_1  and  C_2
REMARK    2  A    between atoms: C_2  and  C_3
REMARK    3  A    between atoms: C_3  and  C_4
REMARK    4  A    between atoms: C_4  and  N_5
REMARK    5  A    between atoms: C_9  and  C_10
REMARK    6  A    between atoms: C_13  and  O_14
REMARK    7  A    between atoms: O_14  and  C_15
REMARK                            x       y       z     vdW  Elec       q    Type
REMARK                         _______ _______ _______ _____ _____    ______ ____
ROOT
ATOM      1  N   UNL     1      -0.164  15.382  21.258  0.00  0.00    +0.000 N 
ATOM      2  C   UNL     1       0.198  14.225  21.879  0.00  0.00    +0.000 C 
ATOM      3  O   UNL     1       1.312  13.724  22.015  0.00  0.00    +0.000 OA
ATOM      4  C   UNL     1      -1.034  13.801  22.601  0.00  0.00    +0.000 C 
ATOM      5  C   UNL     1      -1.791  12.737  22.238  0.00  0.00    +0.000 C 
ATOM      6  N   UNL     1      -3.106  12.448  22.595  0.00  0.00    +0.000 N 
ATOM      7  C   UNL     1      -4.146  13.346  22.954  0.00  0.00    +0.000 A 
ATOM      8  C   UNL     1      -5.465  12.972  22.641  0.00  0.00    +0.000 A 
ATOM      9  C   UNL     1      -6.562  13.772  22.985  0.00  0.00    +0.000 A 
ATOM     10  C   UNL     1      -6.369  14.945  23.698  0.00  0.00    +0.000 A 
ATOM     11  C   UNL     1      -5.078  15.344  24.007  0.00  0.00    +0.000 A 
ATOM     12  C   UNL     1      -3.965  14.584  23.591  0.00  0.00    +0.000 A 
ATOM     13  C   UNL     1      -2.616  15.145  23.918  0.00  0.00    +0.000 C 
ATOM     14  N   UNL     1      -1.657  14.987  22.873  0.00  0.00    +0.000 N 
ATOM     15  C   UNL     1      -1.322  15.882  21.847  0.00  0.00    +0.000 C 
ATOM     16  O   UNL     1      -1.938  16.885  21.532  0.00  0.00    +0.000 OA
ATOM     17  H   UNL     1      -3.453  11.600  22.154  0.00  0.00    +0.000 HD
ENDROOT
BRANCH   5  18
ATOM     18  C   UNL     1      -1.393  12.178  20.907  0.00  0.00    +0.000 A 
ATOM     19  C   UNL     1      -1.937  12.611  19.700  0.00  0.00    +0.000 A 
ATOM     20  C   UNL     1      -1.804  11.808  18.558  0.00  0.00    +0.000 A 
ATOM     21  C   UNL     1      -1.103  10.596  18.595  0.00  0.00    +0.000 A 
ATOM     22  C   UNL     1      -0.503  10.190  19.782  0.00  0.00    +0.000 A 
ATOM     23  C   UNL     1      -0.636  10.984  20.925  0.00  0.00    +0.000 A 
BRANCH  21  24
ATOM     24  O   UNL     1      -1.147   9.858  17.446  0.00  0.00    +0.000 OA
ATOM     25  C   UNL     1      -2.317  10.008  16.647  0.00  0.00    +0.000 C 
ENDBRANCH  21  24
ENDBRANCH   5  18
BRANCH   1  26
ATOM     26  C   UNL     1       0.669  16.004  20.255  0.00  0.00    +0.000 C 
BRANCH  26  27
ATOM     27  C   UNL     1       0.608  15.324  18.892  0.00  0.00    +0.000 C 
BRANCH  27  29
ATOM     28  C   UNL     1       1.730  13.090  18.508  0.00  0.00    +0.000 C 
ATOM     29  C   UNL     1       1.913  14.598  18.616  0.00  0.00    +0.000 C 
ENDBRANCH  27  29
ENDBRANCH  26  27
ENDBRANCH   1  26
TORSDOF 5
ENDMDL
MODEL 7
REMARK VINA RESULT:      -5.7      2.472      3.713
REMARK  Name = 
REMARK  7 active torsions:
REMARK  status: ('A' for Active; 'I' for Inactive)
REMARK    1  A    between atoms: C_1  and  C_2
REMARK    2  A    between atoms: C_2  and  C_3
REMARK    3  A    between atoms: C_3  and  C_4
REMARK    4  A    between atoms: C_4  and  N_5
REMARK    5  A    between atoms: C_9  and  C_10
REMARK    6  A    between atoms: C_13  and  O_14
REMARK    7  A    between atoms: O_14  and  C_15
REMARK                            x       y       z     vdW  Elec       q    Type
REMARK                         _______ _______ _______ _____ _____    ______ ____
ROOT
ATOM      1  N   UNL     1      -0.475  11.938  20.238  0.00  0.00    +0.000 N 
ATOM      2  C   UNL     1      -0.287  12.379  21.513  0.00  0.00    +0.000 C 
ATOM      3  O   UNL     1       0.094  11.764  22.506  0.00  0.00    +0.000 OA
ATOM      4  C   UNL     1      -0.399  13.861  21.404  0.00  0.00    +0.000 C 
ATOM      5  C   UNL     1      -1.446  14.573  21.885  0.00  0.00    +0.000 C 
ATOM      6  N   UNL     1      -1.834  15.871  21.557  0.00  0.00    +0.000 N 
ATOM      7  C   UNL     1      -1.622  16.580  20.346  0.00  0.00    +0.000 A 
ATOM      8  C   UNL     1      -2.588  17.532  19.972  0.00  0.00    +0.000 A 
ATOM      9  C   UNL     1      -2.452  18.307  18.813  0.00  0.00    +0.000 A 
ATOM     10  C   UNL     1      -1.318  18.187  18.026  0.00  0.00    +0.000 A 
ATOM     11  C   UNL     1      -0.357  17.247  18.364  0.00  0.00    +0.000 A 
ATOM     12  C   UNL     1      -0.528  16.405  19.483  0.00  0.00    +0.000 A 
ATOM     13  C   UNL     1       0.538  15.380  19.713  0.00  0.00    +0.000 C 
ATOM     14  N   UNL     1       0.037  14.111  20.133  0.00  0.00    +0.000 N 
ATOM     15  C   UNL     1      -0.288  12.994  19.349  0.00  0.00    +0.000 C 
ATOM     16  O   UNL     1      -0.400  12.968  18.137  0.00  0.00    +0.000 OA
ATOM     17  H   UNL     1      -2.681  16.158  22.039  0.00  0.00    +0.000 HD
ENDROOT
BRANCH   5  18
ATOM     18  C   UNL     1      -2.580  13.701  22.326  0.00  0.00    +0.000 A 
ATOM     19  C   UNL     1      -3.645  13.353  21.499  0.00  0.00    +0.000 A 
ATOM     20  C   UNL     1      -4.828  12.861  22.070  0.00  0.00    +0.000 A 
ATOM     21  C   UNL     1      -4.949  12.678  23.454  0.00  0.00    +0.000 A 
ATOM     22  C   UNL     1      -3.866  12.964  24.278  0.00  0.00    +0.000 A 
ATOM     23  C   UNL     1      -2.687  13.457  23.715  0.00  0.00    +0.000 A 
BRANCH  21  24
ATOM     24  O   UNL     1      -6.190  12.305  23.888  0.00  0.00    +0.000 OA
ATOM     25  C   UNL     1      -7.161  13.341  23.984  0.00  0.00    +0.000 C 
ENDBRANCH  21  24
ENDBRANCH   5  18
BRANCH   1  26
ATOM     26  C   UNL     1      -0.681  10.541  19.934  0.00  0.00    +0.000 C 
BRANCH  26  27
ATOM     27  C   UNL     1       0.607   9.765  19.686  0.00  0.00    +0.000 C 
BRANCH  27  29
ATOM     28  C   UNL     1       1.929   8.629  17.853  0.00  0.00    +0.000 C 
ATOM     29  C   UNL     1       0.881   9.680  18.195  0.00  0.00    +0.000 C 
ENDBRANCH  27  29
ENDBRANCH  26  27
ENDBRANCH   1  26
TORSDOF 5
ENDMDL
MODEL 8
REMARK VINA RESULT:      -5.7      3.139      5.903
REMARK  Name = 
REMARK  7 active torsions:
REMARK  status: ('A' for Active; 'I' for Inactive)
REMARK    1  A    between atoms: C_1  and  C_2
REMARK    2  A    between atoms: C_2  and  C_3
REMARK    3  A    between atoms: C_3  and  C_4
REMARK    4  A    between atoms: C_4  and  N_5
REMARK    5  A    between atoms: C_9  and  C_10
REMARK    6  A    between atoms: C_13  and  O_14
REMARK    7  A    between atoms: O_14  and  C_15
REMARK                            x       y       z     vdW  Elec       q    Type
REMARK                         _______ _______ _______ _____ _____    ______ ____
ROOT
ATOM      1  N   UNL     1      -1.695  15.624  22.379  0.00  0.00    +0.000 N 
ATOM      2  C   UNL     1      -1.730  14.739  23.413  0.00  0.00    +0.000 C 
ATOM      3  O   UNL     1      -0.939  14.587  24.342  0.00  0.00    +0.000 OA
ATOM      4  C   UNL     1      -3.092  14.140  23.332  0.00  0.00    +0.000 C 
ATOM      5  C   UNL     1      -3.331  12.865  22.940  0.00  0.00    +0.000 C 
ATOM      6  N   UNL     1      -4.528  12.305  22.499  0.00  0.00    +0.000 N 
ATOM      7  C   UNL     1      -5.621  12.943  21.855  0.00  0.00    +0.000 A 
ATOM      8  C   UNL     1      -6.376  12.180  20.946  0.00  0.00    +0.000 A 
ATOM      9  C   UNL     1      -7.493  12.707  20.287  0.00  0.00    +0.000 A 
ATOM     10  C   UNL     1      -7.916  13.998  20.561  0.00  0.00    +0.000 A 
ATOM     11  C   UNL     1      -7.183  14.776  21.443  0.00  0.00    +0.000 A 
ATOM     12  C   UNL     1      -6.009  14.279  22.046  0.00  0.00    +0.000 A 
ATOM     13  C   UNL     1      -5.258  15.229  22.925  0.00  0.00    +0.000 C 
ATOM     14  N   UNL     1      -3.840  15.146  22.787  0.00  0.00    +0.000 N 
ATOM     15  C   UNL     1      -2.994  15.896  21.957  0.00  0.00    +0.000 C 
ATOM     16  O   UNL     1      -3.337  16.622  21.041  0.00  0.00    +0.000 OA
ATOM     17  H   UNL     1      -4.427  11.330  22.230  0.00  0.00    +0.000 HD
ENDROOT
BRANCH   5  18
ATOM     18  C   UNL     1      -2.114  12.200  22.378  0.00  0.00    +0.000 A 
ATOM     19  C   UNL     1      -1.755  12.268  21.033  0.00  0.00    +0.000 A 
ATOM     20  C   UNL     1      -0.841  11.338  20.517  0.00  0.00    +0.000 A 
ATOM     21  C   UNL     1      -0.252  10.363  21.332  0.00  0.00    +0.000 A 
ATOM     22  C   UNL     1      -0.558  10.331  22.688  0.00  0.00    +0.000 A 
ATOM     23  C   UNL     1      -1.470  11.253  23.208  0.00  0.00    +0.000 A 
BRANCH  21  24
ATOM     24  O   UNL     1       0.529   9.449  20.682  0.00  0.00    +0.000 OA
ATOM     25  C   UNL     1       0.810   9.723  19.313  0.00  0.00    +0.000 C 
ENDBRANCH  21  24
ENDBRANCH   5  18
BRANCH   1  26
ATOM     26  C   UNL     1      -0.466  16.252  21.951  0.00  0.00    +0.000 C 
BRANCH  26  27
ATOM     27  C   UNL     1       0.427  15.352  21.106  0.00  0.00    +0.000 C 
BRANCH  27  29
ATOM     28  C   UNL     1       0.671  14.307  18.816  0.00  0.00    +0.000 C 
ATOM     29  C   UNL     1      -0.075  15.321  19.673  0.00  0.00    +0.000 C 
ENDBRANCH  27  29
ENDBRANCH  26  27
ENDBRANCH   1  26
TORSDOF 5
ENDMDL
MODEL 9
REMARK VINA RESULT:      -5.6      1.931      3.102
REMARK  Name = 
REMARK  7 active torsions:
REMARK  status: ('A' for Active; 'I' for Inactive)
REMARK    1  A    between atoms: C_1  and  C_2
REMARK    2  A    between atoms: C_2  and  C_3
REMARK    3  A    between atoms: C_3  and  C_4
REMARK    4  A    between atoms: C_4  and  N_5
REMARK    5  A    between atoms: C_9  and  C_10
REMARK    6  A    between atoms: C_13  and  O_14
REMARK    7  A    between atoms: O_14  and  C_15
REMARK                            x       y       z     vdW  Elec       q    Type
REMARK                         _______ _______ _______ _____ _____    ______ ____
ROOT
ATOM      1  N   UNL     1       1.043  11.393  19.606  0.00  0.00    +0.000 N 
ATOM      2  C   UNL     1       0.945  11.746  20.917  0.00  0.00    +0.000 C 
ATOM      3  O   UNL     1       0.993  11.044  21.924  0.00  0.00    +0.000 OA
ATOM      4  C   UNL     1       1.023  13.235  20.898  0.00  0.00    +0.000 C 
ATOM      5  C   UNL     1      -0.029  14.047  21.158  0.00  0.00    +0.000 C 
ATOM      6  N   UNL     1      -0.180  15.396  20.844  0.00  0.00    +0.000 N 
ATOM      7  C   UNL     1       0.408  16.130  19.780  0.00  0.00    +0.000 A 
ATOM      8  C   UNL     1      -0.323  17.209  19.252  0.00  0.00    +0.000 A 
ATOM      9  C   UNL     1       0.185  18.016  18.226  0.00  0.00    +0.000 A 
ATOM     10  C   UNL     1       1.463  17.795  17.738  0.00  0.00    +0.000 A 
ATOM     11  C   UNL     1       2.200  16.729  18.231  0.00  0.00    +0.000 A 
ATOM     12  C   UNL     1       1.661  15.863  19.204  0.00  0.00    +0.000 A 
ATOM     13  C   UNL     1       2.517  14.705  19.613  0.00  0.00    +0.000 C 
ATOM     14  N   UNL     1       1.793  13.489  19.797  0.00  0.00    +0.000 N 
ATOM     15  C   UNL     1       1.561  12.458  18.875  0.00  0.00    +0.000 C 
ATOM     16  O   UNL     1       1.760  12.503  17.674  0.00  0.00    +0.000 OA
ATOM     17  H   UNL     1      -1.087  15.762  21.121  0.00  0.00    +0.000 HD
ENDROOT
BRANCH   5  18
ATOM     18  C   UNL     1      -1.325  13.301  21.236  0.00  0.00    +0.000 A 
ATOM     19  C   UNL     1      -2.161  13.099  20.140  0.00  0.00    +0.000 A 
ATOM     20  C   UNL     1      -3.498  12.733  20.353  0.00  0.00    +0.000 A 
ATOM     21  C   UNL     1      -4.003  12.529  21.643  0.00  0.00    +0.000 A 
ATOM     22  C   UNL     1      -3.156  12.666  22.737  0.00  0.00    +0.000 A 
ATOM     23  C   UNL     1      -1.824  13.035  22.532  0.00  0.00    +0.000 A 
BRANCH  21  24
ATOM     24  O   UNL     1      -5.346  12.291  21.715  0.00  0.00    +0.000 OA
ATOM     25  C   UNL     1      -6.091  13.140  22.582  0.00  0.00    +0.000 C 
ENDBRANCH  21  24
ENDBRANCH   5  18
BRANCH   1  26
ATOM     26  C   UNL     1       0.773  10.047  19.155  0.00  0.00    +0.000 C 
BRANCH  26  27
ATOM     27  C   UNL     1      -0.711   9.708  19.071  0.00  0.00    +0.000 C 
BRANCH  27  29
ATOM     28  C   UNL     1      -2.789  10.003  17.660  0.00  0.00    +0.000 C 
ATOM     29  C   UNL     1      -1.283  10.208  17.757  0.00  0.00    +0.000 C 
ENDBRANCH  27  29
ENDBRANCH  26  27
ENDBRANCH   1  26
TORSDOF 5
ENDMDL
