MODEL 1
REMARK VINA RESULT:      -6.0      0.000      0.000
REMARK  Name = 
REMARK  13 active torsions:
REMARK  status: ('A' for Active; 'I' for Inactive)
REMARK    1  A    between atoms: C_1  and  C_2
REMARK    2  A    between atoms: C_2  and  O_3
REMARK    3  A    between atoms: O_3  and  C_4
REMARK    4  A    between atoms: C_6  and  C_7
REMARK    5  A    between atoms: C_6  and  N_9
REMARK    6  A    between atoms: C_7  and  O_8
REMARK    7  A    between atoms: C_10  and  C_12
REMARK    8  A    between atoms: C_12  and  C_13
REMARK    9  A    between atoms: C_14  and  C_15
REMARK   10  A    between atoms: N_17  and  C_18
REMARK   11  A    between atoms: C_19  and  C_20
REMARK   12  A    between atoms: C_21  and  C_22
REMARK   13  A    between atoms: C_21  and  C_23
REMARK                            x       y       z     vdW  Elec       q    Type
REMARK                         _______ _______ _______ _____ _____    ______ ____
ROOT
ATOM      1  N   UNL     1       6.033   4.938  18.339  0.00  0.00    +0.000 N 
ATOM      2  C   UNL     1       4.879   5.504  18.872  0.00  0.00    +0.000 C 
ATOM      3  O   UNL     1       4.310   6.452  18.370  0.00  0.00    +0.000 OA
ATOM      4  H   UNL     1       6.418   4.126  18.806  0.00  0.00    +0.000 HD
ENDROOT
BRANCH   1   7
ATOM      5  C   UNL     1       6.990   4.646  15.038  0.00  0.00    +0.000 C 
ATOM      6  C   UNL     1       7.603   4.360  16.436  0.00  0.00    +0.000 C 
ATOM      7  C   UNL     1       6.641   5.432  17.055  0.00  0.00    +0.000 C 
ATOM      8  C   UNL     1       5.711   5.184  15.782  0.00  0.00    +0.000 C 
ATOM      9  C   UNL     1       4.652   4.072  15.928  0.00  0.00    +0.000 C 
ATOM     10  C   UNL     1       5.043   6.430  15.200  0.00  0.00    +0.000 C 
BRANCH   5  11
ATOM     11  O   UNL     1       7.700   5.597  14.209  0.00  0.00    +0.000 OA
BRANCH  11  13
ATOM     12  C   UNL     1       6.955   4.200  12.413  0.00  0.00    +0.000 C 
ATOM     13  C   UNL     1       8.009   5.185  12.878  0.00  0.00    +0.000 C 
ENDBRANCH  11  13
ENDBRANCH   5  11
BRANCH   7  14
ATOM     14  C   UNL     1       7.354   6.797  17.275  0.00  0.00    +0.000 C 
BRANCH  14  15
ATOM     15  O   UNL     1       8.066   6.901  18.511  0.00  0.00    +0.000 OA
ATOM     16  H   UNL     1       7.915   7.782  18.894  0.00  0.00    +0.000 HD
ENDBRANCH  14  15
ENDBRANCH   7  14
ENDBRANCH   1   7
BRANCH   2  17
ATOM     17  C   UNL     1       4.369   4.849  20.152  0.00  0.00    +0.000 C 
BRANCH  17  18
ATOM     18  C   UNL     1       3.021   4.236  19.976  0.00  0.00    +0.000 A 
ATOM     19  C   UNL     1       1.752   4.820  20.265  0.00  0.00    +0.000 A 
ATOM     20  C   UNL     1       1.426   6.157  20.820  0.00  0.00    +0.000 C 
ATOM     21  N   UNL     1       0.746   4.009  19.924  0.00  0.00    +0.000 NA
ATOM     22  N   UNL     1       1.344   2.942  19.377  0.00  0.00    +0.000 N 
ATOM     23  C   UNL     1       0.529   1.927  18.753  0.00  0.00    +0.000 C 
ATOM     24  C   UNL     1       2.714   3.000  19.418  0.00  0.00    +0.000 A 
ATOM     25  C   UNL     1       3.583   1.936  18.846  0.00  0.00    +0.000 C 
ENDBRANCH  17  18
ENDBRANCH   2  17
TORSDOF 7
ENDMDL
MODEL 2
REMARK VINA RESULT:      -5.7      2.997      4.654
REMARK  Name = 
REMARK  13 active torsions:
REMARK  status: ('A' for Active; 'I' for Inactive)
REMARK    1  A    between atoms: C_1  and  C_2
REMARK    2  A    between atoms: C_2  and  O_3
REMARK    3  A    between atoms: O_3  and  C_4
REMARK    4  A    between atoms: C_6  and  C_7
REMARK    5  A    between atoms: C_6  and  N_9
REMARK    6  A    between atoms: C_7  and  O_8
REMARK    7  A    between atoms: C_10  and  C_12
REMARK    8  A    between atoms: C_12  and  C_13
REMARK    9  A    between atoms: C_14  and  C_15
REMARK   10  A    between atoms: N_17  and  C_18
REMARK   11  A    between atoms: C_19  and  C_20
REMARK   12  A    between atoms: C_21  and  C_22
REMARK   13  A    between atoms: C_21  and  C_23
REMARK                            x       y       z     vdW  Elec       q    Type
REMARK                         _______ _______ _______ _____ _____    ______ ____
ROOT
ATOM      1  N   UNL     1       4.036   5.946  19.463  0.00  0.00    +0.000 N 
ATOM      2  C   UNL     1       2.658   6.034  19.639  0.00  0.00    +0.000 C 
ATOM      3  O   UNL     1       1.863   5.384  18.991  0.00  0.00    +0.000 OA
ATOM      4  H   UNL     1       4.625   6.499  20.074  0.00  0.00    +0.000 HD
ENDROOT
BRANCH   1   7
ATOM      5  C   UNL     1       5.274   5.019  16.379  0.00  0.00    +0.000 C 
ATOM      6  C   UNL     1       3.901   5.022  17.107  0.00  0.00    +0.000 C 
ATOM      7  C   UNL     1       4.653   4.987  18.482  0.00  0.00    +0.000 C 
ATOM      8  C   UNL     1       5.901   5.601  17.700  0.00  0.00    +0.000 C 
ATOM      9  C   UNL     1       5.967   7.142  17.644  0.00  0.00    +0.000 C 
ATOM     10  C   UNL     1       7.270   5.062  18.115  0.00  0.00    +0.000 C 
BRANCH   5  11
ATOM     11  O   UNL     1       5.767   3.728  15.947  0.00  0.00    +0.000 OA
BRANCH  11  13
ATOM     12  C   UNL     1       6.959   4.864  14.210  0.00  0.00    +0.000 C 
ATOM     13  C   UNL     1       6.179   3.621  14.585  0.00  0.00    +0.000 C 
ENDBRANCH  11  13
ENDBRANCH   5  11
BRANCH   7  14
ATOM     14  C   UNL     1       4.707   3.551  19.079  0.00  0.00    +0.000 C 
BRANCH  14  15
ATOM     15  O   UNL     1       4.237   2.525  18.201  0.00  0.00    +0.000 OA
ATOM     16  H   UNL     1       3.483   2.071  18.614  0.00  0.00    +0.000 HD
ENDBRANCH  14  15
ENDBRANCH   7  14
ENDBRANCH   1   7
BRANCH   2  17
ATOM     17  C   UNL     1       2.205   7.020  20.711  0.00  0.00    +0.000 C 
BRANCH  17  18
ATOM     18  C   UNL     1       1.521   8.213  20.131  0.00  0.00    +0.000 A 
ATOM     19  C   UNL     1       1.718   8.790  18.842  0.00  0.00    +0.000 A 
ATOM     20  C   UNL     1       2.642   8.389  17.752  0.00  0.00    +0.000 C 
ATOM     21  N   UNL     1       0.888   9.815  18.629  0.00  0.00    +0.000 NA
ATOM     22  N   UNL     1       0.131   9.872  19.733  0.00  0.00    +0.000 N 
ATOM     23  C   UNL     1      -0.988  10.783  19.769  0.00  0.00    +0.000 C 
ATOM     24  C   UNL     1       0.493   8.960  20.693  0.00  0.00    +0.000 A 
ATOM     25  C   UNL     1      -0.225   8.827  21.989  0.00  0.00    +0.000 C 
ENDBRANCH  17  18
ENDBRANCH   2  17
TORSDOF 7
ENDMDL
MODEL 3
REMARK VINA RESULT:      -5.6      4.037      7.259
REMARK  Name = 
REMARK  13 active torsions:
REMARK  status: ('A' for Active; 'I' for Inactive)
REMARK    1  A    between atoms: C_1  and  C_2
REMARK    2  A    between atoms: C_2  and  O_3
REMARK    3  A    between atoms: O_3  and  C_4
REMARK    4  A    between atoms: C_6  and  C_7
REMARK    5  A    between atoms: C_6  and  N_9
REMARK    6  A    between atoms: C_7  and  O_8
REMARK    7  A    between atoms: C_10  and  C_12
REMARK    8  A    between atoms: C_12  and  C_13
REMARK    9  A    between atoms: C_14  and  C_15
REMARK   10  A    between atoms: N_17  and  C_18
REMARK   11  A    between atoms: C_19  and  C_20
REMARK   12  A    between atoms: C_21  and  C_22
REMARK   13  A    between atoms: C_21  and  C_23
REMARK                            x       y       z     vdW  Elec       q    Type
REMARK                         _______ _______ _______ _____ _____    ______ ____
ROOT
ATOM      1  N   UNL     1       1.937   8.278  19.611  0.00  0.00    +0.000 N 
ATOM      2  C   UNL     1       2.609   7.602  18.597  0.00  0.00    +0.000 C 
ATOM      3  O   UNL     1       2.582   7.951  17.435  0.00  0.00    +0.000 OA
ATOM      4  H   UNL     1       2.046   7.936  20.558  0.00  0.00    +0.000 HD
ENDROOT
BRANCH   1   7
ATOM      5  C   UNL     1      -0.945  10.152  19.318  0.00  0.00    +0.000 C 
ATOM      6  C   UNL     1      -0.058   9.266  18.400  0.00  0.00    +0.000 C 
ATOM      7  C   UNL     1       1.160   9.539  19.348  0.00  0.00    +0.000 C 
ATOM      8  C   UNL     1       0.080   9.861  20.477  0.00  0.00    +0.000 C 
ATOM      9  C   UNL     1      -0.381   8.660  21.329  0.00  0.00    +0.000 C 
ATOM     10  C   UNL     1       0.424  11.025  21.406  0.00  0.00    +0.000 C 
BRANCH   5  11
ATOM     11  O   UNL     1      -1.093  11.537  18.922  0.00  0.00    +0.000 OA
BRANCH  11  13
ATOM     12  C   UNL     1      -3.191  11.396  17.777  0.00  0.00    +0.000 C 
ATOM     13  C   UNL     1      -2.420  12.060  18.900  0.00  0.00    +0.000 C 
ENDBRANCH  11  13
ENDBRANCH   5  11
BRANCH   7  14
ATOM     14  C   UNL     1       2.095  10.652  18.789  0.00  0.00    +0.000 C 
BRANCH  14  15
ATOM     15  O   UNL     1       2.138  10.729  17.362  0.00  0.00    +0.000 OA
ATOM     16  H   UNL     1       2.989  11.110  17.089  0.00  0.00    +0.000 HD
ENDBRANCH  14  15
ENDBRANCH   7  14
ENDBRANCH   1   7
BRANCH   2  17
ATOM     17  C   UNL     1       3.389   6.371  19.048  0.00  0.00    +0.000 C 
BRANCH  17  18
ATOM     18  C   UNL     1       2.762   5.101  18.581  0.00  0.00    +0.000 A 
ATOM     19  C   UNL     1       3.145   4.295  17.468  0.00  0.00    +0.000 A 
ATOM     20  C   UNL     1       4.233   4.497  16.479  0.00  0.00    +0.000 C 
ATOM     21  N   UNL     1       2.401   3.189  17.380  0.00  0.00    +0.000 NA
ATOM     22  N   UNL     1       1.587   3.244  18.442  0.00  0.00    +0.000 N 
ATOM     23  C   UNL     1       0.745   2.110  18.739  0.00  0.00    +0.000 C 
ATOM     24  C   UNL     1       1.726   4.393  19.181  0.00  0.00    +0.000 A 
ATOM     25  C   UNL     1       0.941   4.656  20.417  0.00  0.00    +0.000 C 
ENDBRANCH  17  18
ENDBRANCH   2  17
TORSDOF 7
ENDMDL
MODEL 4
REMARK VINA RESULT:      -5.6      4.487      6.654
REMARK  Name = 
REMARK  13 active torsions:
REMARK  status: ('A' for Active; 'I' for Inactive)
REMARK    1  A    between atoms: C_1  and  C_2
REMARK    2  A    between atoms: C_2  and  O_3
REMARK    3  A    between atoms: O_3  and  C_4
REMARK    4  A    between atoms: C_6  and  C_7
REMARK    5  A    between atoms: C_6  and  N_9
REMARK    6  A    between atoms: C_7  and  O_8
REMARK    7  A    between atoms: C_10  and  C_12
REMARK    8  A    between atoms: C_12  and  C_13
REMARK    9  A    between atoms: C_14  and  C_15
REMARK   10  A    between atoms: N_17  and  C_18
REMARK   11  A    between atoms: C_19  and  C_20
REMARK   12  A    between atoms: C_21  and  C_22
REMARK   13  A    between atoms: C_21  and  C_23
REMARK                            x       y       z     vdW  Elec       q    Type
REMARK                         _______ _______ _______ _____ _____    ______ ____
ROOT
ATOM      1  N   UNL     1       2.528   7.688  18.108  0.00  0.00    +0.000 N 
ATOM      2  C   UNL     1       1.804   8.602  18.867  0.00  0.00    +0.000 C 
ATOM      3  O   UNL     1       1.349   8.344  19.963  0.00  0.00    +0.000 OA
ATOM      4  H   UNL     1       2.901   8.003  17.220  0.00  0.00    +0.000 HD
ENDROOT
BRANCH   1   7
ATOM      5  C   UNL     1       3.382   4.364  17.757  0.00  0.00    +0.000 C 
ATOM      6  C   UNL     1       2.081   5.211  17.806  0.00  0.00    +0.000 C 
ATOM      7  C   UNL     1       2.851   6.309  18.617  0.00  0.00    +0.000 C 
ATOM      8  C   UNL     1       4.183   5.700  17.984  0.00  0.00    +0.000 C 
ATOM      9  C   UNL     1       4.627   6.308  16.637  0.00  0.00    +0.000 C 
ATOM     10  C   UNL     1       5.389   5.636  18.920  0.00  0.00    +0.000 C 
BRANCH   5  11
ATOM     11  O   UNL     1       3.523   3.347  18.780  0.00  0.00    +0.000 OA
BRANCH  11  13
ATOM     12  C   UNL     1       1.673   1.855  19.065  0.00  0.00    +0.000 C 
ATOM     13  C   UNL     1       3.049   2.041  18.457  0.00  0.00    +0.000 C 
ENDBRANCH  11  13
ENDBRANCH   5  11
BRANCH   7  14
ATOM     14  C   UNL     1       2.569   6.210  20.145  0.00  0.00    +0.000 C 
BRANCH  14  15
ATOM     15  O   UNL     1       1.580   5.242  20.504  0.00  0.00    +0.000 OA
ATOM     16  H   UNL     1       1.034   5.595  21.226  0.00  0.00    +0.000 HD
ENDBRANCH  14  15
ENDBRANCH   7  14
ENDBRANCH   1   7
BRANCH   2  17
ATOM     17  C   UNL     1       1.611   9.970  18.220  0.00  0.00    +0.000 C 
BRANCH  17  18
ATOM     18  C   UNL     1       0.415  10.685  18.753  0.00  0.00    +0.000 A 
ATOM     19  C   UNL     1       0.378  11.694  19.761  0.00  0.00    +0.000 A 
ATOM     20  C   UNL     1       1.486  12.287  20.552  0.00  0.00    +0.000 C 
ATOM     21  N   UNL     1      -0.859  12.162  19.946  0.00  0.00    +0.000 NA
ATOM     22  N   UNL     1      -1.605  11.512  19.042  0.00  0.00    +0.000 N 
ATOM     23  C   UNL     1      -2.984  11.898  18.864  0.00  0.00    +0.000 C 
ATOM     24  C   UNL     1      -0.902  10.577  18.323  0.00  0.00    +0.000 A 
ATOM     25  C   UNL     1      -1.522   9.755  17.248  0.00  0.00    +0.000 C 
ENDBRANCH  17  18
ENDBRANCH   2  17
TORSDOF 7
ENDMDL
MODEL 5
REMARK VINA RESULT:      -5.5      2.746      6.700
REMARK  Name = 
REMARK  13 active torsions:
REMARK  status: ('A' for Active; 'I' for Inactive)
REMARK    1  A    between atoms: C_1  and  C_2
REMARK    2  A    between atoms: C_2  and  O_3
REMARK    3  A    between atoms: O_3  and  C_4
REMARK    4  A    between atoms: C_6  and  C_7
REMARK    5  A    between atoms: C_6  and  N_9
REMARK    6  A    between atoms: C_7  and  O_8
REMARK    7  A    between atoms: C_10  and  C_12
REMARK    8  A    between atoms: C_12  and  C_13
REMARK    9  A    between atoms: C_14  and  C_15
REMARK   10  A    between atoms: N_17  and  C_18
REMARK   11  A    between atoms: C_19  and  C_20
REMARK   12  A    between atoms: C_21  and  C_22
REMARK   13  A    between atoms: C_21  and  C_23
REMARK                            x       y       z     vdW  Elec       q    Type
REMARK                         _______ _______ _______ _____ _____    ______ ____
ROOT
ATOM      1  N   UNL     1       3.717   4.527  17.060  0.00  0.00    +0.000 N 
ATOM      2  C   UNL     1       4.287   3.284  17.316  0.00  0.00    +0.000 C 
ATOM      3  O   UNL     1       4.112   2.672  18.350  0.00  0.00    +0.000 OA
ATOM      4  H   UNL     1       3.888   4.947  16.154  0.00  0.00    +0.000 HD
ENDROOT
BRANCH   1   7
ATOM      5  C   UNL     1       2.941   6.656  19.661  0.00  0.00    +0.000 C 
ATOM      6  C   UNL     1       3.382   5.176  19.487  0.00  0.00    +0.000 C 
ATOM      7  C   UNL     1       2.786   5.191  18.038  0.00  0.00    +0.000 C 
ATOM      8  C   UNL     1       2.956   6.776  18.092  0.00  0.00    +0.000 C 
ATOM      9  C   UNL     1       4.311   7.325  17.597  0.00  0.00    +0.000 C 
ATOM     10  C   UNL     1       1.830   7.584  17.447  0.00  0.00    +0.000 C 
BRANCH   5  11
ATOM     11  O   UNL     1       1.665   6.871  20.312  0.00  0.00    +0.000 OA
BRANCH  11  13
ATOM     12  C   UNL     1       0.992   9.166  20.422  0.00  0.00    +0.000 C 
ATOM     13  C   UNL     1       1.572   7.993  21.188  0.00  0.00    +0.000 C 
ENDBRANCH  11  13
ENDBRANCH   5  11
BRANCH   7  14
ATOM     14  C   UNL     1       1.375   4.536  17.981  0.00  0.00    +0.000 C 
BRANCH  14  15
ATOM     15  O   UNL     1       1.172   3.482  18.927  0.00  0.00    +0.000 OA
ATOM     16  H   UNL     1       1.891   3.498  19.582  0.00  0.00    +0.000 HD
ENDBRANCH  14  15
ENDBRANCH   7  14
ENDBRANCH   1   7
BRANCH   2  17
ATOM     17  C   UNL     1       5.165   2.732  16.196  0.00  0.00    +0.000 C 
BRANCH  17  18
ATOM     18  C   UNL     1       6.039   3.781  15.594  0.00  0.00    +0.000 A 
ATOM     19  C   UNL     1       6.960   4.639  16.263  0.00  0.00    +0.000 A 
ATOM     20  C   UNL     1       7.287   4.740  17.708  0.00  0.00    +0.000 C 
ATOM     21  N   UNL     1       7.626   5.415  15.403  0.00  0.00    +0.000 NA
ATOM     22  N   UNL     1       7.187   5.034  14.196  0.00  0.00    +0.000 N 
ATOM     23  C   UNL     1       7.824   5.573  13.018  0.00  0.00    +0.000 C 
ATOM     24  C   UNL     1       6.199   4.083  14.246  0.00  0.00    +0.000 A 
ATOM     25  C   UNL     1       5.583   3.496  13.026  0.00  0.00    +0.000 C 
ENDBRANCH  17  18
ENDBRANCH   2  17
TORSDOF 7
ENDMDL
MODEL 6
REMARK VINA RESULT:      -5.5      2.970      4.430
REMARK  Name = 
REMARK  13 active torsions:
REMARK  status: ('A' for Active; 'I' for Inactive)
REMARK    1  A    between atoms: C_1  and  C_2
REMARK    2  A    between atoms: C_2  and  O_3
REMARK    3  A    between atoms: O_3  and  C_4
REMARK    4  A    between atoms: C_6  and  C_7
REMARK    5  A    between atoms: C_6  and  N_9
REMARK    6  A    between atoms: C_7  and  O_8
REMARK    7  A    between atoms: C_10  and  C_12
REMARK    8  A    between atoms: C_12  and  C_13
REMARK    9  A    between atoms: C_14  and  C_15
REMARK   10  A    between atoms: N_17  and  C_18
REMARK   11  A    between atoms: C_19  and  C_20
REMARK   12  A    between atoms: C_21  and  C_22
REMARK   13  A    between atoms: C_21  and  C_23
REMARK                            x       y       z     vdW  Elec       q    Type
REMARK                         _______ _______ _______ _____ _____    ______ ____
ROOT
ATOM      1  N   UNL     1       4.026   5.846  19.525  0.00  0.00    +0.000 N 
ATOM      2  C   UNL     1       2.653   5.909  19.739  0.00  0.00    +0.000 C 
ATOM      3  O   UNL     1       1.849   5.264  19.097  0.00  0.00    +0.000 OA
ATOM      4  H   UNL     1       4.623   6.392  20.133  0.00  0.00    +0.000 HD
ENDROOT
BRANCH   1   7
ATOM      5  C   UNL     1       5.197   5.018  16.387  0.00  0.00    +0.000 C 
ATOM      6  C   UNL     1       3.843   4.984  17.148  0.00  0.00    +0.000 C 
ATOM      7  C   UNL     1       4.630   4.922  18.503  0.00  0.00    +0.000 C 
ATOM      8  C   UNL     1       5.850   5.573  17.707  0.00  0.00    +0.000 C 
ATOM      9  C   UNL     1       5.895   7.116  17.690  0.00  0.00    +0.000 C 
ATOM     10  C   UNL     1       7.235   5.041  18.073  0.00  0.00    +0.000 C 
BRANCH   5  11
ATOM     11  O   UNL     1       5.694   3.745  15.908  0.00  0.00    +0.000 OA
BRANCH  11  13
ATOM     12  C   UNL     1       7.006   4.833  14.227  0.00  0.00    +0.000 C 
ATOM     13  C   UNL     1       6.073   3.679  14.534  0.00  0.00    +0.000 C 
ENDBRANCH  11  13
ENDBRANCH   5  11
BRANCH   7  14
ATOM     14  C   UNL     1       4.717   3.471  19.060  0.00  0.00    +0.000 C 
BRANCH  14  15
ATOM     15  O   UNL     1       4.222   2.465  18.173  0.00  0.00    +0.000 OA
ATOM     16  H   UNL     1       3.855   1.731  18.696  0.00  0.00    +0.000 HD
ENDBRANCH  14  15
ENDBRANCH   7  14
ENDBRANCH   1   7
BRANCH   2  17
ATOM     17  C   UNL     1       2.215   6.861  20.848  0.00  0.00    +0.000 C 
BRANCH  17  18
ATOM     18  C   UNL     1       1.455   8.033  20.322  0.00  0.00    +0.000 A 
ATOM     19  C   UNL     1       0.445   8.789  20.987  0.00  0.00    +0.000 A 
ATOM     20  C   UNL     1      -0.130   8.618  22.345  0.00  0.00    +0.000 C 
ATOM     21  N   UNL     1       0.024   9.813  20.241  0.00  0.00    +0.000 NA
ATOM     22  N   UNL     1       0.779   9.759  19.136  0.00  0.00    +0.000 N 
ATOM     23  C   UNL     1       0.688  10.830  18.172  0.00  0.00    +0.000 C 
ATOM     24  C   UNL     1       1.631   8.683  19.106  0.00  0.00    +0.000 A 
ATOM     25  C   UNL     1       2.579   8.437  17.986  0.00  0.00    +0.000 C 
ENDBRANCH  17  18
ENDBRANCH   2  17
TORSDOF 7
ENDMDL
MODEL 7
REMARK VINA RESULT:      -5.4      4.439      6.785
REMARK  Name = 
REMARK  13 active torsions:
REMARK  status: ('A' for Active; 'I' for Inactive)
REMARK    1  A    between atoms: C_1  and  C_2
REMARK    2  A    between atoms: C_2  and  O_3
REMARK    3  A    between atoms: O_3  and  C_4
REMARK    4  A    between atoms: C_6  and  C_7
REMARK    5  A    between atoms: C_6  and  N_9
REMARK    6  A    between atoms: C_7  and  O_8
REMARK    7  A    between atoms: C_10  and  C_12
REMARK    8  A    between atoms: C_12  and  C_13
REMARK    9  A    between atoms: C_14  and  C_15
REMARK   10  A    between atoms: N_17  and  C_18
REMARK   11  A    between atoms: C_19  and  C_20
REMARK   12  A    between atoms: C_21  and  C_22
REMARK   13  A    between atoms: C_21  and  C_23
REMARK                            x       y       z     vdW  Elec       q    Type
REMARK                         _______ _______ _______ _____ _____    ______ ____
ROOT
ATOM      1  N   UNL     1       2.543   7.701  18.118  0.00  0.00    +0.000 N 
ATOM      2  C   UNL     1       1.779   8.616  18.834  0.00  0.00    +0.000 C 
ATOM      3  O   UNL     1       1.275   8.365  19.910  0.00  0.00    +0.000 OA
ATOM      4  H   UNL     1       2.954   8.010  17.246  0.00  0.00    +0.000 HD
ENDROOT
BRANCH   1   7
ATOM      5  C   UNL     1       3.349   4.358  17.835  0.00  0.00    +0.000 C 
ATOM      6  C   UNL     1       2.060   5.224  17.875  0.00  0.00    +0.000 C 
ATOM      7  C   UNL     1       2.852   6.329  18.656  0.00  0.00    +0.000 C 
ATOM      8  C   UNL     1       4.169   5.688  18.026  0.00  0.00    +0.000 C 
ATOM      9  C   UNL     1       4.611   6.260  16.662  0.00  0.00    +0.000 C 
ATOM     10  C   UNL     1       5.383   5.627  18.953  0.00  0.00    +0.000 C 
BRANCH   5  11
ATOM     11  O   UNL     1       3.484   3.363  18.878  0.00  0.00    +0.000 OA
BRANCH  11  13
ATOM     12  C   UNL     1       1.608   1.901  19.148  0.00  0.00    +0.000 C 
ATOM     13  C   UNL     1       3.006   2.052  18.582  0.00  0.00    +0.000 C 
ENDBRANCH  11  13
ENDBRANCH   5  11
BRANCH   7  14
ATOM     14  C   UNL     1       2.581   6.268  20.187  0.00  0.00    +0.000 C 
BRANCH  14  15
ATOM     15  O   UNL     1       1.563   5.341  20.572  0.00  0.00    +0.000 OA
ATOM     16  H   UNL     1       1.678   4.514  20.074  0.00  0.00    +0.000 HD
ENDBRANCH  14  15
ENDBRANCH   7  14
ENDBRANCH   1   7
BRANCH   2  17
ATOM     17  C   UNL     1       1.607   9.977  18.166  0.00  0.00    +0.000 C 
BRANCH  17  18
ATOM     18  C   UNL     1       0.426  10.721  18.692  0.00  0.00    +0.000 A 
ATOM     19  C   UNL     1      -0.935  10.603  18.280  0.00  0.00    +0.000 A 
ATOM     20  C   UNL     1      -1.538   9.745  17.231  0.00  0.00    +0.000 C 
ATOM     21  N   UNL     1      -1.741  11.376  19.013  0.00  0.00    +0.000 NA
ATOM     22  N   UNL     1      -0.933  11.945  19.918  0.00  0.00    +0.000 N 
ATOM     23  C   UNL     1      -1.514  12.733  20.979  0.00  0.00    +0.000 C 
ATOM     24  C   UNL     1       0.391  11.623  19.750  0.00  0.00    +0.000 A 
ATOM     25  C   UNL     1       1.462  12.121  20.654  0.00  0.00    +0.000 C 
ENDBRANCH  17  18
ENDBRANCH   2  17
TORSDOF 7
ENDMDL
MODEL 8
REMARK VINA RESULT:      -5.4      4.243      7.590
REMARK  Name = 
REMARK  13 active torsions:
REMARK  status: ('A' for Active; 'I' for Inactive)
REMARK    1  A    between atoms: C_1  and  C_2
REMARK    2  A    between atoms: C_2  and  O_3
REMARK    3  A    between atoms: O_3  and  C_4
REMARK    4  A    between atoms: C_6  and  C_7
REMARK    5  A    between atoms: C_6  and  N_9
REMARK    6  A    between atoms: C_7  and  O_8
REMARK    7  A    between atoms: C_10  and  C_12
REMARK    8  A    between atoms: C_12  and  C_13
REMARK    9  A    between atoms: C_14  and  C_15
REMARK   10  A    between atoms: N_17  and  C_18
REMARK   11  A    between atoms: C_19  and  C_20
REMARK   12  A    between atoms: C_21  and  C_22
REMARK   13  A    between atoms: C_21  and  C_23
REMARK                            x       y       z     vdW  Elec       q    Type
REMARK                         _______ _______ _______ _____ _____    ______ ____
ROOT
ATOM      1  N   UNL     1       1.845   8.588  19.721  0.00  0.00    +0.000 N 
ATOM      2  C   UNL     1       2.311   7.691  18.766  0.00  0.00    +0.000 C 
ATOM      3  O   UNL     1       2.057   7.788  17.583  0.00  0.00    +0.000 OA
ATOM      4  H   UNL     1       2.138   8.450  20.681  0.00  0.00    +0.000 HD
ENDROOT
BRANCH   1   7
ATOM      5  C   UNL     1      -1.102  10.320  19.254  0.00  0.00    +0.000 C 
ATOM      6  C   UNL     1      -0.174   9.395  18.419  0.00  0.00    +0.000 C 
ATOM      7  C   UNL     1       1.024   9.793  19.348  0.00  0.00    +0.000 C 
ATOM      8  C   UNL     1      -0.078  10.167  20.440  0.00  0.00    +0.000 C 
ATOM      9  C   UNL     1      -0.502   9.024  21.387  0.00  0.00    +0.000 C 
ATOM     10  C   UNL     1       0.213  11.416  21.271  0.00  0.00    +0.000 C 
BRANCH   5  11
ATOM     11  O   UNL     1      -1.299  11.660  18.742  0.00  0.00    +0.000 OA
BRANCH  11  13
ATOM     12  C   UNL     1      -3.423  10.906  17.937  0.00  0.00    +0.000 C 
ATOM     13  C   UNL     1      -2.647  12.071  18.518  0.00  0.00    +0.000 C 
ENDBRANCH  11  13
ENDBRANCH   5  11
BRANCH   7  14
ATOM     14  C   UNL     1       1.921  10.889  18.704  0.00  0.00    +0.000 C 
BRANCH  14  15
ATOM     15  O   UNL     1       2.192  10.693  17.314  0.00  0.00    +0.000 OA
ATOM     16  H   UNL     1       3.150  10.764  17.162  0.00  0.00    +0.000 HD
ENDBRANCH  14  15
ENDBRANCH   7  14
ENDBRANCH   1   7
BRANCH   2  17
ATOM     17  C   UNL     1       3.172   6.555  19.311  0.00  0.00    +0.000 C 
BRANCH  17  18
ATOM     18  C   UNL     1       3.582   5.594  18.247  0.00  0.00    +0.000 A 
ATOM     19  C   UNL     1       2.854   4.468  17.760  0.00  0.00    +0.000 A 
ATOM     20  C   UNL     1       1.529   3.942  18.175  0.00  0.00    +0.000 C 
ATOM     21  N   UNL     1       3.493   3.864  16.754  0.00  0.00    +0.000 NA
ATOM     22  N   UNL     1       4.589   4.610  16.554  0.00  0.00    +0.000 N 
ATOM     23  C   UNL     1       5.435   4.321  15.421  0.00  0.00    +0.000 C 
ATOM     24  C   UNL     1       4.720   5.642  17.450  0.00  0.00    +0.000 A 
ATOM     25  C   UNL     1       5.847   6.613  17.401  0.00  0.00    +0.000 C 
ENDBRANCH  17  18
ENDBRANCH   2  17
TORSDOF 7
ENDMDL
MODEL 9
REMARK VINA RESULT:      -5.2      1.761      3.805
REMARK  Name = 
REMARK  13 active torsions:
REMARK  status: ('A' for Active; 'I' for Inactive)
REMARK    1  A    between atoms: C_1  and  C_2
REMARK    2  A    between atoms: C_2  and  O_3
REMARK    3  A    between atoms: O_3  and  C_4
REMARK    4  A    between atoms: C_6  and  C_7
REMARK    5  A    between atoms: C_6  and  N_9
REMARK    6  A    between atoms: C_7  and  O_8
REMARK    7  A    between atoms: C_10  and  C_12
REMARK    8  A    between atoms: C_12  and  C_13
REMARK    9  A    between atoms: C_14  and  C_15
REMARK   10  A    between atoms: N_17  and  C_18
REMARK   11  A    between atoms: C_19  and  C_20
REMARK   12  A    between atoms: C_21  and  C_22
REMARK   13  A    between atoms: C_21  and  C_23
REMARK                            x       y       z     vdW  Elec       q    Type
REMARK                         _______ _______ _______ _____ _____    ______ ____
ROOT
ATOM      1  N   UNL     1       4.301   4.626  16.883  0.00  0.00    +0.000 N 
ATOM      2  C   UNL     1       3.113   5.135  17.396  0.00  0.00    +0.000 C 
ATOM      3  O   UNL     1       2.986   6.285  17.766  0.00  0.00    +0.000 OA
ATOM      4  H   UNL     1       4.304   3.665  16.566  0.00  0.00    +0.000 HD
ENDROOT
BRANCH   1   7
ATOM      5  C   UNL     1       6.550   7.076  17.803  0.00  0.00    +0.000 C 
ATOM      6  C   UNL     1       5.209   6.989  17.024  0.00  0.00    +0.000 C 
ATOM      7  C   UNL     1       5.520   5.488  16.696  0.00  0.00    +0.000 C 
ATOM      8  C   UNL     1       6.477   5.512  17.972  0.00  0.00    +0.000 C 
ATOM      9  C   UNL     1       5.817   5.136  19.315  0.00  0.00    +0.000 C 
ATOM     10  C   UNL     1       7.787   4.737  17.830  0.00  0.00    +0.000 C 
BRANCH   5  11
ATOM     11  O   UNL     1       7.686   7.591  17.066  0.00  0.00    +0.000 OA
BRANCH  11  13
ATOM     12  C   UNL     1       8.700   8.860  18.825  0.00  0.00    +0.000 C 
ATOM     13  C   UNL     1       8.140   8.898  17.417  0.00  0.00    +0.000 C 
ENDBRANCH  11  13
ENDBRANCH   5  11
BRANCH   7  14
ATOM     14  C   UNL     1       6.098   5.314  15.261  0.00  0.00    +0.000 C 
BRANCH  14  15
ATOM     15  O   UNL     1       6.159   3.959  14.807  0.00  0.00    +0.000 OA
ATOM     16  H   UNL     1       5.346   3.497  15.072  0.00  0.00    +0.000 HD
ENDBRANCH  14  15
ENDBRANCH   7  14
ENDBRANCH   1   7
BRANCH   2  17
ATOM     17  C   UNL     1       1.961   4.137  17.471  0.00  0.00    +0.000 C 
BRANCH  17  18
ATOM     18  C   UNL     1       1.994   3.328  18.724  0.00  0.00    +0.000 A 
ATOM     19  C   UNL     1       2.708   2.116  18.962  0.00  0.00    +0.000 A 
ATOM     20  C   UNL     1       3.582   1.334  18.052  0.00  0.00    +0.000 C 
ATOM     21  N   UNL     1       2.561   1.697  20.222  0.00  0.00    +0.000 NA
ATOM     22  N   UNL     1       1.811   2.640  20.807  0.00  0.00    +0.000 N 
ATOM     23  C   UNL     1       1.590   2.575  22.232  0.00  0.00    +0.000 C 
ATOM     24  C   UNL     1       1.402   3.627  19.946  0.00  0.00    +0.000 A 
ATOM     25  C   UNL     1       0.582   4.789  20.383  0.00  0.00    +0.000 C 
ENDBRANCH  17  18
ENDBRANCH   2  17
TORSDOF 7
ENDMDL
