MODEL 1
REMARK VINA RESULT:      -8.4      0.000      0.000
REMARK  Name = 
REMARK  3 active torsions:
REMARK  status: ('A' for Active; 'I' for Inactive)
REMARK    1  A    between atoms: C_1  and  C_2
REMARK    2  A    between atoms: C_7  and  N_8
REMARK    3  A    between atoms: N_8  and  C_9
REMARK                            x       y       z     vdW  Elec       q    Type
REMARK                         _______ _______ _______ _____ _____    ______ ____
ROOT
ATOM      1  N   UNL     1       5.254   3.615  19.018  0.00  0.00    +0.000 N 
ATOM      2  H   UNL     1       5.727   3.753  19.913  0.00  0.00    +0.000 HD
ENDROOT
BRANCH   1   9
ATOM      3  C   UNL     1       7.066   4.234  12.078  0.00  0.00    +0.000 C 
ATOM      4  C   UNL     1       7.353   4.838  13.426  0.00  0.00    +0.000 C 
ATOM      5  O   UNL     1       8.242   5.678  13.541  0.00  0.00    +0.000 OA
ATOM      6  N   UNL     1       6.536   4.334  14.420  0.00  0.00    +0.000 N 
ATOM      7  C   UNL     1       6.538   4.780  15.749  0.00  0.00    +0.000 A 
ATOM      8  C   UNL     1       5.867   4.017  16.699  0.00  0.00    +0.000 A 
ATOM      9  C   UNL     1       5.855   4.439  18.032  0.00  0.00    +0.000 A 
ATOM     10  C   UNL     1       6.554   5.597  18.367  0.00  0.00    +0.000 A 
ATOM     11  C   UNL     1       7.169   6.307  17.359  0.00  0.00    +0.000 A 
ATOM     12  N   UNL     1       7.172   5.918  16.071  0.00  0.00    +0.000 NA
ATOM     13  H   UNL     1       5.944   3.548  14.197  0.00  0.00    +0.000 HD
ENDBRANCH   1   9
BRANCH   1  14
ATOM     14  C   UNL     1       3.858   3.456  19.231  0.00  0.00    +0.000 A 
ATOM     15  C   UNL     1       3.200   2.249  18.913  0.00  0.00    +0.000 A 
ATOM     16 CL   UNL     1       4.105   0.873  18.376  0.00  0.00    +0.000 Cl
ATOM     17  C   UNL     1       1.806   2.108  19.051  0.00  0.00    +0.000 A 
ATOM     18  C   UNL     1       1.026   3.175  19.500  0.00  0.00    +0.000 A 
ATOM     19  C   UNL     1       1.675   4.352  19.802  0.00  0.00    +0.000 A 
ATOM     20  C   UNL     1       3.041   4.495  19.664  0.00  0.00    +0.000 A 
ATOM     21  O   UNL     1       3.441   5.758  19.993  0.00  0.00    +0.000 OA
ATOM     22  C   UNL     1       2.210   6.341  20.453  0.00  0.00    +0.000 C 
ATOM     23  O   UNL     1       1.070   5.484  20.253  0.00  0.00    +0.000 OA
ENDBRANCH   1  14
TORSDOF 2
ENDMDL
MODEL 2
REMARK VINA RESULT:      -7.7      4.184      7.350
REMARK  Name = 
REMARK  3 active torsions:
REMARK  status: ('A' for Active; 'I' for Inactive)
REMARK    1  A    between atoms: C_1  and  C_2
REMARK    2  A    between atoms: C_7  and  N_8
REMARK    3  A    between atoms: N_8  and  C_9
REMARK                            x       y       z     vdW  Elec       q    Type
REMARK                         _______ _______ _______ _____ _____    ______ ____
ROOT
ATOM      1  N   UNL     1       2.834   6.266  19.895  0.00  0.00    +0.000 N 
ATOM      2  H   UNL     1       2.658   5.923  20.842  0.00  0.00    +0.000 HD
ENDROOT
BRANCH   1   9
ATOM      3  C   UNL     1      -1.245  11.356  22.942  0.00  0.00    +0.000 C 
ATOM      4  C   UNL     1      -0.760  10.887  21.597  0.00  0.00    +0.000 C 
ATOM      5  O   UNL     1      -1.196  11.410  20.574  0.00  0.00    +0.000 OA
ATOM      6  N   UNL     1       0.164   9.864  21.691  0.00  0.00    +0.000 N 
ATOM      7  C   UNL     1       0.835   9.298  20.597  0.00  0.00    +0.000 A 
ATOM      8  C   UNL     1       1.530   8.110  20.796  0.00  0.00    +0.000 A 
ATOM      9  C   UNL     1       2.205   7.524  19.720  0.00  0.00    +0.000 A 
ATOM     10  C   UNL     1       2.124   8.139  18.472  0.00  0.00    +0.000 A 
ATOM     11  C   UNL     1       1.435   9.328  18.370  0.00  0.00    +0.000 A 
ATOM     12  N   UNL     1       0.796   9.908  19.402  0.00  0.00    +0.000 NA
ATOM     13  H   UNL     1       0.323   9.447  22.596  0.00  0.00    +0.000 HD
ENDBRANCH   1   9
BRANCH   1  14
ATOM     14  C   UNL     1       2.796   5.182  18.977  0.00  0.00    +0.000 A 
ATOM     15  C   UNL     1       1.887   4.115  19.137  0.00  0.00    +0.000 A 
ATOM     16 CL   UNL     1       0.694   4.162  20.391  0.00  0.00    +0.000 Cl
ATOM     17  C   UNL     1       1.893   3.002  18.273  0.00  0.00    +0.000 A 
ATOM     18  C   UNL     1       2.817   2.918  17.232  0.00  0.00    +0.000 A 
ATOM     19  C   UNL     1       3.705   3.960  17.085  0.00  0.00    +0.000 A 
ATOM     20  C   UNL     1       3.705   5.050  17.932  0.00  0.00    +0.000 A 
ATOM     21  O   UNL     1       4.697   5.930  17.604  0.00  0.00    +0.000 OA
ATOM     22  C   UNL     1       5.231   5.333  16.411  0.00  0.00    +0.000 C 
ATOM     23  O   UNL     1       4.665   4.040  16.125  0.00  0.00    +0.000 OA
ENDBRANCH   1  14
TORSDOF 2
ENDMDL
MODEL 3
REMARK VINA RESULT:      -7.7      3.814      7.255
REMARK  Name = 
REMARK  3 active torsions:
REMARK  status: ('A' for Active; 'I' for Inactive)
REMARK    1  A    between atoms: C_1  and  C_2
REMARK    2  A    between atoms: C_7  and  N_8
REMARK    3  A    between atoms: N_8  and  C_9
REMARK                            x       y       z     vdW  Elec       q    Type
REMARK                         _______ _______ _______ _____ _____    ______ ____
ROOT
ATOM      1  N   UNL     1       3.105   5.786  19.740  0.00  0.00    +0.000 N 
ATOM      2  H   UNL     1       2.448   5.124  20.158  0.00  0.00    +0.000 HD
ENDROOT
BRANCH   1   9
ATOM      3  C   UNL     1      -1.005  10.706  23.017  0.00  0.00    +0.000 C 
ATOM      4  C   UNL     1      -0.488  10.324  21.656  0.00  0.00    +0.000 C 
ATOM      5  O   UNL     1      -0.892  10.919  20.660  0.00  0.00    +0.000 OA
ATOM      6  N   UNL     1       0.423   9.286  21.705  0.00  0.00    +0.000 N 
ATOM      7  C   UNL     1       1.117   8.787  20.593  0.00  0.00    +0.000 A 
ATOM      8  C   UNL     1       1.795   7.581  20.729  0.00  0.00    +0.000 A 
ATOM      9  C   UNL     1       2.493   7.061  19.635  0.00  0.00    +0.000 A 
ATOM     10  C   UNL     1       2.451   7.759  18.429  0.00  0.00    +0.000 A 
ATOM     11  C   UNL     1       1.777   8.960  18.390  0.00  0.00    +0.000 A 
ATOM     12  N   UNL     1       1.116   9.477  19.442  0.00  0.00    +0.000 NA
ATOM     13  H   UNL     1       0.553   8.807  22.583  0.00  0.00    +0.000 HD
ENDBRANCH   1   9
BRANCH   1  14
ATOM     14  C   UNL     1       3.860   5.139  18.725  0.00  0.00    +0.000 A 
ATOM     15  C   UNL     1       3.232   4.393  17.705  0.00  0.00    +0.000 A 
ATOM     16 CL   UNL     1       1.504   4.355  17.585  0.00  0.00    +0.000 Cl
ATOM     17  C   UNL     1       3.976   3.689  16.738  0.00  0.00    +0.000 A 
ATOM     18  C   UNL     1       5.370   3.699  16.771  0.00  0.00    +0.000 A 
ATOM     19  C   UNL     1       5.977   4.424  17.772  0.00  0.00    +0.000 A 
ATOM     20  C   UNL     1       5.251   5.113  18.724  0.00  0.00    +0.000 A 
ATOM     21  O   UNL     1       6.074   5.724  19.626  0.00  0.00    +0.000 OA
ATOM     22  C   UNL     1       7.371   5.440  19.074  0.00  0.00    +0.000 C 
ATOM     23  O   UNL     1       7.320   4.544  17.948  0.00  0.00    +0.000 OA
ENDBRANCH   1  14
TORSDOF 2
ENDMDL
MODEL 4
REMARK VINA RESULT:      -7.5      2.158      2.679
REMARK  Name = 
REMARK  3 active torsions:
REMARK  status: ('A' for Active; 'I' for Inactive)
REMARK    1  A    between atoms: C_1  and  C_2
REMARK    2  A    between atoms: C_7  and  N_8
REMARK    3  A    between atoms: N_8  and  C_9
REMARK                            x       y       z     vdW  Elec       q    Type
REMARK                         _______ _______ _______ _____ _____    ______ ____
ROOT
ATOM      1  N   UNL     1       4.715   5.450  19.388  0.00  0.00    +0.000 N 
ATOM      2  H   UNL     1       4.692   6.320  19.923  0.00  0.00    +0.000 HD
ENDROOT
BRANCH   1   9
ATOM      3  C   UNL     1       5.540   3.489  12.509  0.00  0.00    +0.000 C 
ATOM      4  C   UNL     1       6.260   4.201  13.623  0.00  0.00    +0.000 C 
ATOM      5  O   UNL     1       7.429   4.546  13.472  0.00  0.00    +0.000 OA
ATOM      6  N   UNL     1       5.467   4.378  14.741  0.00  0.00    +0.000 N 
ATOM      7  C   UNL     1       5.861   5.080  15.889  0.00  0.00    +0.000 A 
ATOM      8  C   UNL     1       5.081   4.959  17.034  0.00  0.00    +0.000 A 
ATOM      9  C   UNL     1       5.454   5.646  18.193  0.00  0.00    +0.000 A 
ATOM     10  C   UNL     1       6.623   6.404  18.167  0.00  0.00    +0.000 A 
ATOM     11  C   UNL     1       7.323   6.490  16.983  0.00  0.00    +0.000 A 
ATOM     12  N   UNL     1       6.963   5.846  15.858  0.00  0.00    +0.000 NA
ATOM     13  H   UNL     1       4.569   3.919  14.766  0.00  0.00    +0.000 HD
ENDBRANCH   1   9
BRANCH   1  14
ATOM     14  C   UNL     1       3.462   4.787  19.492  0.00  0.00    +0.000 A 
ATOM     15  C   UNL     1       2.296   5.479  19.882  0.00  0.00    +0.000 A 
ATOM     16 CL   UNL     1       2.332   7.194  20.119  0.00  0.00    +0.000 Cl
ATOM     17  C   UNL     1       1.067   4.814  20.059  0.00  0.00    +0.000 A 
ATOM     18  C   UNL     1       0.970   3.437  19.862  0.00  0.00    +0.000 A 
ATOM     19  C   UNL     1       2.114   2.768  19.486  0.00  0.00    +0.000 A 
ATOM     20  C   UNL     1       3.321   3.415  19.316  0.00  0.00    +0.000 A 
ATOM     21  O   UNL     1       4.309   2.535  18.977  0.00  0.00    +0.000 OA
ATOM     22  C   UNL     1       3.572   1.308  18.845  0.00  0.00    +0.000 C 
ATOM     23  O   UNL     1       2.196   1.431  19.251  0.00  0.00    +0.000 OA
ENDBRANCH   1  14
TORSDOF 2
ENDMDL
MODEL 5
REMARK VINA RESULT:      -7.5      1.084      1.116
REMARK  Name = 
REMARK  3 active torsions:
REMARK  status: ('A' for Active; 'I' for Inactive)
REMARK    1  A    between atoms: C_1  and  C_2
REMARK    2  A    between atoms: C_7  and  N_8
REMARK    3  A    between atoms: N_8  and  C_9
REMARK                            x       y       z     vdW  Elec       q    Type
REMARK                         _______ _______ _______ _____ _____    ______ ____
ROOT
ATOM      1  N   UNL     1       5.718   3.902  19.059  0.00  0.00    +0.000 N 
ATOM      2  H   UNL     1       6.390   4.197  19.769  0.00  0.00    +0.000 HD
ENDROOT
BRANCH   1   9
ATOM      3  C   UNL     1       5.986   3.013  11.919  0.00  0.00    +0.000 C 
ATOM      4  C   UNL     1       6.516   3.899  13.014  0.00  0.00    +0.000 C 
ATOM      5  O   UNL     1       7.358   4.754  12.753  0.00  0.00    +0.000 OA
ATOM      6  N   UNL     1       5.957   3.615  14.246  0.00  0.00    +0.000 N 
ATOM      7  C   UNL     1       6.213   4.340  15.419  0.00  0.00    +0.000 A 
ATOM      8  C   UNL     1       5.803   3.795  16.631  0.00  0.00    +0.000 A 
ATOM      9  C   UNL     1       6.049   4.497  17.815  0.00  0.00    +0.000 A 
ATOM     10  C   UNL     1       6.734   5.708  17.738  0.00  0.00    +0.000 A 
ATOM     11  C   UNL     1       7.081   6.188  16.494  0.00  0.00    +0.000 A 
ATOM     12  N   UNL     1       6.834   5.528  15.347  0.00  0.00    +0.000 NA
ATOM     13  H   UNL     1       5.378   2.793  14.329  0.00  0.00    +0.000 HD
ENDBRANCH   1   9
BRANCH   1  14
ATOM     14  C   UNL     1       4.417   3.831  19.627  0.00  0.00    +0.000 A 
ATOM     15  C   UNL     1       3.898   2.616  20.123  0.00  0.00    +0.000 A 
ATOM     16 CL   UNL     1       4.889   1.196  20.174  0.00  0.00    +0.000 Cl
ATOM     17  C   UNL     1       2.584   2.521  20.620  0.00  0.00    +0.000 A 
ATOM     18  C   UNL     1       1.745   3.636  20.624  0.00  0.00    +0.000 A 
ATOM     19  C   UNL     1       2.256   4.817  20.133  0.00  0.00    +0.000 A 
ATOM     20  C   UNL     1       3.543   4.912  19.642  0.00  0.00    +0.000 A 
ATOM     21  O   UNL     1       3.804   6.172  19.184  0.00  0.00    +0.000 OA
ATOM     22  C   UNL     1       2.598   6.867  19.543  0.00  0.00    +0.000 C 
ATOM     23  O   UNL     1       1.579   5.994  20.067  0.00  0.00    +0.000 OA
ENDBRANCH   1  14
TORSDOF 2
ENDMDL
MODEL 6
REMARK VINA RESULT:      -7.4      3.444      7.174
REMARK  Name = 
REMARK  3 active torsions:
REMARK  status: ('A' for Active; 'I' for Inactive)
REMARK    1  A    between atoms: C_1  and  C_2
REMARK    2  A    between atoms: C_7  and  N_8
REMARK    3  A    between atoms: N_8  and  C_9
REMARK                            x       y       z     vdW  Elec       q    Type
REMARK                         _______ _______ _______ _____ _____    ______ ____
ROOT
ATOM      1  N   UNL     1       3.597   5.700  18.793  0.00  0.00    +0.000 N 
ATOM      2  H   UNL     1       2.989   4.924  19.057  0.00  0.00    +0.000 HD
ENDROOT
BRANCH   1   9
ATOM      3  C   UNL     1      -0.558   9.810  22.999  0.00  0.00    +0.000 C 
ATOM      4  C   UNL     1      -0.138   9.644  21.563  0.00  0.00    +0.000 C 
ATOM      5  O   UNL     1      -0.672  10.322  20.688  0.00  0.00    +0.000 OA
ATOM      6  N   UNL     1       0.849   8.690  21.404  0.00  0.00    +0.000 N 
ATOM      7  C   UNL     1       1.476   8.393  20.185  0.00  0.00    +0.000 A 
ATOM      8  C   UNL     1       2.251   7.241  20.108  0.00  0.00    +0.000 A 
ATOM      9  C   UNL     1       2.885   6.922  18.903  0.00  0.00    +0.000 A 
ATOM     10  C   UNL     1       2.684   7.757  17.806  0.00  0.00    +0.000 A 
ATOM     11  C   UNL     1       1.922   8.892  17.977  0.00  0.00    +0.000 A 
ATOM     12  N   UNL     1       1.321   9.217  19.137  0.00  0.00    +0.000 NA
ATOM     13  H   UNL     1       1.092   8.118  22.199  0.00  0.00    +0.000 HD
ENDBRANCH   1   9
BRANCH   1  14
ATOM     14  C   UNL     1       4.424   5.315  17.703  0.00  0.00    +0.000 A 
ATOM     15  C   UNL     1       4.096   4.211  16.888  0.00  0.00    +0.000 A 
ATOM     16 CL   UNL     1       2.598   3.370  17.112  0.00  0.00    +0.000 Cl
ATOM     17  C   UNL     1       4.947   3.778  15.852  0.00  0.00    +0.000 A 
ATOM     18  C   UNL     1       6.157   4.429  15.609  0.00  0.00    +0.000 A 
ATOM     19  C   UNL     1       6.473   5.501  16.413  0.00  0.00    +0.000 A 
ATOM     20  C   UNL     1       5.643   5.926  17.432  0.00  0.00    +0.000 A 
ATOM     21  O   UNL     1       6.189   6.982  18.105  0.00  0.00    +0.000 OA
ATOM     22  C   UNL     1       7.375   7.236  17.333  0.00  0.00    +0.000 C 
ATOM     23  O   UNL     1       7.606   6.247  16.312  0.00  0.00    +0.000 OA
ENDBRANCH   1  14
TORSDOF 2
ENDMDL
MODEL 7
REMARK VINA RESULT:      -7.4      4.142      7.258
REMARK  Name = 
REMARK  3 active torsions:
REMARK  status: ('A' for Active; 'I' for Inactive)
REMARK    1  A    between atoms: C_1  and  C_2
REMARK    2  A    between atoms: C_7  and  N_8
REMARK    3  A    between atoms: N_8  and  C_9
REMARK                            x       y       z     vdW  Elec       q    Type
REMARK                         _______ _______ _______ _____ _____    ______ ____
ROOT
ATOM      1  N   UNL     1       2.977   6.342  19.833  0.00  0.00    +0.000 N 
ATOM      2  H   UNL     1       2.799   6.010  20.783  0.00  0.00    +0.000 HD
ENDROOT
BRANCH   1   9
ATOM      3  C   UNL     1      -1.175  11.431  22.783  0.00  0.00    +0.000 C 
ATOM      4  C   UNL     1      -0.734  10.904  21.444  0.00  0.00    +0.000 C 
ATOM      5  O   UNL     1      -1.241  11.347  20.416  0.00  0.00    +0.000 OA
ATOM      6  N   UNL     1       0.238   9.927  21.551  0.00  0.00    +0.000 N 
ATOM      7  C   UNL     1       0.880   9.326  20.459  0.00  0.00    +0.000 A 
ATOM      8  C   UNL     1       1.636   8.181  20.690  0.00  0.00    +0.000 A 
ATOM      9  C   UNL     1       2.285   7.561  19.618  0.00  0.00    +0.000 A 
ATOM     10  C   UNL     1       2.117   8.096  18.342  0.00  0.00    +0.000 A 
ATOM     11  C   UNL     1       1.373   9.247  18.206  0.00  0.00    +0.000 A 
ATOM     12  N   UNL     1       0.758   9.862  19.234  0.00  0.00    +0.000 NA
ATOM     13  H   UNL     1       0.457   9.571  22.469  0.00  0.00    +0.000 HD
ENDBRANCH   1   9
BRANCH   1  14
ATOM     14  C   UNL     1       3.016   5.239  18.938  0.00  0.00    +0.000 A 
ATOM     15  C   UNL     1       3.967   5.172  17.898  0.00  0.00    +0.000 A 
ATOM     16 CL   UNL     1       5.205   6.375  17.763  0.00  0.00    +0.000 Cl
ATOM     17  C   UNL     1       3.966   4.119  16.962  0.00  0.00    +0.000 A 
ATOM     18  C   UNL     1       3.006   3.109  17.031  0.00  0.00    +0.000 A 
ATOM     19  C   UNL     1       2.078   3.184  18.046  0.00  0.00    +0.000 A 
ATOM     20  C   UNL     1       2.074   4.216  18.963  0.00  0.00    +0.000 A 
ATOM     21  O   UNL     1       1.040   4.087  19.846  0.00  0.00    +0.000 OA
ATOM     22  C   UNL     1       0.482   2.822  19.456  0.00  0.00    +0.000 C 
ATOM     23  O   UNL     1       1.080   2.286  18.261  0.00  0.00    +0.000 OA
ENDBRANCH   1  14
TORSDOF 2
ENDMDL
MODEL 8
REMARK VINA RESULT:      -7.4      2.417      2.938
REMARK  Name = 
REMARK  3 active torsions:
REMARK  status: ('A' for Active; 'I' for Inactive)
REMARK    1  A    between atoms: C_1  and  C_2
REMARK    2  A    between atoms: C_7  and  N_8
REMARK    3  A    between atoms: N_8  and  C_9
REMARK                            x       y       z     vdW  Elec       q    Type
REMARK                         _______ _______ _______ _____ _____    ______ ____
ROOT
ATOM      1  N   UNL     1       5.070   5.962  18.133  0.00  0.00    +0.000 N 
ATOM      2  H   UNL     1       4.925   6.973  18.120  0.00  0.00    +0.000 HD
ENDROOT
BRANCH   1   9
ATOM      3  C   UNL     1       4.324   3.265  11.499  0.00  0.00    +0.000 C 
ATOM      4  C   UNL     1       5.363   3.501  12.563  0.00  0.00    +0.000 C 
ATOM      5  O   UNL     1       6.499   3.057  12.416  0.00  0.00    +0.000 OA
ATOM      6  N   UNL     1       4.874   4.224  13.634  0.00  0.00    +0.000 N 
ATOM      7  C   UNL     1       5.648   4.651  14.722  0.00  0.00    +0.000 A 
ATOM      8  C   UNL     1       4.990   5.132  15.849  0.00  0.00    +0.000 A 
ATOM      9  C   UNL     1       5.739   5.562  16.948  0.00  0.00    +0.000 A 
ATOM     10  C   UNL     1       7.127   5.455  16.887  0.00  0.00    +0.000 A 
ATOM     11  C   UNL     1       7.699   4.992  15.723  0.00  0.00    +0.000 A 
ATOM     12  N   UNL     1       6.987   4.592  14.653  0.00  0.00    +0.000 NA
ATOM     13  H   UNL     1       3.882   4.403  13.675  0.00  0.00    +0.000 HD
ENDBRANCH   1   9
BRANCH   1  14
ATOM     14  C   UNL     1       3.938   5.322  18.707  0.00  0.00    +0.000 A 
ATOM     15  C   UNL     1       2.674   5.948  18.730  0.00  0.00    +0.000 A 
ATOM     16 CL   UNL     1       2.435   7.469  17.937  0.00  0.00    +0.000 Cl
ATOM     17  C   UNL     1       1.565   5.352  19.362  0.00  0.00    +0.000 A 
ATOM     18  C   UNL     1       1.691   4.118  20.000  0.00  0.00    +0.000 A 
ATOM     19  C   UNL     1       2.929   3.515  19.978  0.00  0.00    +0.000 A 
ATOM     20  C   UNL     1       4.019   4.098  19.363  0.00  0.00    +0.000 A 
ATOM     21  O   UNL     1       5.137   3.327  19.505  0.00  0.00    +0.000 OA
ATOM     22  C   UNL     1       4.606   2.165  20.165  0.00  0.00    +0.000 C 
ATOM     23  O   UNL     1       3.225   2.315  20.545  0.00  0.00    +0.000 OA
ENDBRANCH   1  14
TORSDOF 2
ENDMDL
MODEL 9
REMARK VINA RESULT:      -7.2      2.154      2.720
REMARK  Name = 
REMARK  3 active torsions:
REMARK  status: ('A' for Active; 'I' for Inactive)
REMARK    1  A    between atoms: C_1  and  C_2
REMARK    2  A    between atoms: C_7  and  N_8
REMARK    3  A    between atoms: N_8  and  C_9
REMARK                            x       y       z     vdW  Elec       q    Type
REMARK                         _______ _______ _______ _____ _____    ______ ____
ROOT
ATOM      1  N   UNL     1       5.411   4.113  18.478  0.00  0.00    +0.000 N 
ATOM      2  H   UNL     1       6.166   4.176  19.164  0.00  0.00    +0.000 HD
ENDROOT
BRANCH   1   9
ATOM      3  C   UNL     1       4.448   3.161  11.407  0.00  0.00    +0.000 C 
ATOM      4  C   UNL     1       5.503   3.549  12.408  0.00  0.00    +0.000 C 
ATOM      5  O   UNL     1       6.665   3.703  12.041  0.00  0.00    +0.000 OA
ATOM      6  N   UNL     1       4.999   3.682  13.688  0.00  0.00    +0.000 N 
ATOM      7  C   UNL     1       5.747   4.111  14.794  0.00  0.00    +0.000 A 
ATOM      8  C   UNL     1       5.198   3.947  16.061  0.00  0.00    +0.000 A 
ATOM      9  C   UNL     1       5.925   4.365  17.181  0.00  0.00    +0.000 A 
ATOM     10  C   UNL     1       7.197   4.899  16.984  0.00  0.00    +0.000 A 
ATOM     11  C   UNL     1       7.652   5.050  15.693  0.00  0.00    +0.000 A 
ATOM     12  N   UNL     1       6.954   4.666  14.608  0.00  0.00    +0.000 NA
ATOM     13  H   UNL     1       4.048   3.389  13.859  0.00  0.00    +0.000 HD
ENDBRANCH   1   9
BRANCH   1  14
ATOM     14  C   UNL     1       4.219   4.663  19.022  0.00  0.00    +0.000 A 
ATOM     15  C   UNL     1       3.813   5.980  18.719  0.00  0.00    +0.000 A 
ATOM     16 CL   UNL     1       4.692   6.923  17.562  0.00  0.00    +0.000 Cl
ATOM     17  C   UNL     1       2.674   6.558  19.311  0.00  0.00    +0.000 A 
ATOM     18  C   UNL     1       1.913   5.840  20.235  0.00  0.00    +0.000 A 
ATOM     19  C   UNL     1       2.319   4.558  20.531  0.00  0.00    +0.000 A 
ATOM     20  C   UNL     1       3.437   3.989  19.955  0.00  0.00    +0.000 A 
ATOM     21  O   UNL     1       3.651   2.727  20.432  0.00  0.00    +0.000 OA
ATOM     22  C   UNL     1       2.497   2.534  21.267  0.00  0.00    +0.000 C 
ATOM     23  O   UNL     1       1.694   3.722  21.402  0.00  0.00    +0.000 OA
ENDBRANCH   1  14
TORSDOF 2
ENDMDL
