MODEL 1
REMARK VINA RESULT:      -8.3      0.000      0.000
REMARK  Name = 
REMARK  6 active torsions:
REMARK  status: ('A' for Active; 'I' for Inactive)
REMARK    1  A    between atoms: C_1  and  O_2
REMARK    2  A    between atoms: O_2  and  C_3
REMARK    3  A    between atoms: C_7  and  C_8
REMARK    4  A    between atoms: C_10  and  N_11
REMARK    5  A    between atoms: C_12  and  C_14
REMARK    6  A    between atoms: C_14  and  N_15
REMARK                            x       y       z     vdW  Elec       q    Type
REMARK                         _______ _______ _______ _____ _____    ______ ____
ROOT
ATOM      1  N   UNL     1       0.559  10.159  18.851  0.00  0.00    +0.000 N 
ATOM      2  N   UNL     1       0.552  10.900  20.037  0.00  0.00    +0.000 NA
ATOM      3  C   UNL     1      -0.656  11.397  20.072  0.00  0.00    +0.000 A 
ATOM      4  C   UNL     1      -1.312  12.219  21.025  0.00  0.00    +0.000 A 
ATOM      5  S   UNL     1      -0.719  12.831  22.488  0.00  0.00    +0.000 S 
ATOM      6  C   UNL     1      -2.288  13.536  22.813  0.00  0.00    +0.000 A 
ATOM      7  N   UNL     1      -2.607  14.201  23.964  0.00  0.00    +0.000 N 
ATOM      8  C   UNL     1      -3.979  14.683  24.149  0.00  0.00    +0.000 C 
ATOM      9  C   UNL     1      -3.819  16.099  24.686  0.00  0.00    +0.000 C 
ATOM     10  C   UNL     1      -2.526  16.019  25.477  0.00  0.00    +0.000 C 
ATOM     11  C   UNL     1      -1.656  15.063  24.658  0.00  0.00    +0.000 C 
ATOM     12  N   UNL     1      -3.165  13.328  21.855  0.00  0.00    +0.000 NA
ATOM     13  C   UNL     1      -2.616  12.609  20.835  0.00  0.00    +0.000 A 
ATOM     14  N   UNL     1      -3.359  12.264  19.686  0.00  0.00    +0.000 NA
ATOM     15  C   UNL     1      -2.729  11.507  18.846  0.00  0.00    +0.000 A 
ATOM     16  N   UNL     1      -1.436  11.062  19.013  0.00  0.00    +0.000 N 
ATOM     17  C   UNL     1      -0.679  10.256  18.201  0.00  0.00    +0.000 A 
ATOM     18  O   UNL     1      -1.008   9.750  17.141  0.00  0.00    +0.000 OA
ENDROOT
BRANCH   1  19
ATOM     19  C   UNL     1       1.712   9.499  18.289  0.00  0.00    +0.000 C 
BRANCH  19  21
ATOM     20  N   UNL     1       2.328   7.160  17.848  0.00  0.00    +0.000 N 
ATOM     21  C   UNL     1       2.013   8.101  18.811  0.00  0.00    +0.000 C 
ATOM     22  O   UNL     1       1.881   7.876  20.015  0.00  0.00    +0.000 OA
ATOM     23  H   UNL     1       2.178   7.431  16.876  0.00  0.00    +0.000 HD
BRANCH  20  31
ATOM     24  C   UNL     1       3.965   5.365  17.943  0.00  0.00    +0.000 A 
ATOM     25  C   UNL     1       4.278   4.014  18.146  0.00  0.00    +0.000 A 
ATOM     26  C   UNL     1       3.272   3.079  18.402  0.00  0.00    +0.000 A 
ATOM     27 CL   UNL     1       3.744   1.424  18.533  0.00  0.00    +0.000 Cl
ATOM     28  C   UNL     1       1.942   3.488  18.518  0.00  0.00    +0.000 A 
ATOM     29  C   UNL     1       0.784   2.559  18.744  0.00  0.00    +0.000 C 
ATOM     30  C   UNL     1       1.649   4.857  18.392  0.00  0.00    +0.000 A 
ATOM     31  C   UNL     1       2.635   5.799  18.074  0.00  0.00    +0.000 A 
BRANCH  24  33
ATOM     32  C   UNL     1       6.259   5.881  17.782  0.00  0.00    +0.000 C 
ATOM     33  O   UNL     1       4.906   6.307  17.593  0.00  0.00    +0.000 OA
ENDBRANCH  24  33
ENDBRANCH  20  31
ENDBRANCH  19  21
ENDBRANCH   1  19
TORSDOF 4
ENDMDL
MODEL 2
REMARK VINA RESULT:      -8.0      3.630      4.440
REMARK  Name = 
REMARK  6 active torsions:
REMARK  status: ('A' for Active; 'I' for Inactive)
REMARK    1  A    between atoms: C_1  and  O_2
REMARK    2  A    between atoms: O_2  and  C_3
REMARK    3  A    between atoms: C_7  and  C_8
REMARK    4  A    between atoms: C_10  and  N_11
REMARK    5  A    between atoms: C_12  and  C_14
REMARK    6  A    between atoms: C_14  and  N_15
REMARK                            x       y       z     vdW  Elec       q    Type
REMARK                         _______ _______ _______ _____ _____    ______ ____
ROOT
ATOM      1  N   UNL     1       0.498  10.790  22.186  0.00  0.00    +0.000 N 
ATOM      2  N   UNL     1       1.065  11.747  21.338  0.00  0.00    +0.000 NA
ATOM      3  C   UNL     1       0.110  12.629  21.203  0.00  0.00    +0.000 A 
ATOM      4  C   UNL     1       0.052  13.855  20.490  0.00  0.00    +0.000 A 
ATOM      5  S   UNL     1       1.253  14.603  19.562  0.00  0.00    +0.000 S 
ATOM      6  C   UNL     1       0.182  15.962  19.295  0.00  0.00    +0.000 A 
ATOM      7  N   UNL     1       0.533  17.092  18.612  0.00  0.00    +0.000 N 
ATOM      8  C   UNL     1      -0.431  18.193  18.518  0.00  0.00    +0.000 C 
ATOM      9  C   UNL     1      -0.375  18.630  17.061  0.00  0.00    +0.000 C 
ATOM     10  C   UNL     1       1.065  18.344  16.675  0.00  0.00    +0.000 C 
ATOM     11  C   UNL     1       1.399  17.060  17.439  0.00  0.00    +0.000 C 
ATOM     12  N   UNL     1      -0.998  15.818  19.858  0.00  0.00    +0.000 NA
ATOM     13  C   UNL     1      -1.087  14.624  20.512  0.00  0.00    +0.000 A 
ATOM     14  N   UNL     1      -2.261  14.235  21.190  0.00  0.00    +0.000 NA
ATOM     15  C   UNL     1      -2.164  13.117  21.834  0.00  0.00    +0.000 A 
ATOM     16  N   UNL     1      -1.033  12.332  21.872  0.00  0.00    +0.000 N 
ATOM     17  C   UNL     1      -0.815  11.145  22.524  0.00  0.00    +0.000 A 
ATOM     18  O   UNL     1      -1.598  10.530  23.228  0.00  0.00    +0.000 OA
ENDROOT
BRANCH   1  19
ATOM     19  C   UNL     1       1.113   9.539  22.558  0.00  0.00    +0.000 C 
BRANCH  19  21
ATOM     20  N   UNL     1       2.014   7.721  21.168  0.00  0.00    +0.000 N 
ATOM     21  C   UNL     1       0.875   8.363  21.620  0.00  0.00    +0.000 C 
ATOM     22  O   UNL     1      -0.277   8.112  21.265  0.00  0.00    +0.000 OA
ATOM     23  H   UNL     1       2.905   8.177  21.363  0.00  0.00    +0.000 HD
BRANCH  20  31
ATOM     24  C   UNL     1       2.443   6.821  18.950  0.00  0.00    +0.000 A 
ATOM     25  C   UNL     1       2.473   5.738  18.063  0.00  0.00    +0.000 A 
ATOM     26  C   UNL     1       2.053   4.469  18.472  0.00  0.00    +0.000 A 
ATOM     27 CL   UNL     1       2.026   3.221  17.279  0.00  0.00    +0.000 Cl
ATOM     28  C   UNL     1       1.652   4.249  19.791  0.00  0.00    +0.000 A 
ATOM     29  C   UNL     1       1.140   2.939  20.316  0.00  0.00    +0.000 C 
ATOM     30  C   UNL     1       1.701   5.326  20.693  0.00  0.00    +0.000 A 
ATOM     31  C   UNL     1       2.059   6.617  20.287  0.00  0.00    +0.000 A 
BRANCH  24  33
ATOM     32  C   UNL     1       1.982   8.596  17.470  0.00  0.00    +0.000 C 
ATOM     33  O   UNL     1       2.753   8.108  18.571  0.00  0.00    +0.000 OA
ENDBRANCH  24  33
ENDBRANCH  20  31
ENDBRANCH  19  21
ENDBRANCH   1  19
TORSDOF 4
ENDMDL
MODEL 3
REMARK VINA RESULT:      -7.9      1.457      1.572
REMARK  Name = 
REMARK  6 active torsions:
REMARK  status: ('A' for Active; 'I' for Inactive)
REMARK    1  A    between atoms: C_1  and  O_2
REMARK    2  A    between atoms: O_2  and  C_3
REMARK    3  A    between atoms: C_7  and  C_8
REMARK    4  A    between atoms: C_10  and  N_11
REMARK    5  A    between atoms: C_12  and  C_14
REMARK    6  A    between atoms: C_14  and  N_15
REMARK                            x       y       z     vdW  Elec       q    Type
REMARK                         _______ _______ _______ _____ _____    ______ ____
ROOT
ATOM      1  N   UNL     1      -0.229  10.740  18.857  0.00  0.00    +0.000 N 
ATOM      2  N   UNL     1      -0.431  11.563  19.970  0.00  0.00    +0.000 NA
ATOM      3  C   UNL     1      -1.700  11.866  19.891  0.00  0.00    +0.000 A 
ATOM      4  C   UNL     1      -2.538  12.648  20.728  0.00  0.00    +0.000 A 
ATOM      5  S   UNL     1      -2.148  13.459  22.162  0.00  0.00    +0.000 S 
ATOM      6  C   UNL     1      -3.825  13.933  22.333  0.00  0.00    +0.000 A 
ATOM      7  N   UNL     1      -4.320  14.629  23.400  0.00  0.00    +0.000 N 
ATOM      8  C   UNL     1      -5.759  14.904  23.463  0.00  0.00    +0.000 C 
ATOM      9  C   UNL     1      -5.854  16.365  23.879  0.00  0.00    +0.000 C 
ATOM     10  C   UNL     1      -4.622  16.551  24.747  0.00  0.00    +0.000 C 
ATOM     11  C   UNL     1      -3.562  15.681  24.067  0.00  0.00    +0.000 C 
ATOM     12  N   UNL     1      -4.591  13.515  21.349  0.00  0.00    +0.000 NA
ATOM     13  C   UNL     1      -3.869  12.812  20.430  0.00  0.00    +0.000 A 
ATOM     14  N   UNL     1      -4.469  12.265  19.276  0.00  0.00    +0.000 NA
ATOM     15  C   UNL     1      -3.674  11.552  18.544  0.00  0.00    +0.000 A 
ATOM     16  N   UNL     1      -2.343  11.330  18.823  0.00  0.00    +0.000 N 
ATOM     17  C   UNL     1      -1.418  10.590  18.132  0.00  0.00    +0.000 A 
ATOM     18  O   UNL     1      -1.592   9.956  17.104  0.00  0.00    +0.000 OA
ENDROOT
BRANCH   1  19
ATOM     19  C   UNL     1       1.048  10.226  18.424  0.00  0.00    +0.000 C 
BRANCH  19  21
ATOM     20  N   UNL     1       2.217   8.066  18.318  0.00  0.00    +0.000 N 
ATOM     21  C   UNL     1       1.543   8.968  19.122  0.00  0.00    +0.000 C 
ATOM     22  O   UNL     1       1.253   8.793  20.306  0.00  0.00    +0.000 OA
ATOM     23  H   UNL     1       2.185   8.235  17.313  0.00  0.00    +0.000 HD
BRANCH  20  31
ATOM     24  C   UNL     1       3.856   6.295  18.018  0.00  0.00    +0.000 A 
ATOM     25  C   UNL     1       4.393   5.059  18.398  0.00  0.00    +0.000 A 
ATOM     26  C   UNL     1       3.806   4.310  19.422  0.00  0.00    +0.000 A 
ATOM     27 CL   UNL     1       4.474   2.752  19.748  0.00  0.00    +0.000 Cl
ATOM     28  C   UNL     1       2.708   4.813  20.123  0.00  0.00    +0.000 A 
ATOM     29  C   UNL     1       1.978   4.070  21.204  0.00  0.00    +0.000 C 
ATOM     30  C   UNL     1       2.227   6.090  19.786  0.00  0.00    +0.000 A 
ATOM     31  C   UNL     1       2.762   6.826  18.723  0.00  0.00    +0.000 A 
BRANCH  24  33
ATOM     32  C   UNL     1       5.256   6.311  16.123  0.00  0.00    +0.000 C 
ATOM     33  O   UNL     1       4.337   7.025  16.954  0.00  0.00    +0.000 OA
ENDBRANCH  24  33
ENDBRANCH  20  31
ENDBRANCH  19  21
ENDBRANCH   1  19
TORSDOF 4
ENDMDL
MODEL 4
REMARK VINA RESULT:      -7.9      1.851      2.152
REMARK  Name = 
REMARK  6 active torsions:
REMARK  status: ('A' for Active; 'I' for Inactive)
REMARK    1  A    between atoms: C_1  and  O_2
REMARK    2  A    between atoms: O_2  and  C_3
REMARK    3  A    between atoms: C_7  and  C_8
REMARK    4  A    between atoms: C_10  and  N_11
REMARK    5  A    between atoms: C_12  and  C_14
REMARK    6  A    between atoms: C_14  and  N_15
REMARK                            x       y       z     vdW  Elec       q    Type
REMARK                         _______ _______ _______ _____ _____    ______ ____
ROOT
ATOM      1  N   UNL     1       0.122  10.530  21.421  0.00  0.00    +0.000 N 
ATOM      2  N   UNL     1      -0.359  11.411  22.395  0.00  0.00    +0.000 NA
ATOM      3  C   UNL     1      -1.327  12.038  21.779  0.00  0.00    +0.000 A 
ATOM      4  C   UNL     1      -2.231  13.040  22.217  0.00  0.00    +0.000 A 
ATOM      5  S   UNL     1      -2.360  13.763  23.742  0.00  0.00    +0.000 S 
ATOM      6  C   UNL     1      -3.748  14.671  23.180  0.00  0.00    +0.000 A 
ATOM      7  N   UNL     1      -4.488  15.505  23.968  0.00  0.00    +0.000 N 
ATOM      8  C   UNL     1      -5.673  16.154  23.399  0.00  0.00    +0.000 C 
ATOM      9  C   UNL     1      -5.582  17.600  23.866  0.00  0.00    +0.000 C 
ATOM     10  C   UNL     1      -4.887  17.481  25.210  0.00  0.00    +0.000 C 
ATOM     11  C   UNL     1      -3.888  16.340  25.004  0.00  0.00    +0.000 C 
ATOM     12  N   UNL     1      -4.050  14.440  21.921  0.00  0.00    +0.000 NA
ATOM     13  C   UNL     1      -3.186  13.542  21.365  0.00  0.00    +0.000 A 
ATOM     14  N   UNL     1      -3.300  13.138  20.019  0.00  0.00    +0.000 NA
ATOM     15  C   UNL     1      -2.464  12.217  19.661  0.00  0.00    +0.000 A 
ATOM     16  N   UNL     1      -1.516  11.658  20.490  0.00  0.00    +0.000 N 
ATOM     17  C   UNL     1      -0.593  10.679  20.225  0.00  0.00    +0.000 A 
ATOM     18  O   UNL     1      -0.425  10.081  19.174  0.00  0.00    +0.000 OA
ENDROOT
BRANCH   1  19
ATOM     19  C   UNL     1       1.280   9.682  21.565  0.00  0.00    +0.000 C 
BRANCH  19  21
ATOM     20  N   UNL     1       2.120   7.661  20.446  0.00  0.00    +0.000 N 
ATOM     21  C   UNL     1       1.098   8.218  21.194  0.00  0.00    +0.000 C 
ATOM     22  O   UNL     1       0.046   7.655  21.500  0.00  0.00    +0.000 OA
ATOM     23  H   UNL     1       2.818   8.304  20.074  0.00  0.00    +0.000 HD
BRANCH  20  31
ATOM     24  C   UNL     1       2.609   6.094  18.653  0.00  0.00    +0.000 A 
ATOM     25  C   UNL     1       2.656   4.782  18.164  0.00  0.00    +0.000 A 
ATOM     26  C   UNL     1       2.210   3.712  18.945  0.00  0.00    +0.000 A 
ATOM     27 CL   UNL     1       2.208   2.146  18.218  0.00  0.00    +0.000 Cl
ATOM     28  C   UNL     1       1.765   3.930  20.250  0.00  0.00    +0.000 A 
ATOM     29  C   UNL     1       1.223   2.859  21.153  0.00  0.00    +0.000 C 
ATOM     30  C   UNL     1       1.797   5.240  20.759  0.00  0.00    +0.000 A 
ATOM     31  C   UNL     1       2.181   6.331  19.970  0.00  0.00    +0.000 A 
BRANCH  24  33
ATOM     32  C   UNL     1       4.216   7.083  17.242  0.00  0.00    +0.000 C 
ATOM     33  O   UNL     1       2.945   7.189  17.890  0.00  0.00    +0.000 OA
ENDBRANCH  24  33
ENDBRANCH  20  31
ENDBRANCH  19  21
ENDBRANCH   1  19
TORSDOF 4
ENDMDL
MODEL 5
REMARK VINA RESULT:      -7.7      4.188      9.862
REMARK  Name = 
REMARK  6 active torsions:
REMARK  status: ('A' for Active; 'I' for Inactive)
REMARK    1  A    between atoms: C_1  and  O_2
REMARK    2  A    between atoms: O_2  and  C_3
REMARK    3  A    between atoms: C_7  and  C_8
REMARK    4  A    between atoms: C_10  and  N_11
REMARK    5  A    between atoms: C_12  and  C_14
REMARK    6  A    between atoms: C_14  and  N_15
REMARK                            x       y       z     vdW  Elec       q    Type
REMARK                         _______ _______ _______ _____ _____    ______ ____
ROOT
ATOM      1  N   UNL     1       0.497  10.902  20.889  0.00  0.00    +0.000 N 
ATOM      2  N   UNL     1       0.783   9.556  21.139  0.00  0.00    +0.000 NA
ATOM      3  C   UNL     1       1.319   9.152  20.017  0.00  0.00    +0.000 A 
ATOM      4  C   UNL     1       1.848   7.896  19.622  0.00  0.00    +0.000 A 
ATOM      5  S   UNL     1       1.973   6.466  20.519  0.00  0.00    +0.000 S 
ATOM      6  C   UNL     1       2.796   5.709  19.172  0.00  0.00    +0.000 A 
ATOM      7  N   UNL     1       3.303   4.440  19.198  0.00  0.00    +0.000 N 
ATOM      8  C   UNL     1       4.035   3.943  18.029  0.00  0.00    +0.000 C 
ATOM      9  C   UNL     1       3.498   2.536  17.807  0.00  0.00    +0.000 C 
ATOM     10  C   UNL     1       3.156   2.077  19.213  0.00  0.00    +0.000 C 
ATOM     11  C   UNL     1       2.635   3.345  19.893  0.00  0.00    +0.000 C 
ATOM     12  N   UNL     1       2.927   6.497  18.128  0.00  0.00    +0.000 NA
ATOM     13  C   UNL     1       2.375   7.722  18.365  0.00  0.00    +0.000 A 
ATOM     14  N   UNL     1       2.384   8.741  17.390  0.00  0.00    +0.000 NA
ATOM     15  C   UNL     1       1.900   9.873  17.791  0.00  0.00    +0.000 A 
ATOM     16  N   UNL     1       1.397  10.104  19.053  0.00  0.00    +0.000 N 
ATOM     17  C   UNL     1       0.874  11.254  19.586  0.00  0.00    +0.000 A 
ATOM     18  O   UNL     1       0.752  12.338  19.040  0.00  0.00    +0.000 OA
ENDROOT
BRANCH   1  19
ATOM     19  C   UNL     1      -0.215  11.781  21.785  0.00  0.00    +0.000 C 
BRANCH  19  21
ATOM     20  N   UNL     1      -2.077  12.093  20.210  0.00  0.00    +0.000 N 
ATOM     21  C   UNL     1      -1.708  11.939  21.534  0.00  0.00    +0.000 C 
ATOM     22  O   UNL     1      -2.469  12.000  22.501  0.00  0.00    +0.000 OA
ATOM     23  H   UNL     1      -1.324  12.249  19.540  0.00  0.00    +0.000 HD
BRANCH  20  31
ATOM     24  C   UNL     1      -3.783  11.588  18.554  0.00  0.00    +0.000 A 
ATOM     25  C   UNL     1      -5.078  11.766  18.048  0.00  0.00    +0.000 A 
ATOM     26  C   UNL     1      -5.959  12.671  18.647  0.00  0.00    +0.000 A 
ATOM     27 CL   UNL     1      -7.494  12.900  17.891  0.00  0.00    +0.000 Cl
ATOM     28  C   UNL     1      -5.582  13.367  19.797  0.00  0.00    +0.000 A 
ATOM     29  C   UNL     1      -6.435  14.392  20.487  0.00  0.00    +0.000 C 
ATOM     30  C   UNL     1      -4.310  13.120  20.342  0.00  0.00    +0.000 A 
ATOM     31  C   UNL     1      -3.391  12.266  19.721  0.00  0.00    +0.000 A 
BRANCH  24  33
ATOM     32  C   UNL     1      -2.609  11.099  16.570  0.00  0.00    +0.000 C 
ATOM     33  O   UNL     1      -2.846  10.784  17.945  0.00  0.00    +0.000 OA
ENDBRANCH  24  33
ENDBRANCH  20  31
ENDBRANCH  19  21
ENDBRANCH   1  19
TORSDOF 4
ENDMDL
MODEL 6
REMARK VINA RESULT:      -7.6      1.845      2.565
REMARK  Name = 
REMARK  6 active torsions:
REMARK  status: ('A' for Active; 'I' for Inactive)
REMARK    1  A    between atoms: C_1  and  O_2
REMARK    2  A    between atoms: O_2  and  C_3
REMARK    3  A    between atoms: C_7  and  C_8
REMARK    4  A    between atoms: C_10  and  N_11
REMARK    5  A    between atoms: C_12  and  C_14
REMARK    6  A    between atoms: C_14  and  N_15
REMARK                            x       y       z     vdW  Elec       q    Type
REMARK                         _______ _______ _______ _____ _____    ______ ____
ROOT
ATOM      1  N   UNL     1       0.860  10.630  19.821  0.00  0.00    +0.000 N 
ATOM      2  N   UNL     1      -0.152  11.583  19.666  0.00  0.00    +0.000 NA
ATOM      3  C   UNL     1      -0.772  11.550  20.817  0.00  0.00    +0.000 A 
ATOM      4  C   UNL     1      -1.874  12.291  21.317  0.00  0.00    +0.000 A 
ATOM      5  S   UNL     1      -2.765  13.514  20.558  0.00  0.00    +0.000 S 
ATOM      6  C   UNL     1      -3.697  13.727  22.024  0.00  0.00    +0.000 A 
ATOM      7  N   UNL     1      -4.660  14.682  22.189  0.00  0.00    +0.000 N 
ATOM      8  C   UNL     1      -5.322  14.806  23.491  0.00  0.00    +0.000 C 
ATOM      9  C   UNL     1      -6.801  14.951  23.159  0.00  0.00    +0.000 C 
ATOM     10  C   UNL     1      -6.780  15.669  21.821  0.00  0.00    +0.000 C 
ATOM     11  C   UNL     1      -5.559  15.080  21.111  0.00  0.00    +0.000 C 
ATOM     12  N   UNL     1      -3.353  12.901  22.988  0.00  0.00    +0.000 NA
ATOM     13  C   UNL     1      -2.344  12.074  22.590  0.00  0.00    +0.000 A 
ATOM     14  N   UNL     1      -1.806  11.093  23.449  0.00  0.00    +0.000 NA
ATOM     15  C   UNL     1      -0.798  10.445  22.959  0.00  0.00    +0.000 A 
ATOM     16  N   UNL     1      -0.269  10.655  21.704  0.00  0.00    +0.000 N 
ATOM     17  C   UNL     1       0.793  10.041  21.091  0.00  0.00    +0.000 A 
ATOM     18  O   UNL     1       1.511   9.166  21.548  0.00  0.00    +0.000 OA
ENDROOT
BRANCH   1  19
ATOM     19  C   UNL     1       1.763  10.199  18.782  0.00  0.00    +0.000 C 
BRANCH  19  21
ATOM     20  N   UNL     1       2.513   7.868  18.999  0.00  0.00    +0.000 N 
ATOM     21  C   UNL     1       1.657   8.742  18.354  0.00  0.00    +0.000 C 
ATOM     22  O   UNL     1       0.899   8.450  17.429  0.00  0.00    +0.000 OA
ATOM     23  H   UNL     1       3.242   8.284  19.578  0.00  0.00    +0.000 HD
BRANCH  20  31
ATOM     24  C   UNL     1       3.489   6.004  17.781  0.00  0.00    +0.000 A 
ATOM     25  C   UNL     1       3.585   4.628  17.537  0.00  0.00    +0.000 A 
ATOM     26  C   UNL     1       2.763   3.724  18.216  0.00  0.00    +0.000 A 
ATOM     27 CL   UNL     1       2.879   2.060  17.772  0.00  0.00    +0.000 Cl
ATOM     28  C   UNL     1       1.876   4.175  19.195  0.00  0.00    +0.000 A 
ATOM     29  C   UNL     1       0.921   3.294  19.947  0.00  0.00    +0.000 C 
ATOM     30  C   UNL     1       1.846   5.550  19.489  0.00  0.00    +0.000 A 
ATOM     31  C   UNL     1       2.615   6.476  18.775  0.00  0.00    +0.000 A 
BRANCH  24  33
ATOM     32  C   UNL     1       5.584   6.610  16.888  0.00  0.00    +0.000 C 
ATOM     33  O   UNL     1       4.205   6.942  17.071  0.00  0.00    +0.000 OA
ENDBRANCH  24  33
ENDBRANCH  20  31
ENDBRANCH  19  21
ENDBRANCH   1  19
TORSDOF 4
ENDMDL
MODEL 7
REMARK VINA RESULT:      -7.6      2.541      3.248
REMARK  Name = 
REMARK  6 active torsions:
REMARK  status: ('A' for Active; 'I' for Inactive)
REMARK    1  A    between atoms: C_1  and  O_2
REMARK    2  A    between atoms: O_2  and  C_3
REMARK    3  A    between atoms: C_7  and  C_8
REMARK    4  A    between atoms: C_10  and  N_11
REMARK    5  A    between atoms: C_12  and  C_14
REMARK    6  A    between atoms: C_14  and  N_15
REMARK                            x       y       z     vdW  Elec       q    Type
REMARK                         _______ _______ _______ _____ _____    ______ ____
ROOT
ATOM      1  N   UNL     1       0.052  10.825  21.910  0.00  0.00    +0.000 N 
ATOM      2  N   UNL     1      -1.213  11.176  22.392  0.00  0.00    +0.000 NA
ATOM      3  C   UNL     1      -1.453  12.316  21.799  0.00  0.00    +0.000 A 
ATOM      4  C   UNL     1      -2.575  13.184  21.841  0.00  0.00    +0.000 A 
ATOM      5  S   UNL     1      -4.025  13.006  22.695  0.00  0.00    +0.000 S 
ATOM      6  C   UNL     1      -4.621  14.481  21.965  0.00  0.00    +0.000 A 
ATOM      7  N   UNL     1      -5.877  14.981  22.160  0.00  0.00    +0.000 N 
ATOM      8  C   UNL     1      -6.283  16.188  21.434  0.00  0.00    +0.000 C 
ATOM      9  C   UNL     1      -6.977  17.051  22.479  0.00  0.00    +0.000 C 
ATOM     10  C   UNL     1      -7.594  16.024  23.412  0.00  0.00    +0.000 C 
ATOM     11  C   UNL     1      -6.561  14.895  23.446  0.00  0.00    +0.000 C 
ATOM     12  N   UNL     1      -3.753  15.055  21.160  0.00  0.00    +0.000 NA
ATOM     13  C   UNL     1      -2.590  14.343  21.104  0.00  0.00    +0.000 A 
ATOM     14  N   UNL     1      -1.502  14.763  20.311  0.00  0.00    +0.000 NA
ATOM     15  C   UNL     1      -0.502  13.940  20.293  0.00  0.00    +0.000 A 
ATOM     16  N   UNL     1      -0.457  12.750  20.985  0.00  0.00    +0.000 N 
ATOM     17  C   UNL     1       0.535  11.804  21.031  0.00  0.00    +0.000 A 
ATOM     18  O   UNL     1       1.606  11.821  20.447  0.00  0.00    +0.000 OA
ENDROOT
BRANCH   1  19
ATOM     19  C   UNL     1       0.826   9.690  22.353  0.00  0.00    +0.000 C 
BRANCH  19  21
ATOM     20  N   UNL     1       1.869   7.918  21.005  0.00  0.00    +0.000 N 
ATOM     21  C   UNL     1       0.690   8.416  21.531  0.00  0.00    +0.000 C 
ATOM     22  O   UNL     1      -0.436   7.964  21.319  0.00  0.00    +0.000 OA
ATOM     23  H   UNL     1       2.690   8.519  21.072  0.00  0.00    +0.000 HD
BRANCH  20  31
ATOM     24  C   UNL     1       2.473   6.893  18.885  0.00  0.00    +0.000 A 
ATOM     25  C   UNL     1       2.595   5.757  18.075  0.00  0.00    +0.000 A 
ATOM     26  C   UNL     1       2.186   4.503  18.538  0.00  0.00    +0.000 A 
ATOM     27 CL   UNL     1       2.277   3.181  17.431  0.00  0.00    +0.000 Cl
ATOM     28  C   UNL     1       1.704   4.355  19.839  0.00  0.00    +0.000 A 
ATOM     29  C   UNL     1       1.197   3.064  20.416  0.00  0.00    +0.000 C 
ATOM     30  C   UNL     1       1.660   5.488  20.670  0.00  0.00    +0.000 A 
ATOM     31  C   UNL     1       2.006   6.761  20.204  0.00  0.00    +0.000 A 
BRANCH  24  33
ATOM     32  C   UNL     1       1.696   8.809  17.754  0.00  0.00    +0.000 C 
ATOM     33  O   UNL     1       2.770   8.163  18.443  0.00  0.00    +0.000 OA
ENDBRANCH  24  33
ENDBRANCH  20  31
ENDBRANCH  19  21
ENDBRANCH   1  19
TORSDOF 4
ENDMDL
MODEL 8
REMARK VINA RESULT:      -7.6      2.227      2.926
REMARK  Name = 
REMARK  6 active torsions:
REMARK  status: ('A' for Active; 'I' for Inactive)
REMARK    1  A    between atoms: C_1  and  O_2
REMARK    2  A    between atoms: O_2  and  C_3
REMARK    3  A    between atoms: C_7  and  C_8
REMARK    4  A    between atoms: C_10  and  N_11
REMARK    5  A    between atoms: C_12  and  C_14
REMARK    6  A    between atoms: C_14  and  N_15
REMARK                            x       y       z     vdW  Elec       q    Type
REMARK                         _______ _______ _______ _____ _____    ______ ____
ROOT
ATOM      1  N   UNL     1      -0.067  10.740  22.187  0.00  0.00    +0.000 N 
ATOM      2  N   UNL     1      -0.803  11.562  23.047  0.00  0.00    +0.000 NA
ATOM      3  C   UNL     1      -1.236  12.509  22.257  0.00  0.00    +0.000 A 
ATOM      4  C   UNL     1      -2.058  13.640  22.501  0.00  0.00    +0.000 A 
ATOM      5  S   UNL     1      -2.783  14.134  23.948  0.00  0.00    +0.000 S 
ATOM      6  C   UNL     1      -3.555  15.454  23.095  0.00  0.00    +0.000 A 
ATOM      7  N   UNL     1      -4.434  16.329  23.669  0.00  0.00    +0.000 N 
ATOM      8  C   UNL     1      -5.071  17.349  22.831  0.00  0.00    +0.000 C 
ATOM      9  C   UNL     1      -4.976  18.631  23.646  0.00  0.00    +0.000 C 
ATOM     10  C   UNL     1      -5.047  18.130  25.078  0.00  0.00    +0.000 C 
ATOM     11  C   UNL     1      -4.278  16.807  25.039  0.00  0.00    +0.000 C 
ATOM     12  N   UNL     1      -3.247  15.503  21.817  0.00  0.00    +0.000 NA
ATOM     13  C   UNL     1      -2.386  14.500  21.481  0.00  0.00    +0.000 A 
ATOM     14  N   UNL     1      -1.902  14.348  20.164  0.00  0.00    +0.000 NA
ATOM     15  C   UNL     1      -1.163  13.301  19.982  0.00  0.00    +0.000 A 
ATOM     16  N   UNL     1      -0.840  12.391  20.964  0.00  0.00    +0.000 N 
ATOM     17  C   UNL     1      -0.081  11.251  20.883  0.00  0.00    +0.000 A 
ATOM     18  O   UNL     1       0.471  10.795  19.895  0.00  0.00    +0.000 OA
ENDROOT
BRANCH   1  19
ATOM     19  C   UNL     1       0.719   9.601  22.596  0.00  0.00    +0.000 C 
BRANCH  19  21
ATOM     20  N   UNL     1       1.758   7.907  21.149  0.00  0.00    +0.000 N 
ATOM     21  C   UNL     1       0.589   8.347  21.742  0.00  0.00    +0.000 C 
ATOM     22  O   UNL     1      -0.530   7.862  21.568  0.00  0.00    +0.000 OA
ATOM     23  H   UNL     1       2.561   8.534  21.197  0.00  0.00    +0.000 HD
BRANCH  20  31
ATOM     24  C   UNL     1       2.369   6.958  18.995  0.00  0.00    +0.000 A 
ATOM     25  C   UNL     1       2.493   5.851  18.146  0.00  0.00    +0.000 A 
ATOM     26  C   UNL     1       2.081   4.582  18.562  0.00  0.00    +0.000 A 
ATOM     27 CL   UNL     1       2.176   3.301  17.409  0.00  0.00    +0.000 Cl
ATOM     28  C   UNL     1       1.595   4.388  19.856  0.00  0.00    +0.000 A 
ATOM     29  C   UNL     1       1.084   3.078  20.384  0.00  0.00    +0.000 C 
ATOM     30  C   UNL     1       1.549   5.491  20.727  0.00  0.00    +0.000 A 
ATOM     31  C   UNL     1       1.898   6.779  20.308  0.00  0.00    +0.000 A 
BRANCH  24  33
ATOM     32  C   UNL     1       1.757   8.788  17.642  0.00  0.00    +0.000 C 
ATOM     33  O   UNL     1       2.669   8.242  18.600  0.00  0.00    +0.000 OA
ENDBRANCH  24  33
ENDBRANCH  20  31
ENDBRANCH  19  21
ENDBRANCH   1  19
TORSDOF 4
ENDMDL
MODEL 9
REMARK VINA RESULT:      -7.6      3.038      3.606
REMARK  Name = 
REMARK  6 active torsions:
REMARK  status: ('A' for Active; 'I' for Inactive)
REMARK    1  A    between atoms: C_1  and  O_2
REMARK    2  A    between atoms: O_2  and  C_3
REMARK    3  A    between atoms: C_7  and  C_8
REMARK    4  A    between atoms: C_10  and  N_11
REMARK    5  A    between atoms: C_12  and  C_14
REMARK    6  A    between atoms: C_14  and  N_15
REMARK                            x       y       z     vdW  Elec       q    Type
REMARK                         _______ _______ _______ _____ _____    ______ ____
ROOT
ATOM      1  N   UNL     1       0.156  10.067  19.312  0.00  0.00    +0.000 N 
ATOM      2  N   UNL     1      -0.876  10.868  19.812  0.00  0.00    +0.000 NA
ATOM      3  C   UNL     1      -1.714  10.934  18.810  0.00  0.00    +0.000 A 
ATOM      4  C   UNL     1      -2.973  11.573  18.674  0.00  0.00    +0.000 A 
ATOM      5  S   UNL     1      -3.835  12.478  19.816  0.00  0.00    +0.000 S 
ATOM      6  C   UNL     1      -5.149  12.646  18.672  0.00  0.00    +0.000 A 
ATOM      7  N   UNL     1      -6.334  13.267  18.950  0.00  0.00    +0.000 N 
ATOM      8  C   UNL     1      -7.387  13.279  17.930  0.00  0.00    +0.000 C 
ATOM      9  C   UNL     1      -7.908  14.709  17.932  0.00  0.00    +0.000 C 
ATOM     10  C   UNL     1      -7.720  15.138  19.377  0.00  0.00    +0.000 C 
ATOM     11  C   UNL     1      -6.414  14.456  19.791  0.00  0.00    +0.000 C 
ATOM     12  N   UNL     1      -4.912  12.070  17.513  0.00  0.00    +0.000 NA
ATOM     13  C   UNL     1      -3.680  11.486  17.499  0.00  0.00    +0.000 A 
ATOM     14  N   UNL     1      -3.192  10.810  16.360  0.00  0.00    +0.000 NA
ATOM     15  C   UNL     1      -2.045  10.234  16.528  0.00  0.00    +0.000 A 
ATOM     16  N   UNL     1      -1.320  10.263  17.698  0.00  0.00    +0.000 N 
ATOM     17  C   UNL     1      -0.110   9.685  17.990  0.00  0.00    +0.000 A 
ATOM     18  O   UNL     1       0.585   9.004  17.254  0.00  0.00    +0.000 OA
ENDROOT
BRANCH   1  19
ATOM     19  C   UNL     1       1.393   9.781  19.998  0.00  0.00    +0.000 C 
BRANCH  19  21
ATOM     20  N   UNL     1       2.252   7.595  19.271  0.00  0.00    +0.000 N 
ATOM     21  C   UNL     1       1.676   8.316  20.301  0.00  0.00    +0.000 C 
ATOM     22  O   UNL     1       1.311   7.854  21.383  0.00  0.00    +0.000 OA
ATOM     23  H   UNL     1       2.289   8.048  18.359  0.00  0.00    +0.000 HD
BRANCH  20  31
ATOM     24  C   UNL     1       3.602   5.754  18.433  0.00  0.00    +0.000 A 
ATOM     25  C   UNL     1       3.942   4.395  18.439  0.00  0.00    +0.000 A 
ATOM     26  C   UNL     1       3.244   3.488  19.241  0.00  0.00    +0.000 A 
ATOM     27 CL   UNL     1       3.665   1.819  19.101  0.00  0.00    +0.000 Cl
ATOM     28  C   UNL     1       2.234   3.934  20.096  0.00  0.00    +0.000 A 
ATOM     29  C   UNL     1       1.395   3.037  20.960  0.00  0.00    +0.000 C 
ATOM     30  C   UNL     1       1.955   5.311  20.141  0.00  0.00    +0.000 A 
ATOM     31  C   UNL     1       2.600   6.225  19.300  0.00  0.00    +0.000 A 
BRANCH  24  33
ATOM     32  C   UNL     1       5.596   6.472  17.404  0.00  0.00    +0.000 C 
ATOM     33  O   UNL     1       4.192   6.670  17.592  0.00  0.00    +0.000 OA
ENDBRANCH  24  33
ENDBRANCH  20  31
ENDBRANCH  19  21
ENDBRANCH   1  19
TORSDOF 4
ENDMDL
