MODEL 1
REMARK VINA RESULT:      -7.3      0.000      0.000
REMARK  Name = 
REMARK  4 active torsions:
REMARK  status: ('A' for Active; 'I' for Inactive)
REMARK    1  A    between atoms: C_5  and  N_6
REMARK    2  A    between atoms: N_6  and  C_7
REMARK    3  A    between atoms: C_7  and  N_9
REMARK    4  A    between atoms: C_13  and  C_14
REMARK                            x       y       z     vdW  Elec       q    Type
REMARK                         _______ _______ _______ _____ _____    ______ ____
ROOT
ATOM      1  C   UNL     1       5.617   3.985  16.187  0.00  0.00    +0.000 C 
ATOM      2  S   UNL     1       5.603   4.332  14.530  0.00  0.00    +0.000 S 
ENDROOT
BRANCH   1   3
ATOM      3  N   UNL     1       6.336   4.795  17.076  0.00  0.00    +0.000 N 
ATOM      4  N   UNL     1       7.456   4.287  17.706  0.00  0.00    +0.000 NA
ATOM      5  C   UNL     1       7.958   5.229  18.432  0.00  0.00    +0.000 C 
ATOM      6  C   UNL     1       7.226   6.523  18.432  0.00  0.00    +0.000 C 
ATOM      7  C   UNL     1       6.100   6.208  17.448  0.00  0.00    +0.000 C 
BRANCH   7   8
ATOM      8  C   UNL     1       4.742   6.405  18.100  0.00  0.00    +0.000 A 
ATOM      9  C   UNL     1       3.784   7.244  17.513  0.00  0.00    +0.000 A 
ATOM     10  C   UNL     1       2.544   7.437  18.127  0.00  0.00    +0.000 A 
ATOM     11  C   UNL     1       2.251   6.804  19.338  0.00  0.00    +0.000 A 
ATOM     12  C   UNL     1       3.195   5.972  19.931  0.00  0.00    +0.000 A 
ATOM     13  C   UNL     1       4.428   5.767  19.314  0.00  0.00    +0.000 A 
ENDBRANCH   7   8
ENDBRANCH   1   3
BRANCH   1  14
ATOM     14  N   UNL     1       4.985   2.889  16.777  0.00  0.00    +0.000 N 
ATOM     15  H   UNL     1       5.322   1.983  16.486  0.00  0.00    +0.000 HD
BRANCH  14  20
ATOM     16  F   UNL     1       0.255   2.976  19.703  0.00  0.00    +0.000 F 
ATOM     17  C   UNL     1       1.393   2.932  19.000  0.00  0.00    +0.000 A 
ATOM     18  C   UNL     1       1.477   3.596  17.781  0.00  0.00    +0.000 A 
ATOM     19  C   UNL     1       2.670   3.559  17.046  0.00  0.00    +0.000 A 
ATOM     20  C   UNL     1       3.790   2.879  17.545  0.00  0.00    +0.000 A 
ATOM     21  C   UNL     1       3.664   2.180  18.754  0.00  0.00    +0.000 A 
ATOM     22  C   UNL     1       2.475   2.217  19.489  0.00  0.00    +0.000 A 
ENDBRANCH  14  20
ENDBRANCH   1  14
TORSDOF 4
ENDMDL
MODEL 2
REMARK VINA RESULT:      -7.3      0.062      1.490
REMARK  Name = 
REMARK  4 active torsions:
REMARK  status: ('A' for Active; 'I' for Inactive)
REMARK    1  A    between atoms: C_5  and  N_6
REMARK    2  A    between atoms: N_6  and  C_7
REMARK    3  A    between atoms: C_7  and  N_9
REMARK    4  A    between atoms: C_13  and  C_14
REMARK                            x       y       z     vdW  Elec       q    Type
REMARK                         _______ _______ _______ _____ _____    ______ ____
ROOT
ATOM      1  C   UNL     1       5.642   3.986  16.190  0.00  0.00    +0.000 C 
ATOM      2  S   UNL     1       5.647   4.321  14.530  0.00  0.00    +0.000 S 
ENDROOT
BRANCH   1   3
ATOM      3  N   UNL     1       6.369   4.789  17.079  0.00  0.00    +0.000 N 
ATOM      4  N   UNL     1       7.490   4.272  17.701  0.00  0.00    +0.000 NA
ATOM      5  C   UNL     1       8.000   5.208  18.428  0.00  0.00    +0.000 C 
ATOM      6  C   UNL     1       7.277   6.507  18.436  0.00  0.00    +0.000 C 
ATOM      7  C   UNL     1       6.144   6.201  17.456  0.00  0.00    +0.000 C 
BRANCH   7   8
ATOM      8  C   UNL     1       4.790   6.405  18.115  0.00  0.00    +0.000 A 
ATOM      9  C   UNL     1       4.484   5.772  19.328  0.00  0.00    +0.000 A 
ATOM     10  C   UNL     1       3.231   5.945  19.918  0.00  0.00    +0.000 A 
ATOM     11  C   UNL     1       2.265   6.745  19.300  0.00  0.00    +0.000 A 
ATOM     12  C   UNL     1       2.556   7.376  18.095  0.00  0.00    +0.000 A 
ATOM     13  C   UNL     1       3.810   7.214  17.509  0.00  0.00    +0.000 A 
ENDBRANCH   7   8
ENDBRANCH   1   3
BRANCH   1  14
ATOM     14  N   UNL     1       4.985   2.907  16.783  0.00  0.00    +0.000 N 
ATOM     15  H   UNL     1       5.329   1.993  16.528  0.00  0.00    +0.000 HD
BRANCH  14  20
ATOM     16  F   UNL     1       0.250   2.830  19.701  0.00  0.00    +0.000 F 
ATOM     17  C   UNL     1       1.388   2.872  18.998  0.00  0.00    +0.000 A 
ATOM     18  C   UNL     1       2.522   2.228  19.482  0.00  0.00    +0.000 A 
ATOM     19  C   UNL     1       3.713   2.263  18.745  0.00  0.00    +0.000 A 
ATOM     20  C   UNL     1       3.763   2.919  17.507  0.00  0.00    +0.000 A 
ATOM     21  C   UNL     1       2.619   3.598  17.063  0.00  0.00    +0.000 A 
ATOM     22  C   UNL     1       1.429   3.563  17.797  0.00  0.00    +0.000 A 
ENDBRANCH  14  20
ENDBRANCH   1  14
TORSDOF 4
ENDMDL
MODEL 3
REMARK VINA RESULT:      -7.3      0.070      1.054
REMARK  Name = 
REMARK  4 active torsions:
REMARK  status: ('A' for Active; 'I' for Inactive)
REMARK    1  A    between atoms: C_5  and  N_6
REMARK    2  A    between atoms: N_6  and  C_7
REMARK    3  A    between atoms: C_7  and  N_9
REMARK    4  A    between atoms: C_13  and  C_14
REMARK                            x       y       z     vdW  Elec       q    Type
REMARK                         _______ _______ _______ _____ _____    ______ ____
ROOT
ATOM      1  C   UNL     1       5.638   3.960  16.169  0.00  0.00    +0.000 C 
ATOM      2  S   UNL     1       5.651   4.278  14.506  0.00  0.00    +0.000 S 
ENDROOT
BRANCH   1   3
ATOM      3  N   UNL     1       6.361   4.772  17.053  0.00  0.00    +0.000 N 
ATOM      4  N   UNL     1       7.488   4.267  17.675  0.00  0.00    +0.000 NA
ATOM      5  C   UNL     1       7.991   5.211  18.397  0.00  0.00    +0.000 C 
ATOM      6  C   UNL     1       7.256   6.503  18.403  0.00  0.00    +0.000 C 
ATOM      7  C   UNL     1       6.123   6.184  17.427  0.00  0.00    +0.000 C 
BRANCH   7   8
ATOM      8  C   UNL     1       4.769   6.376  18.089  0.00  0.00    +0.000 A 
ATOM      9  C   UNL     1       3.809   7.222  17.516  0.00  0.00    +0.000 A 
ATOM     10  C   UNL     1       2.574   7.411  18.140  0.00  0.00    +0.000 A 
ATOM     11  C   UNL     1       2.287   6.767  19.346  0.00  0.00    +0.000 A 
ATOM     12  C   UNL     1       3.233   5.928  19.925  0.00  0.00    +0.000 A 
ATOM     13  C   UNL     1       4.462   5.727  19.299  0.00  0.00    +0.000 A 
ENDBRANCH   7   8
ENDBRANCH   1   3
BRANCH   1  14
ATOM     14  N   UNL     1       4.979   2.886  16.771  0.00  0.00    +0.000 N 
ATOM     15  H   UNL     1       5.331   1.970  16.533  0.00  0.00    +0.000 HD
BRANCH  14  20
ATOM     16  F   UNL     1       0.203   2.823  19.622  0.00  0.00    +0.000 F 
ATOM     17  C   UNL     1       1.351   2.862  18.935  0.00  0.00    +0.000 A 
ATOM     18  C   UNL     1       2.462   2.172  19.410  0.00  0.00    +0.000 A 
ATOM     19  C   UNL     1       3.664   2.203  18.690  0.00  0.00    +0.000 A 
ATOM     20  C   UNL     1       3.747   2.903  17.478  0.00  0.00    +0.000 A 
ATOM     21  C   UNL     1       2.627   3.627  17.045  0.00  0.00    +0.000 A 
ATOM     22  C   UNL     1       1.427   3.596  17.762  0.00  0.00    +0.000 A 
ENDBRANCH  14  20
ENDBRANCH   1  14
TORSDOF 4
ENDMDL
MODEL 4
REMARK VINA RESULT:      -7.3      0.063      1.056
REMARK  Name = 
REMARK  4 active torsions:
REMARK  status: ('A' for Active; 'I' for Inactive)
REMARK    1  A    between atoms: C_5  and  N_6
REMARK    2  A    between atoms: N_6  and  C_7
REMARK    3  A    between atoms: C_7  and  N_9
REMARK    4  A    between atoms: C_13  and  C_14
REMARK                            x       y       z     vdW  Elec       q    Type
REMARK                         _______ _______ _______ _____ _____    ______ ____
ROOT
ATOM      1  C   UNL     1       5.636   3.992  16.189  0.00  0.00    +0.000 C 
ATOM      2  S   UNL     1       5.604   4.348  14.534  0.00  0.00    +0.000 S 
ENDROOT
BRANCH   1   3
ATOM      3  N   UNL     1       6.365   4.795  17.075  0.00  0.00    +0.000 N 
ATOM      4  N   UNL     1       7.496   4.284  17.683  0.00  0.00    +0.000 NA
ATOM      5  C   UNL     1       8.006   5.221  18.410  0.00  0.00    +0.000 C 
ATOM      6  C   UNL     1       7.272   6.513  18.433  0.00  0.00    +0.000 C 
ATOM      7  C   UNL     1       6.132   6.204  17.463  0.00  0.00    +0.000 C 
BRANCH   7   8
ATOM      8  C   UNL     1       4.783   6.392  18.136  0.00  0.00    +0.000 A 
ATOM      9  C   UNL     1       4.486   5.730  19.336  0.00  0.00    +0.000 A 
ATOM     10  C   UNL     1       3.237   5.890  19.939  0.00  0.00    +0.000 A 
ATOM     11  C   UNL     1       2.267   6.704  19.348  0.00  0.00    +0.000 A 
ATOM     12  C   UNL     1       2.550   7.364  18.156  0.00  0.00    +0.000 A 
ATOM     13  C   UNL     1       3.799   7.216  17.558  0.00  0.00    +0.000 A 
ENDBRANCH   7   8
ENDBRANCH   1   3
BRANCH   1  14
ATOM     14  N   UNL     1       5.008   2.893  16.780  0.00  0.00    +0.000 N 
ATOM     15  H   UNL     1       5.366   1.989  16.509  0.00  0.00    +0.000 HD
BRANCH  14  20
ATOM     16  F   UNL     1       0.215   2.945  19.602  0.00  0.00    +0.000 F 
ATOM     17  C   UNL     1       1.369   2.909  18.924  0.00  0.00    +0.000 A 
ATOM     18  C   UNL     1       1.484   3.602  17.723  0.00  0.00    +0.000 A 
ATOM     19  C   UNL     1       2.693   3.573  17.014  0.00  0.00    +0.000 A 
ATOM     20  C   UNL     1       3.797   2.874  17.521  0.00  0.00    +0.000 A 
ATOM     21  C   UNL     1       3.640   2.146  18.710  0.00  0.00    +0.000 A 
ATOM     22  C   UNL     1       2.435   2.175  19.419  0.00  0.00    +0.000 A 
ENDBRANCH  14  20
ENDBRANCH   1  14
TORSDOF 4
ENDMDL
MODEL 5
REMARK VINA RESULT:      -6.5      3.061      5.165
REMARK  Name = 
REMARK  4 active torsions:
REMARK  status: ('A' for Active; 'I' for Inactive)
REMARK    1  A    between atoms: C_5  and  N_6
REMARK    2  A    between atoms: N_6  and  C_7
REMARK    3  A    between atoms: C_7  and  N_9
REMARK    4  A    between atoms: C_13  and  C_14
REMARK                            x       y       z     vdW  Elec       q    Type
REMARK                         _______ _______ _______ _____ _____    ______ ____
ROOT
ATOM      1  C   UNL     1       2.908   5.218  19.812  0.00  0.00    +0.000 C 
ATOM      2  S   UNL     1       2.094   4.451  21.083  0.00  0.00    +0.000 S 
ENDROOT
BRANCH   1   3
ATOM      3  N   UNL     1       3.379   4.477  18.720  0.00  0.00    +0.000 N 
ATOM      4  N   UNL     1       3.174   3.110  18.687  0.00  0.00    +0.000 NA
ATOM      5  C   UNL     1       3.657   2.669  17.574  0.00  0.00    +0.000 C 
ATOM      6  C   UNL     1       4.302   3.676  16.689  0.00  0.00    +0.000 C 
ATOM      7  C   UNL     1       4.071   4.950  17.502  0.00  0.00    +0.000 C 
BRANCH   7   8
ATOM      8  C   UNL     1       5.390   5.631  17.825  0.00  0.00    +0.000 A 
ATOM      9  C   UNL     1       5.773   6.802  17.155  0.00  0.00    +0.000 A 
ATOM     10  C   UNL     1       6.996   7.412  17.442  0.00  0.00    +0.000 A 
ATOM     11  C   UNL     1       7.855   6.855  18.393  0.00  0.00    +0.000 A 
ATOM     12  C   UNL     1       7.488   5.692  19.062  0.00  0.00    +0.000 A 
ATOM     13  C   UNL     1       6.263   5.088  18.787  0.00  0.00    +0.000 A 
ENDBRANCH   7   8
ENDBRANCH   1   3
BRANCH   1  14
ATOM     14  N   UNL     1       3.210   6.581  19.765  0.00  0.00    +0.000 N 
ATOM     15  H   UNL     1       4.116   6.839  20.128  0.00  0.00    +0.000 HD
BRANCH  14  20
ATOM     16  F   UNL     1      -0.161  10.841  18.572  0.00  0.00    +0.000 F 
ATOM     17  C   UNL     1       0.632   9.805  18.869  0.00  0.00    +0.000 A 
ATOM     18  C   UNL     1       1.405   9.220  17.871  0.00  0.00    +0.000 A 
ATOM     19  C   UNL     1       2.242   8.139  18.180  0.00  0.00    +0.000 A 
ATOM     20  C   UNL     1       2.329   7.661  19.495  0.00  0.00    +0.000 A 
ATOM     21  C   UNL     1       1.506   8.239  20.473  0.00  0.00    +0.000 A 
ATOM     22  C   UNL     1       0.670   9.317  20.166  0.00  0.00    +0.000 A 
ENDBRANCH  14  20
ENDBRANCH   1  14
TORSDOF 4
ENDMDL
MODEL 6
REMARK VINA RESULT:      -6.5      3.029      5.186
REMARK  Name = 
REMARK  4 active torsions:
REMARK  status: ('A' for Active; 'I' for Inactive)
REMARK    1  A    between atoms: C_5  and  N_6
REMARK    2  A    between atoms: N_6  and  C_7
REMARK    3  A    between atoms: C_7  and  N_9
REMARK    4  A    between atoms: C_13  and  C_14
REMARK                            x       y       z     vdW  Elec       q    Type
REMARK                         _______ _______ _______ _____ _____    ______ ____
ROOT
ATOM      1  C   UNL     1       2.925   5.147  19.827  0.00  0.00    +0.000 C 
ATOM      2  S   UNL     1       2.107   4.362  21.085  0.00  0.00    +0.000 S 
ENDROOT
BRANCH   1   3
ATOM      3  N   UNL     1       3.395   4.422  18.724  0.00  0.00    +0.000 N 
ATOM      4  N   UNL     1       3.205   3.053  18.678  0.00  0.00    +0.000 NA
ATOM      5  C   UNL     1       3.685   2.630  17.558  0.00  0.00    +0.000 C 
ATOM      6  C   UNL     1       4.311   3.652  16.678  0.00  0.00    +0.000 C 
ATOM      7  C   UNL     1       4.073   4.915  17.505  0.00  0.00    +0.000 C 
BRANCH   7   8
ATOM      8  C   UNL     1       5.387   5.607  17.825  0.00  0.00    +0.000 A 
ATOM      9  C   UNL     1       5.754   6.786  17.160  0.00  0.00    +0.000 A 
ATOM     10  C   UNL     1       6.972   7.406  17.444  0.00  0.00    +0.000 A 
ATOM     11  C   UNL     1       7.842   6.853  18.387  0.00  0.00    +0.000 A 
ATOM     12  C   UNL     1       7.490   5.683  19.052  0.00  0.00    +0.000 A 
ATOM     13  C   UNL     1       6.269   5.068  18.780  0.00  0.00    +0.000 A 
ENDBRANCH   7   8
ENDBRANCH   1   3
BRANCH   1  14
ATOM     14  N   UNL     1       3.229   6.510  19.802  0.00  0.00    +0.000 N 
ATOM     15  H   UNL     1       4.107   6.768  20.229  0.00  0.00    +0.000 HD
BRANCH  14  20
ATOM     16  F   UNL     1      -0.214  10.717  18.627  0.00  0.00    +0.000 F 
ATOM     17  C   UNL     1       0.632   9.716  18.900  0.00  0.00    +0.000 A 
ATOM     18  C   UNL     1       0.725   9.227  20.198  0.00  0.00    +0.000 A 
ATOM     19  C   UNL     1       1.604   8.174  20.486  0.00  0.00    +0.000 A 
ATOM     20  C   UNL     1       2.371   7.590  19.468  0.00  0.00    +0.000 A 
ATOM     21  C   UNL     1       2.292   8.132  18.177  0.00  0.00    +0.000 A 
ATOM     22  C   UNL     1       1.415   9.183  17.888  0.00  0.00    +0.000 A 
ENDBRANCH  14  20
ENDBRANCH   1  14
TORSDOF 4
ENDMDL
MODEL 7
REMARK VINA RESULT:      -6.4      3.053      5.265
REMARK  Name = 
REMARK  4 active torsions:
REMARK  status: ('A' for Active; 'I' for Inactive)
REMARK    1  A    between atoms: C_5  and  N_6
REMARK    2  A    between atoms: N_6  and  C_7
REMARK    3  A    between atoms: C_7  and  N_9
REMARK    4  A    between atoms: C_13  and  C_14
REMARK                            x       y       z     vdW  Elec       q    Type
REMARK                         _______ _______ _______ _____ _____    ______ ____
ROOT
ATOM      1  C   UNL     1       2.922   5.212  19.798  0.00  0.00    +0.000 C 
ATOM      2  S   UNL     1       2.116   4.468  21.089  0.00  0.00    +0.000 S 
ENDROOT
BRANCH   1   3
ATOM      3  N   UNL     1       3.379   4.451  18.714  0.00  0.00    +0.000 N 
ATOM      4  N   UNL     1       3.163   3.086  18.701  0.00  0.00    +0.000 NA
ATOM      5  C   UNL     1       3.635   2.626  17.592  0.00  0.00    +0.000 C 
ATOM      6  C   UNL     1       4.282   3.614  16.688  0.00  0.00    +0.000 C 
ATOM      7  C   UNL     1       4.067   4.902  17.484  0.00  0.00    +0.000 C 
BRANCH   7   8
ATOM      8  C   UNL     1       5.393   5.576  17.789  0.00  0.00    +0.000 A 
ATOM      9  C   UNL     1       6.265   5.036  18.745  0.00  0.00    +0.000 A 
ATOM     10  C   UNL     1       7.474   5.672  19.037  0.00  0.00    +0.000 A 
ATOM     11  C   UNL     1       7.822   6.858  18.385  0.00  0.00    +0.000 A 
ATOM     12  C   UNL     1       6.964   7.404  17.436  0.00  0.00    +0.000 A 
ATOM     13  C   UNL     1       5.763   6.766  17.134  0.00  0.00    +0.000 A 
ENDBRANCH   7   8
ENDBRANCH   1   3
BRANCH   1  14
ATOM     14  N   UNL     1       3.228   6.572  19.727  0.00  0.00    +0.000 N 
ATOM     15  H   UNL     1       4.143   6.831  20.066  0.00  0.00    +0.000 HD
BRANCH  14  20
ATOM     16  F   UNL     1      -0.146  10.834  18.552  0.00  0.00    +0.000 F 
ATOM     17  C   UNL     1       0.648   9.798  18.845  0.00  0.00    +0.000 A 
ATOM     18  C   UNL     1       1.409   9.207  17.842  0.00  0.00    +0.000 A 
ATOM     19  C   UNL     1       2.247   8.126  18.146  0.00  0.00    +0.000 A 
ATOM     20  C   UNL     1       2.347   7.653  19.462  0.00  0.00    +0.000 A 
ATOM     21  C   UNL     1       1.535   8.237  20.446  0.00  0.00    +0.000 A 
ATOM     22  C   UNL     1       0.698   9.316  20.144  0.00  0.00    +0.000 A 
ENDBRANCH  14  20
ENDBRANCH   1  14
TORSDOF 4
ENDMDL
MODEL 8
REMARK VINA RESULT:      -6.4      2.168      3.591
REMARK  Name = 
REMARK  4 active torsions:
REMARK  status: ('A' for Active; 'I' for Inactive)
REMARK    1  A    between atoms: C_5  and  N_6
REMARK    2  A    between atoms: N_6  and  C_7
REMARK    3  A    between atoms: C_7  and  N_9
REMARK    4  A    between atoms: C_13  and  C_14
REMARK                            x       y       z     vdW  Elec       q    Type
REMARK                         _______ _______ _______ _____ _____    ______ ____
ROOT
ATOM      1  C   UNL     1       4.016   4.925  17.243  0.00  0.00    +0.000 C 
ATOM      2  S   UNL     1       3.570   6.456  17.811  0.00  0.00    +0.000 S 
ENDROOT
BRANCH   1   3
ATOM      3  N   UNL     1       5.049   4.788  16.306  0.00  0.00    +0.000 N 
ATOM      4  N   UNL     1       5.218   3.583  15.650  0.00  0.00    +0.000 NA
ATOM      5  C   UNL     1       6.197   3.724  14.821  0.00  0.00    +0.000 C 
ATOM      6  C   UNL     1       6.872   5.049  14.813  0.00  0.00    +0.000 C 
ATOM      7  C   UNL     1       6.030   5.797  15.848  0.00  0.00    +0.000 C 
BRANCH   7   8
ATOM      8  C   UNL     1       6.899   6.303  16.987  0.00  0.00    +0.000 A 
ATOM      9  C   UNL     1       7.277   5.448  18.031  0.00  0.00    +0.000 A 
ATOM     10  C   UNL     1       8.058   5.925  19.086  0.00  0.00    +0.000 A 
ATOM     11  C   UNL     1       8.463   7.262  19.115  0.00  0.00    +0.000 A 
ATOM     12  C   UNL     1       8.092   8.121  18.086  0.00  0.00    +0.000 A 
ATOM     13  C   UNL     1       7.322   7.645  17.025  0.00  0.00    +0.000 A 
ENDBRANCH   7   8
ENDBRANCH   1   3
BRANCH   1  14
ATOM     14  N   UNL     1       3.392   3.728  17.602  0.00  0.00    +0.000 N 
ATOM     15  H   UNL     1       3.264   3.062  16.854  0.00  0.00    +0.000 HD
BRANCH  14  20
ATOM     16  F   UNL     1       0.863   2.461  22.391  0.00  0.00    +0.000 F 
ATOM     17  C   UNL     1       1.461   2.787  21.239  0.00  0.00    +0.000 A 
ATOM     18  C   UNL     1       2.841   2.665  21.120  0.00  0.00    +0.000 A 
ATOM     19  C   UNL     1       3.471   2.998  19.912  0.00  0.00    +0.000 A 
ATOM     20  C   UNL     1       2.714   3.426  18.812  0.00  0.00    +0.000 A 
ATOM     21  C   UNL     1       1.330   3.583  18.973  0.00  0.00    +0.000 A 
ATOM     22  C   UNL     1       0.701   3.251  20.177  0.00  0.00    +0.000 A 
ENDBRANCH  14  20
ENDBRANCH   1  14
TORSDOF 4
ENDMDL
MODEL 9
REMARK VINA RESULT:      -6.4      3.035      5.294
REMARK  Name = 
REMARK  4 active torsions:
REMARK  status: ('A' for Active; 'I' for Inactive)
REMARK    1  A    between atoms: C_5  and  N_6
REMARK    2  A    between atoms: N_6  and  C_7
REMARK    3  A    between atoms: C_7  and  N_9
REMARK    4  A    between atoms: C_13  and  C_14
REMARK                            x       y       z     vdW  Elec       q    Type
REMARK                         _______ _______ _______ _____ _____    ______ ____
ROOT
ATOM      1  C   UNL     1       2.919   5.131  19.874  0.00  0.00    +0.000 C 
ATOM      2  S   UNL     1       2.127   4.359  21.156  0.00  0.00    +0.000 S 
ENDROOT
BRANCH   1   3
ATOM      3  N   UNL     1       3.355   4.397  18.763  0.00  0.00    +0.000 N 
ATOM      4  N   UNL     1       3.140   3.032  18.723  0.00  0.00    +0.000 NA
ATOM      5  C   UNL     1       3.590   2.598  17.594  0.00  0.00    +0.000 C 
ATOM      6  C   UNL     1       4.216   3.609  16.700  0.00  0.00    +0.000 C 
ATOM      7  C   UNL     1       4.016   4.877  17.530  0.00  0.00    +0.000 C 
BRANCH   7   8
ATOM      8  C   UNL     1       5.348   5.547  17.823  0.00  0.00    +0.000 A 
ATOM      9  C   UNL     1       6.211   5.024  18.797  0.00  0.00    +0.000 A 
ATOM     10  C   UNL     1       7.424   5.655  19.076  0.00  0.00    +0.000 A 
ATOM     11  C   UNL     1       7.786   6.821  18.396  0.00  0.00    +0.000 A 
ATOM     12  C   UNL     1       6.937   7.351  17.430  0.00  0.00    +0.000 A 
ATOM     13  C   UNL     1       5.730   6.716  17.139  0.00  0.00    +0.000 A 
ENDBRANCH   7   8
ENDBRANCH   1   3
BRANCH   1  14
ATOM     14  N   UNL     1       3.235   6.491  19.835  0.00  0.00    +0.000 N 
ATOM     15  H   UNL     1       4.101   6.749  20.283  0.00  0.00    +0.000 HD
BRANCH  14  20
ATOM     16  F   UNL     1      -0.140  10.703  18.493  0.00  0.00    +0.000 F 
ATOM     17  C   UNL     1       0.690   9.701  18.806  0.00  0.00    +0.000 A 
ATOM     18  C   UNL     1       0.749   9.239  20.117  0.00  0.00    +0.000 A 
ATOM     19  C   UNL     1       1.611   8.184  20.447  0.00  0.00    +0.000 A 
ATOM     20  C   UNL     1       2.395   7.572  19.459  0.00  0.00    +0.000 A 
ATOM     21  C   UNL     1       2.350   8.086  18.155  0.00  0.00    +0.000 A 
ATOM     22  C   UNL     1       1.489   9.138  17.824  0.00  0.00    +0.000 A 
ENDBRANCH  14  20
ENDBRANCH   1  14
TORSDOF 4
ENDMDL
