MODEL 1
REMARK VINA RESULT:      -6.7      0.000      0.000
REMARK  Name = 
REMARK  2 active torsions:
REMARK  status: ('A' for Active; 'I' for Inactive)
REMARK    1  A    between atoms: N_11  and  C_12
REMARK    2  A    between atoms: C_12  and  C_13
REMARK                            x       y       z     vdW  Elec       q    Type
REMARK                         _______ _______ _______ _____ _____    ______ ____
ROOT
ATOM      1  C   UNL     1       0.830  12.559  19.342  0.00  0.00    +0.000 C 
ATOM      2  C   UNL     1      -0.495  12.732  19.243  0.00  0.00    +0.000 C 
ATOM      3  C   UNL     1      -1.217  11.705  18.592  0.00  0.00    +0.000 A 
ATOM      4  S   UNL     1      -2.893  11.730  18.323  0.00  0.00    +0.000 S 
ATOM      5  C   UNL     1      -2.868  10.159  17.646  0.00  0.00    +0.000 A 
ATOM      6  C   UNL     1      -1.575   9.645  17.583  0.00  0.00    +0.000 A 
ATOM      7  C   UNL     1      -0.629  10.524  18.188  0.00  0.00    +0.000 A 
ATOM      8  C   UNL     1       0.797  10.206  18.653  0.00  0.00    +0.000 C 
ATOM      9  C   UNL     1       0.627   9.513  20.020  0.00  0.00    +0.000 C 
ATOM     10  C   UNL     1       1.605   8.417  20.391  0.00  0.00    +0.000 C 
ATOM     11  N   UNL     1       2.234   7.622  19.373  0.00  0.00    +0.000 NA
ATOM     12  C   UNL     1       2.660   8.445  18.238  0.00  0.00    +0.000 C 
ATOM     13  C   UNL     1       1.594   9.375  17.634  0.00  0.00    +0.000 C 
ATOM     14  O   UNL     1       1.553  11.447  18.921  0.00  0.00    +0.000 OA
ENDROOT
BRANCH  11  15
ATOM     15  C   UNL     1       1.653   6.312  19.074  0.00  0.00    +0.000 C 
BRANCH  15  16
ATOM     16  C   UNL     1       2.444   4.943  19.230  0.00  0.00    +0.000 C 
ATOM     17  C   UNL     1       2.522   4.347  20.645  0.00  0.00    +0.000 C 
ATOM     18  C   UNL     1       1.426   3.340  20.965  0.00  0.00    +0.000 C 
ATOM     19  C   UNL     1       1.436   2.171  19.991  0.00  0.00    +0.000 C 
ATOM     20  C   UNL     1       1.372   2.607  18.533  0.00  0.00    +0.000 C 
ATOM     21  C   UNL     1       2.224   3.836  18.163  0.00  0.00    +0.000 C 
ENDBRANCH  15  16
ENDBRANCH  11  15
TORSDOF 2
ENDMDL
MODEL 2
REMARK VINA RESULT:      -6.6      0.946      1.476
REMARK  Name = 
REMARK  2 active torsions:
REMARK  status: ('A' for Active; 'I' for Inactive)
REMARK    1  A    between atoms: N_11  and  C_12
REMARK    2  A    between atoms: C_12  and  C_13
REMARK                            x       y       z     vdW  Elec       q    Type
REMARK                         _______ _______ _______ _____ _____    ______ ____
ROOT
ATOM      1  C   UNL     1       1.110  12.109  19.980  0.00  0.00    +0.000 C 
ATOM      2  C   UNL     1      -0.213  12.308  19.912  0.00  0.00    +0.000 C 
ATOM      3  C   UNL     1      -0.934  11.453  19.046  0.00  0.00    +0.000 A 
ATOM      4  S   UNL     1      -2.607  11.548  18.776  0.00  0.00    +0.000 S 
ATOM      5  C   UNL     1      -2.584  10.163  17.771  0.00  0.00    +0.000 A 
ATOM      6  C   UNL     1      -1.293   9.667  17.607  0.00  0.00    +0.000 A 
ATOM      7  C   UNL     1      -0.348  10.386  18.397  0.00  0.00    +0.000 A 
ATOM      8  C   UNL     1       1.072   9.965  18.791  0.00  0.00    +0.000 C 
ATOM      9  C   UNL     1       0.888   8.990  19.972  0.00  0.00    +0.000 C 
ATOM     10  C   UNL     1       1.857   7.833  20.101  0.00  0.00    +0.000 C 
ATOM     11  N   UNL     1       2.491   7.277  18.939  0.00  0.00    +0.000 NA
ATOM     12  C   UNL     1       2.931   8.326  18.014  0.00  0.00    +0.000 C 
ATOM     13  C   UNL     1       1.875   9.372  17.621  0.00  0.00    +0.000 C 
ATOM     14  O   UNL     1       1.832  11.112  19.331  0.00  0.00    +0.000 OA
ENDROOT
BRANCH  11  15
ATOM     15  C   UNL     1       1.907   6.068  18.356  0.00  0.00    +0.000 C 
BRANCH  15  16
ATOM     16  C   UNL     1       1.897   4.656  19.085  0.00  0.00    +0.000 C 
ATOM     17  C   UNL     1       1.389   3.459  18.264  0.00  0.00    +0.000 C 
ATOM     18  C   UNL     1       2.480   2.681  17.543  0.00  0.00    +0.000 C 
ATOM     19  C   UNL     1       3.521   2.143  18.514  0.00  0.00    +0.000 C 
ATOM     20  C   UNL     1       4.116   3.221  19.411  0.00  0.00    +0.000 C 
ATOM     21  C   UNL     1       3.121   4.264  19.956  0.00  0.00    +0.000 C 
ENDBRANCH  15  16
ENDBRANCH  11  15
TORSDOF 2
ENDMDL
MODEL 3
REMARK VINA RESULT:      -6.6      1.021      1.199
REMARK  Name = 
REMARK  2 active torsions:
REMARK  status: ('A' for Active; 'I' for Inactive)
REMARK    1  A    between atoms: N_11  and  C_12
REMARK    2  A    between atoms: C_12  and  C_13
REMARK                            x       y       z     vdW  Elec       q    Type
REMARK                         _______ _______ _______ _____ _____    ______ ____
ROOT
ATOM      1  C   UNL     1      -0.214  12.801  19.938  0.00  0.00    +0.000 C 
ATOM      2  C   UNL     1      -1.485  12.861  19.519  0.00  0.00    +0.000 C 
ATOM      3  C   UNL     1      -1.974  11.727  18.830  0.00  0.00    +0.000 A 
ATOM      4  S   UNL     1      -3.538  11.598  18.181  0.00  0.00    +0.000 S 
ATOM      5  C   UNL     1      -3.267   9.980  17.695  0.00  0.00    +0.000 A 
ATOM      6  C   UNL     1      -1.970   9.564  17.986  0.00  0.00    +0.000 A 
ATOM      7  C   UNL     1      -1.244  10.565  18.698  0.00  0.00    +0.000 A 
ATOM      8  C   UNL     1       0.047  10.401  19.509  0.00  0.00    +0.000 C 
ATOM      9  C   UNL     1      -0.403   9.821  20.865  0.00  0.00    +0.000 C 
ATOM     10  C   UNL     1       0.517   8.841  21.563  0.00  0.00    +0.000 C 
ATOM     11  N   UNL     1       1.412   8.010  20.807  0.00  0.00    +0.000 NA
ATOM     12  C   UNL     1       2.049   8.761  19.720  0.00  0.00    +0.000 C 
ATOM     13  C   UNL     1       1.108   9.547  18.794  0.00  0.00    +0.000 C 
ATOM     14  O   UNL     1       0.649  11.716  19.813  0.00  0.00    +0.000 OA
ENDROOT
BRANCH  11  15
ATOM     15  C   UNL     1       0.991   6.638  20.521  0.00  0.00    +0.000 C 
BRANCH  15  16
ATOM     16  C   UNL     1       1.994   5.481  20.094  0.00  0.00    +0.000 C 
ATOM     17  C   UNL     1       1.929   4.178  20.906  0.00  0.00    +0.000 C 
ATOM     18  C   UNL     1       1.012   3.114  20.319  0.00  0.00    +0.000 C 
ATOM     19  C   UNL     1       1.428   2.735  18.905  0.00  0.00    +0.000 C 
ATOM     20  C   UNL     1       1.544   3.935  17.973  0.00  0.00    +0.000 C 
ATOM     21  C   UNL     1       2.192   5.194  18.581  0.00  0.00    +0.000 C 
ENDBRANCH  15  16
ENDBRANCH  11  15
TORSDOF 2
ENDMDL
MODEL 4
REMARK VINA RESULT:      -6.5      4.682      7.010
REMARK  Name = 
REMARK  2 active torsions:
REMARK  status: ('A' for Active; 'I' for Inactive)
REMARK    1  A    between atoms: N_11  and  C_12
REMARK    2  A    between atoms: C_12  and  C_13
REMARK                            x       y       z     vdW  Elec       q    Type
REMARK                         _______ _______ _______ _____ _____    ______ ____
ROOT
ATOM      1  C   UNL     1       2.210   5.106  21.202  0.00  0.00    +0.000 C 
ATOM      2  C   UNL     1       2.004   3.788  21.081  0.00  0.00    +0.000 C 
ATOM      3  C   UNL     1       2.029   3.264  19.768  0.00  0.00    +0.000 A 
ATOM      4  S   UNL     1       1.758   1.634  19.377  0.00  0.00    +0.000 S 
ATOM      5  C   UNL     1       2.083   1.915  17.721  0.00  0.00    +0.000 A 
ATOM      6  C   UNL     1       2.348   3.259  17.468  0.00  0.00    +0.000 A 
ATOM      7  C   UNL     1       2.372   4.026  18.670  0.00  0.00    +0.000 A 
ATOM      8  C   UNL     1       2.964   5.423  18.890  0.00  0.00    +0.000 C 
ATOM      9  C   UNL     1       4.481   5.194  19.054  0.00  0.00    +0.000 C 
ATOM     10  C   UNL     1       5.424   6.249  18.515  0.00  0.00    +0.000 C 
ATOM     11  N   UNL     1       5.044   7.071  17.400  0.00  0.00    +0.000 NA
ATOM     12  C   UNL     1       3.651   7.514  17.512  0.00  0.00    +0.000 C 
ATOM     13  C   UNL     1       2.607   6.415  17.771  0.00  0.00    +0.000 C 
ATOM     14  O   UNL     1       2.503   5.995  20.172  0.00  0.00    +0.000 OA
ENDROOT
BRANCH  11  15
ATOM     15  C   UNL     1       5.523   6.683  16.072  0.00  0.00    +0.000 C 
BRANCH  15  16
ATOM     16  C   UNL     1       6.185   5.275  15.752  0.00  0.00    +0.000 C 
ATOM     17  C   UNL     1       5.233   4.143  15.333  0.00  0.00    +0.000 C 
ATOM     18  C   UNL     1       5.048   3.999  13.829  0.00  0.00    +0.000 C 
ATOM     19  C   UNL     1       6.373   3.748  13.124  0.00  0.00    +0.000 C 
ATOM     20  C   UNL     1       7.432   4.792  13.449  0.00  0.00    +0.000 C 
ATOM     21  C   UNL     1       7.496   5.245  14.921  0.00  0.00    +0.000 C 
ENDBRANCH  15  16
ENDBRANCH  11  15
TORSDOF 2
ENDMDL
MODEL 5
REMARK VINA RESULT:      -6.4      5.245      7.397
REMARK  Name = 
REMARK  2 active torsions:
REMARK  status: ('A' for Active; 'I' for Inactive)
REMARK    1  A    between atoms: N_11  and  C_12
REMARK    2  A    between atoms: C_12  and  C_13
REMARK                            x       y       z     vdW  Elec       q    Type
REMARK                         _______ _______ _______ _____ _____    ______ ____
ROOT
ATOM      1  C   UNL     1       2.622   5.587  20.746  0.00  0.00    +0.000 C 
ATOM      2  C   UNL     1       1.994   4.403  20.743  0.00  0.00    +0.000 C 
ATOM      3  C   UNL     1       2.017   3.682  19.527  0.00  0.00    +0.000 A 
ATOM      4  S   UNL     1       1.258   2.182  19.285  0.00  0.00    +0.000 S 
ATOM      5  C   UNL     1       1.882   2.056  17.696  0.00  0.00    +0.000 A 
ATOM      6  C   UNL     1       2.624   3.181  17.343  0.00  0.00    +0.000 A 
ATOM      7  C   UNL     1       2.746   4.094  18.431  0.00  0.00    +0.000 A 
ATOM      8  C   UNL     1       3.745   5.245  18.594  0.00  0.00    +0.000 C 
ATOM      9  C   UNL     1       5.054   4.576  19.061  0.00  0.00    +0.000 C 
ATOM     10  C   UNL     1       6.366   5.167  18.588  0.00  0.00    +0.000 C 
ATOM     11  N   UNL     1       6.447   5.863  17.334  0.00  0.00    +0.000 NA
ATOM     12  C   UNL     1       5.289   6.739  17.133  0.00  0.00    +0.000 C 
ATOM     13  C   UNL     1       3.906   6.093  17.320  0.00  0.00    +0.000 C 
ATOM     14  O   UNL     1       3.339   6.146  19.693  0.00  0.00    +0.000 OA
ENDROOT
BRANCH  11  15
ATOM     15  C   UNL     1       6.939   5.121  16.172  0.00  0.00    +0.000 C 
BRANCH  15  16
ATOM     16  C   UNL     1       6.383   5.325  14.698  0.00  0.00    +0.000 C 
ATOM     17  C   UNL     1       7.396   5.781  13.635  0.00  0.00    +0.000 C 
ATOM     18  C   UNL     1       8.043   4.647  12.854  0.00  0.00    +0.000 C 
ATOM     19  C   UNL     1       7.004   3.795  12.139  0.00  0.00    +0.000 C 
ATOM     20  C   UNL     1       5.917   3.271  13.068  0.00  0.00    +0.000 C 
ATOM     21  C   UNL     1       5.401   4.268  14.124  0.00  0.00    +0.000 C 
ENDBRANCH  15  16
ENDBRANCH  11  15
TORSDOF 2
ENDMDL
MODEL 6
REMARK VINA RESULT:      -6.4      1.112      1.529
REMARK  Name = 
REMARK  2 active torsions:
REMARK  status: ('A' for Active; 'I' for Inactive)
REMARK    1  A    between atoms: N_11  and  C_12
REMARK    2  A    between atoms: C_12  and  C_13
REMARK                            x       y       z     vdW  Elec       q    Type
REMARK                         _______ _______ _______ _____ _____    ______ ____
ROOT
ATOM      1  C   UNL     1       0.520  12.398  19.986  0.00  0.00    +0.000 C 
ATOM      2  C   UNL     1      -0.807  12.498  19.833  0.00  0.00    +0.000 C 
ATOM      3  C   UNL     1      -1.406  11.591  18.927  0.00  0.00    +0.000 A 
ATOM      4  S   UNL     1      -3.061  11.561  18.551  0.00  0.00    +0.000 S 
ATOM      5  C   UNL     1      -2.870  10.181  17.557  0.00  0.00    +0.000 A 
ATOM      6  C   UNL     1      -1.538   9.782  17.478  0.00  0.00    +0.000 A 
ATOM      7  C   UNL     1      -0.702  10.570  18.323  0.00  0.00    +0.000 A 
ATOM      8  C   UNL     1       0.717  10.257  18.809  0.00  0.00    +0.000 C 
ATOM      9  C   UNL     1       0.530   9.271  19.981  0.00  0.00    +0.000 C 
ATOM     10  C   UNL     1       1.573   8.190  20.178  0.00  0.00    +0.000 C 
ATOM     11  N   UNL     1       2.320   7.681  19.062  0.00  0.00    +0.000 NA
ATOM     12  C   UNL     1       2.739   8.760  18.162  0.00  0.00    +0.000 C 
ATOM     13  C   UNL     1       1.635   9.724  17.696  0.00  0.00    +0.000 C 
ATOM     14  O   UNL     1       1.354  11.457  19.390  0.00  0.00    +0.000 OA
ENDROOT
BRANCH  11  15
ATOM     15  C   UNL     1       1.866   6.432  18.449  0.00  0.00    +0.000 C 
BRANCH  15  16
ATOM     16  C   UNL     1       2.849   5.343  17.839  0.00  0.00    +0.000 C 
ATOM     17  C   UNL     1       4.351   5.550  18.093  0.00  0.00    +0.000 C 
ATOM     18  C   UNL     1       4.888   4.830  19.322  0.00  0.00    +0.000 C 
ATOM     19  C   UNL     1       4.655   3.329  19.238  0.00  0.00    +0.000 C 
ATOM     20  C   UNL     1       3.199   2.962  18.980  0.00  0.00    +0.000 C 
ATOM     21  C   UNL     1       2.458   3.844  17.957  0.00  0.00    +0.000 C 
ENDBRANCH  15  16
ENDBRANCH  11  15
TORSDOF 2
ENDMDL
MODEL 7
REMARK VINA RESULT:      -6.3      1.160      2.038
REMARK  Name = 
REMARK  2 active torsions:
REMARK  status: ('A' for Active; 'I' for Inactive)
REMARK    1  A    between atoms: N_11  and  C_12
REMARK    2  A    between atoms: C_12  and  C_13
REMARK                            x       y       z     vdW  Elec       q    Type
REMARK                         _______ _______ _______ _____ _____    ______ ____
ROOT
ATOM      1  C   UNL     1       1.011  12.385  19.334  0.00  0.00    +0.000 C 
ATOM      2  C   UNL     1      -0.312  12.582  19.263  0.00  0.00    +0.000 C 
ATOM      3  C   UNL     1      -1.066  11.572  18.621  0.00  0.00    +0.000 A 
ATOM      4  S   UNL     1      -2.746  11.629  18.386  0.00  0.00    +0.000 S 
ATOM      5  C   UNL     1      -2.763  10.061  17.700  0.00  0.00    +0.000 A 
ATOM      6  C   UNL     1      -1.481   9.524  17.609  0.00  0.00    +0.000 A 
ATOM      7  C   UNL     1      -0.508  10.383  18.199  0.00  0.00    +0.000 A 
ATOM      8  C   UNL     1       0.921  10.037  18.633  0.00  0.00    +0.000 C 
ATOM      9  C   UNL     1       0.767   9.340  20.000  0.00  0.00    +0.000 C 
ATOM     10  C   UNL     1       1.732   8.224  20.346  0.00  0.00    +0.000 C 
ATOM     11  N   UNL     1       2.325   7.423  19.312  0.00  0.00    +0.000 NA
ATOM     12  C   UNL     1       2.744   8.245  18.172  0.00  0.00    +0.000 C 
ATOM     13  C   UNL     1       1.683   9.197  17.595  0.00  0.00    +0.000 C 
ATOM     14  O   UNL     1       1.705  11.263  18.893  0.00  0.00    +0.000 OA
ENDROOT
BRANCH  11  15
ATOM     15  C   UNL     1       1.715   6.126  19.018  0.00  0.00    +0.000 C 
BRANCH  15  16
ATOM     16  C   UNL     1       2.543   4.778  18.869  0.00  0.00    +0.000 C 
ATOM     17  C   UNL     1       2.856   4.315  17.437  0.00  0.00    +0.000 C 
ATOM     18  C   UNL     1       4.201   4.784  16.902  0.00  0.00    +0.000 C 
ATOM     19  C   UNL     1       5.349   4.311  17.782  0.00  0.00    +0.000 C 
ATOM     20  C   UNL     1       5.178   4.691  19.247  0.00  0.00    +0.000 C 
ATOM     21  C   UNL     1       3.753   4.544  19.814  0.00  0.00    +0.000 C 
ENDBRANCH  15  16
ENDBRANCH  11  15
TORSDOF 2
ENDMDL
MODEL 8
REMARK VINA RESULT:      -6.3      4.524      6.544
REMARK  Name = 
REMARK  2 active torsions:
REMARK  status: ('A' for Active; 'I' for Inactive)
REMARK    1  A    between atoms: N_11  and  C_12
REMARK    2  A    between atoms: C_12  and  C_13
REMARK                            x       y       z     vdW  Elec       q    Type
REMARK                         _______ _______ _______ _____ _____    ______ ____
ROOT
ATOM      1  C   UNL     1       2.117   5.540  20.889  0.00  0.00    +0.000 C 
ATOM      2  C   UNL     1       1.401   6.648  20.659  0.00  0.00    +0.000 C 
ATOM      3  C   UNL     1       1.862   7.492  19.622  0.00  0.00    +0.000 A 
ATOM      4  S   UNL     1       1.135   8.962  19.184  0.00  0.00    +0.000 S 
ATOM      5  C   UNL     1       2.220   9.179  17.879  0.00  0.00    +0.000 A 
ATOM      6  C   UNL     1       3.162   8.154  17.816  0.00  0.00    +0.000 A 
ATOM      7  C   UNL     1       2.912   7.149  18.796  0.00  0.00    +0.000 A 
ATOM      8  C   UNL     1       3.459   5.717  18.845  0.00  0.00    +0.000 C 
ATOM      9  C   UNL     1       2.580   4.919  17.860  0.00  0.00    +0.000 C 
ATOM     10  C   UNL     1       3.230   3.802  17.068  0.00  0.00    +0.000 C 
ATOM     11  N   UNL     1       4.627   3.852  16.742  0.00  0.00    +0.000 NA
ATOM     12  C   UNL     1       5.425   4.323  17.878  0.00  0.00    +0.000 C 
ATOM     13  C   UNL     1       4.963   5.633  18.538  0.00  0.00    +0.000 C 
ATOM     14  O   UNL     1       3.229   5.110  20.172  0.00  0.00    +0.000 OA
ENDROOT
BRANCH  11  15
ATOM     15  C   UNL     1       5.001   4.335  15.412  0.00  0.00    +0.000 C 
BRANCH  15  16
ATOM     16  C   UNL     1       6.287   3.835  14.624  0.00  0.00    +0.000 C 
ATOM     17  C   UNL     1       6.040   3.004  13.355  0.00  0.00    +0.000 C 
ATOM     18  C   UNL     1       6.003   3.815  12.067  0.00  0.00    +0.000 C 
ATOM     19  C   UNL     1       7.300   4.580  11.850  0.00  0.00    +0.000 C 
ATOM     20  C   UNL     1       7.687   5.452  13.038  0.00  0.00    +0.000 C 
ATOM     21  C   UNL     1       7.467   4.826  14.428  0.00  0.00    +0.000 C 
ENDBRANCH  15  16
ENDBRANCH  11  15
TORSDOF 2
ENDMDL
MODEL 9
REMARK VINA RESULT:      -6.3      5.877      9.113
REMARK  Name = 
REMARK  2 active torsions:
REMARK  status: ('A' for Active; 'I' for Inactive)
REMARK    1  A    between atoms: N_11  and  C_12
REMARK    2  A    between atoms: C_12  and  C_13
REMARK                            x       y       z     vdW  Elec       q    Type
REMARK                         _______ _______ _______ _____ _____    ______ ____
ROOT
ATOM      1  C   UNL     1      -3.435  10.184  15.982  0.00  0.00    +0.000 C 
ATOM      2  C   UNL     1      -2.335  10.009  16.727  0.00  0.00    +0.000 C 
ATOM      3  C   UNL     1      -2.222  10.817  17.882  0.00  0.00    +0.000 A 
ATOM      4  S   UNL     1      -0.901  10.791  18.948  0.00  0.00    +0.000 S 
ATOM      5  C   UNL     1      -1.652  11.911  20.001  0.00  0.00    +0.000 A 
ATOM      6  C   UNL     1      -2.884  12.335  19.509  0.00  0.00    +0.000 A 
ATOM      7  C   UNL     1      -3.234  11.652  18.307  0.00  0.00    +0.000 A 
ATOM      8  C   UNL     1      -4.613  11.544  17.647  0.00  0.00    +0.000 C 
ATOM      9  C   UNL     1      -5.351  10.445  18.439  0.00  0.00    +0.000 C 
ATOM     10  C   UNL     1      -6.846  10.590  18.638  0.00  0.00    +0.000 C 
ATOM     11  N   UNL     1      -7.457  11.889  18.676  0.00  0.00    +0.000 NA
ATOM     12  C   UNL     1      -6.902  12.772  17.646  0.00  0.00    +0.000 C 
ATOM     13  C   UNL     1      -5.369  12.883  17.599  0.00  0.00    +0.000 C 
ATOM     14  O   UNL     1      -4.498  11.035  16.264  0.00  0.00    +0.000 OA
ENDROOT
BRANCH  11  15
ATOM     15  C   UNL     1      -7.732  12.476  19.989  0.00  0.00    +0.000 C 
BRANCH  15  16
ATOM     16  C   UNL     1      -7.050  11.979  21.335  0.00  0.00    +0.000 C 
ATOM     17  C   UNL     1      -5.643  12.521  21.637  0.00  0.00    +0.000 C 
ATOM     18  C   UNL     1      -5.623  13.772  22.505  0.00  0.00    +0.000 C 
ATOM     19  C   UNL     1      -6.304  13.534  23.845  0.00  0.00    +0.000 C 
ATOM     20  C   UNL     1      -7.718  12.984  23.709  0.00  0.00    +0.000 C 
ATOM     21  C   UNL     1      -7.916  11.910  22.622  0.00  0.00    +0.000 C 
ENDBRANCH  15  16
ENDBRANCH  11  15
TORSDOF 2
ENDMDL
