MODEL 1
REMARK VINA RESULT:      -7.2      0.000      0.000
REMARK  Name = 
REMARK  8 active torsions:
REMARK  status: ('A' for Active; 'I' for Inactive)
REMARK    1  A    between atoms: C_1  and  C_2
REMARK    2  A    between atoms: C_2  and  C_3
REMARK    3  A    between atoms: C_2  and  C_4
REMARK    4  A    between atoms: C_4  and  C_5
REMARK    5  A    between atoms: C_4  and  N_16
REMARK    6  A    between atoms: N_9  and  C_10
REMARK    7  A    between atoms: C_10  and  C_11
REMARK    8  A    between atoms: N_19  and  C_20
REMARK                            x       y       z     vdW  Elec       q    Type
REMARK                         _______ _______ _______ _____ _____    ______ ____
ROOT
ATOM      1  C   UNL     1       4.647   4.100  18.282  0.00  0.00    +0.000 C 
ENDROOT
BRANCH   1   2
ATOM      2  N   UNL     1       4.255   5.345  18.959  0.00  0.00    +0.000 NA
ATOM      3  C   UNL     1       4.194   6.639  18.321  0.00  0.00    +0.000 C 
ATOM      4  C   UNL     1       2.746   7.027  17.974  0.00  0.00    +0.000 C 
ATOM      5  N   UNL     1       1.797   7.009  19.112  0.00  0.00    +0.000 NA
ATOM      6  C   UNL     1       1.953   5.756  19.885  0.00  0.00    +0.000 C 
ATOM      7  C   UNL     1       3.403   5.288  20.149  0.00  0.00    +0.000 C 
BRANCH   5   8
ATOM      8  C   UNL     1       1.823   8.233  19.929  0.00  0.00    +0.000 C 
ATOM      9  C   UNL     1       1.084   9.398  19.251  0.00  0.00    +0.000 C 
ATOM     10  C   UNL     1       0.817  10.383  20.376  0.00  0.00    +0.000 C 
ATOM     11  C   UNL     1       0.543   9.521  21.597  0.00  0.00    +0.000 C 
ATOM     12  C   UNL     1       1.051   8.118  21.260  0.00  0.00    +0.000 C 
ENDBRANCH   5   8
ENDBRANCH   1   2
BRANCH   1  13
ATOM     13  C   UNL     1       6.014   4.292  17.653  0.00  0.00    +0.000 A 
ATOM     14  N   UNL     1       7.141   4.220  18.348  0.00  0.00    +0.000 NA
ATOM     15  N   UNL     1       8.160   4.572  17.508  0.00  0.00    +0.000 NA
ATOM     16  N   UNL     1       7.698   4.852  16.307  0.00  0.00    +0.000 NA
ATOM     17  N   UNL     1       6.365   4.681  16.385  0.00  0.00    +0.000 N 
BRANCH  17  18
ATOM     18  C   UNL     1       5.615   4.727  15.151  0.00  0.00    +0.000 C 
BRANCH  18  19
ATOM     19  C   UNL     1       5.986   3.761  14.036  0.00  0.00    +0.000 C 
ATOM     20  C   UNL     1       7.021   4.294  13.065  0.00  0.00    +0.000 C 
ATOM     21  C   UNL     1       6.674   3.581  11.782  0.00  0.00    +0.000 C 
ATOM     22  C   UNL     1       5.177   3.368  11.875  0.00  0.00    +0.000 C 
ATOM     23  O   UNL     1       4.796   3.552  13.242  0.00  0.00    +0.000 OA
ENDBRANCH  18  19
ENDBRANCH  17  18
ENDBRANCH   1  13
BRANCH   1  25
ATOM     24  C   UNL     1       3.518   1.739  18.376  0.00  0.00    +0.000 C 
ATOM     25  C   UNL     1       3.675   3.054  17.594  0.00  0.00    +0.000 C 
ATOM     26  C   UNL     1       2.272   3.426  17.114  0.00  0.00    +0.000 C 
ENDBRANCH   1  25
TORSDOF 6
ENDMDL
MODEL 2
REMARK VINA RESULT:      -7.2      2.375      3.419
REMARK  Name = 
REMARK  8 active torsions:
REMARK  status: ('A' for Active; 'I' for Inactive)
REMARK    1  A    between atoms: C_1  and  C_2
REMARK    2  A    between atoms: C_2  and  C_3
REMARK    3  A    between atoms: C_2  and  C_4
REMARK    4  A    between atoms: C_4  and  C_5
REMARK    5  A    between atoms: C_4  and  N_16
REMARK    6  A    between atoms: N_9  and  C_10
REMARK    7  A    between atoms: C_10  and  C_11
REMARK    8  A    between atoms: N_19  and  C_20
REMARK                            x       y       z     vdW  Elec       q    Type
REMARK                         _______ _______ _______ _____ _____    ______ ____
ROOT
ATOM      1  C   UNL     1       4.550   3.996  17.840  0.00  0.00    +0.000 C 
ENDROOT
BRANCH   1   2
ATOM      2  N   UNL     1       4.238   5.286  18.472  0.00  0.00    +0.000 NA
ATOM      3  C   UNL     1       3.799   6.462  17.759  0.00  0.00    +0.000 C 
ATOM      4  C   UNL     1       2.280   6.664  17.888  0.00  0.00    +0.000 C 
ATOM      5  N   UNL     1       1.766   6.727  19.277  0.00  0.00    +0.000 NA
ATOM      6  C   UNL     1       2.333   5.619  20.079  0.00  0.00    +0.000 C 
ATOM      7  C   UNL     1       3.838   5.327  19.881  0.00  0.00    +0.000 C 
BRANCH   5   8
ATOM      8  C   UNL     1       1.894   8.055  19.898  0.00  0.00    +0.000 C 
ATOM      9  C   UNL     1       1.278   9.164  19.030  0.00  0.00    +0.000 C 
ATOM     10  C   UNL     1       1.087  10.330  19.984  0.00  0.00    +0.000 C 
ATOM     11  C   UNL     1       0.714   9.695  21.313  0.00  0.00    +0.000 C 
ATOM     12  C   UNL     1       1.094   8.216  21.208  0.00  0.00    +0.000 C 
ENDBRANCH   5   8
ENDBRANCH   1   2
BRANCH   1  13
ATOM     13  C   UNL     1       5.562   4.223  16.733  0.00  0.00    +0.000 A 
ATOM     14  N   UNL     1       5.310   3.946  15.461  0.00  0.00    +0.000 NA
ATOM     15  N   UNL     1       6.470   4.140  14.765  0.00  0.00    +0.000 NA
ATOM     16  N   UNL     1       7.434   4.539  15.569  0.00  0.00    +0.000 NA
ATOM     17  N   UNL     1       6.881   4.594  16.794  0.00  0.00    +0.000 N 
BRANCH  17  18
ATOM     18  C   UNL     1       7.662   5.198  17.850  0.00  0.00    +0.000 C 
BRANCH  18  19
ATOM     19  C   UNL     1       7.382   6.644  18.228  0.00  0.00    +0.000 C 
ATOM     20  C   UNL     1       7.306   7.596  17.051  0.00  0.00    +0.000 C 
ATOM     21  C   UNL     1       7.761   8.904  17.649  0.00  0.00    +0.000 C 
ATOM     22  C   UNL     1       8.725   8.491  18.743  0.00  0.00    +0.000 C 
ATOM     23  O   UNL     1       8.506   7.103  19.014  0.00  0.00    +0.000 OA
ENDBRANCH  18  19
ENDBRANCH  17  18
ENDBRANCH   1  13
BRANCH   1  25
ATOM     24  C   UNL     1       3.802   1.641  18.707  0.00  0.00    +0.000 C 
ATOM     25  C   UNL     1       3.569   2.762  17.681  0.00  0.00    +0.000 C 
ATOM     26  C   UNL     1       2.052   2.924  17.576  0.00  0.00    +0.000 C 
ENDBRANCH   1  25
TORSDOF 6
ENDMDL
MODEL 3
REMARK VINA RESULT:      -7.1      0.874      1.090
REMARK  Name = 
REMARK  8 active torsions:
REMARK  status: ('A' for Active; 'I' for Inactive)
REMARK    1  A    between atoms: C_1  and  C_2
REMARK    2  A    between atoms: C_2  and  C_3
REMARK    3  A    between atoms: C_2  and  C_4
REMARK    4  A    between atoms: C_4  and  C_5
REMARK    5  A    between atoms: C_4  and  N_16
REMARK    6  A    between atoms: N_9  and  C_10
REMARK    7  A    between atoms: C_10  and  C_11
REMARK    8  A    between atoms: N_19  and  C_20
REMARK                            x       y       z     vdW  Elec       q    Type
REMARK                         _______ _______ _______ _____ _____    ______ ____
ROOT
ATOM      1  C   UNL     1       4.533   4.202  18.352  0.00  0.00    +0.000 C 
ENDROOT
BRANCH   1   2
ATOM      2  N   UNL     1       4.166   5.495  18.948  0.00  0.00    +0.000 NA
ATOM      3  C   UNL     1       4.074   6.737  18.217  0.00  0.00    +0.000 C 
ATOM      4  C   UNL     1       2.613   7.098  17.903  0.00  0.00    +0.000 C 
ATOM      5  N   UNL     1       1.712   7.166  19.077  0.00  0.00    +0.000 NA
ATOM      6  C   UNL     1       1.904   5.976  19.936  0.00  0.00    +0.000 C 
ATOM      7  C   UNL     1       3.365   5.529  20.175  0.00  0.00    +0.000 C 
BRANCH   5   8
ATOM      8  C   UNL     1       1.769   8.449  19.797  0.00  0.00    +0.000 C 
ATOM      9  C   UNL     1       0.955   9.546  19.091  0.00  0.00    +0.000 C 
ATOM     10  C   UNL     1       0.748  10.609  20.157  0.00  0.00    +0.000 C 
ATOM     11  C   UNL     1       0.584   9.837  21.456  0.00  0.00    +0.000 C 
ATOM     12  C   UNL     1       1.099   8.422  21.187  0.00  0.00    +0.000 C 
ENDBRANCH   5   8
ENDBRANCH   1   2
BRANCH   1  13
ATOM     13  C   UNL     1       5.984   4.256  17.916  0.00  0.00    +0.000 A 
ATOM     14  N   UNL     1       6.974   4.553  18.746  0.00  0.00    +0.000 NA
ATOM     15  N   UNL     1       8.117   4.643  18.002  0.00  0.00    +0.000 NA
ATOM     16  N   UNL     1       7.865   4.402  16.732  0.00  0.00    +0.000 NA
ATOM     17  N   UNL     1       6.543   4.160  16.666  0.00  0.00    +0.000 N 
BRANCH  17  18
ATOM     18  C   UNL     1       6.019   3.665  15.414  0.00  0.00    +0.000 C 
BRANCH  18  19
ATOM     19  C   UNL     1       6.196   4.512  14.164  0.00  0.00    +0.000 C 
ATOM     20  C   UNL     1       6.326   3.715  12.881  0.00  0.00    +0.000 C 
ATOM     21  C   UNL     1       7.179   4.609  12.016  0.00  0.00    +0.000 C 
ATOM     22  C   UNL     1       8.049   5.355  13.006  0.00  0.00    +0.000 C 
ATOM     23  O   UNL     1       7.454   5.213  14.300  0.00  0.00    +0.000 OA
ENDBRANCH  18  19
ENDBRANCH  17  18
ENDBRANCH   1  13
BRANCH   1  25
ATOM     24  C   UNL     1       3.441   1.828  18.182  0.00  0.00    +0.000 C 
ATOM     25  C   UNL     1       3.573   3.225  17.555  0.00  0.00    +0.000 C 
ATOM     26  C   UNL     1       2.162   3.627  17.125  0.00  0.00    +0.000 C 
ENDBRANCH   1  25
TORSDOF 6
ENDMDL
MODEL 4
REMARK VINA RESULT:      -6.7      2.847      7.467
REMARK  Name = 
REMARK  8 active torsions:
REMARK  status: ('A' for Active; 'I' for Inactive)
REMARK    1  A    between atoms: C_1  and  C_2
REMARK    2  A    between atoms: C_2  and  C_3
REMARK    3  A    between atoms: C_2  and  C_4
REMARK    4  A    between atoms: C_4  and  C_5
REMARK    5  A    between atoms: C_4  and  N_16
REMARK    6  A    between atoms: N_9  and  C_10
REMARK    7  A    between atoms: C_10  and  C_11
REMARK    8  A    between atoms: N_19  and  C_20
REMARK                            x       y       z     vdW  Elec       q    Type
REMARK                         _______ _______ _______ _____ _____    ______ ____
ROOT
ATOM      1  C   UNL     1       5.888   5.767  18.044  0.00  0.00    +0.000 C 
ENDROOT
BRANCH   1   2
ATOM      2  N   UNL     1       5.924   4.759  16.975  0.00  0.00    +0.000 NA
ATOM      3  C   UNL     1       4.815   4.452  16.102  0.00  0.00    +0.000 C 
ATOM      4  C   UNL     1       4.985   5.112  14.723  0.00  0.00    +0.000 C 
ATOM      5  N   UNL     1       6.250   4.792  14.020  0.00  0.00    +0.000 NA
ATOM      6  C   UNL     1       7.397   4.941  14.945  0.00  0.00    +0.000 C 
ATOM      7  C   UNL     1       7.206   4.382  16.374  0.00  0.00    +0.000 C 
BRANCH   5   8
ATOM      8  C   UNL     1       6.219   3.513  13.293  0.00  0.00    +0.000 C 
ATOM      9  C   UNL     1       4.953   3.365  12.432  0.00  0.00    +0.000 C 
ATOM     10  C   UNL     1       5.294   2.264  11.443  0.00  0.00    +0.000 C 
ATOM     11  C   UNL     1       6.770   2.455  11.134  0.00  0.00    +0.000 C 
ATOM     12  C   UNL     1       7.327   3.366  12.229  0.00  0.00    +0.000 C 
ENDBRANCH   5   8
ENDBRANCH   1   2
BRANCH   1  13
ATOM     13  C   UNL     1       4.520   6.421  18.058  0.00  0.00    +0.000 A 
ATOM     14  N   UNL     1       4.193   7.421  17.251  0.00  0.00    +0.000 NA
ATOM     15  N   UNL     1       2.949   7.852  17.619  0.00  0.00    +0.000 NA
ATOM     16  N   UNL     1       2.490   7.141  18.628  0.00  0.00    +0.000 NA
ATOM     17  N   UNL     1       3.457   6.248  18.909  0.00  0.00    +0.000 N 
BRANCH  17  18
ATOM     18  C   UNL     1       3.142   5.199  19.850  0.00  0.00    +0.000 C 
BRANCH  18  19
ATOM     19  C   UNL     1       2.774   3.823  19.314  0.00  0.00    +0.000 C 
ATOM     20  C   UNL     1       1.515   3.797  18.471  0.00  0.00    +0.000 C 
ATOM     21  C   UNL     1       0.990   2.401  18.697  0.00  0.00    +0.000 C 
ATOM     22  C   UNL     1       1.450   2.060  20.100  0.00  0.00    +0.000 C 
ATOM     23  O   UNL     1       2.481   2.986  20.456  0.00  0.00    +0.000 OA
ENDBRANCH  18  19
ENDBRANCH  17  18
ENDBRANCH   1  13
BRANCH   1  25
ATOM     24  C   UNL     1       8.196   5.815  19.281  0.00  0.00    +0.000 C 
ATOM     25  C   UNL     1       7.108   6.633  18.565  0.00  0.00    +0.000 C 
ATOM     26  C   UNL     1       7.853   7.628  17.674  0.00  0.00    +0.000 C 
ENDBRANCH   1  25
TORSDOF 6
ENDMDL
MODEL 5
REMARK VINA RESULT:      -6.4      3.059      7.696
REMARK  Name = 
REMARK  8 active torsions:
REMARK  status: ('A' for Active; 'I' for Inactive)
REMARK    1  A    between atoms: C_1  and  C_2
REMARK    2  A    between atoms: C_2  and  C_3
REMARK    3  A    between atoms: C_2  and  C_4
REMARK    4  A    between atoms: C_4  and  C_5
REMARK    5  A    between atoms: C_4  and  N_16
REMARK    6  A    between atoms: N_9  and  C_10
REMARK    7  A    between atoms: C_10  and  C_11
REMARK    8  A    between atoms: N_19  and  C_20
REMARK                            x       y       z     vdW  Elec       q    Type
REMARK                         _______ _______ _______ _____ _____    ______ ____
ROOT
ATOM      1  C   UNL     1       5.765   5.596  17.944  0.00  0.00    +0.000 C 
ENDROOT
BRANCH   1   2
ATOM      2  N   UNL     1       5.906   4.603  16.870  0.00  0.00    +0.000 NA
ATOM      3  C   UNL     1       4.821   4.132  16.041  0.00  0.00    +0.000 C 
ATOM      4  C   UNL     1       4.835   4.808  14.660  0.00  0.00    +0.000 C 
ATOM      5  N   UNL     1       6.104   4.678  13.905  0.00  0.00    +0.000 NA
ATOM      6  C   UNL     1       7.252   4.997  14.783  0.00  0.00    +0.000 C 
ATOM      7  C   UNL     1       7.204   4.419  16.216  0.00  0.00    +0.000 C 
BRANCH   5   8
ATOM      8  C   UNL     1       6.233   3.407  13.174  0.00  0.00    +0.000 C 
ATOM      9  C   UNL     1       5.028   3.139  12.258  0.00  0.00    +0.000 C 
ATOM     10  C   UNL     1       5.520   2.084  11.283  0.00  0.00    +0.000 C 
ATOM     11  C   UNL     1       6.981   2.425  11.039  0.00  0.00    +0.000 C 
ATOM     12  C   UNL     1       7.396   3.380  12.160  0.00  0.00    +0.000 C 
ENDBRANCH   5   8
ENDBRANCH   1   2
BRANCH   1  13
ATOM     13  C   UNL     1       4.404   6.255  17.827  0.00  0.00    +0.000 A 
ATOM     14  N   UNL     1       4.240   7.493  17.380  0.00  0.00    +0.000 NA
ATOM     15  N   UNL     1       2.920   7.811  17.534  0.00  0.00    +0.000 NA
ATOM     16  N   UNL     1       2.256   6.800  18.057  0.00  0.00    +0.000 NA
ATOM     17  N   UNL     1       3.168   5.828  18.243  0.00  0.00    +0.000 N 
BRANCH  17  18
ATOM     18  C   UNL     1       2.680   4.522  18.621  0.00  0.00    +0.000 C 
BRANCH  18  19
ATOM     19  C   UNL     1       2.703   4.133  20.092  0.00  0.00    +0.000 C 
ATOM     20  C   UNL     1       3.385   2.810  20.378  0.00  0.00    +0.000 C 
ATOM     21  C   UNL     1       2.671   2.326  21.616  0.00  0.00    +0.000 C 
ATOM     22  C   UNL     1       1.276   2.903  21.483  0.00  0.00    +0.000 C 
ATOM     23  O   UNL     1       1.329   3.946  20.504  0.00  0.00    +0.000 OA
ENDBRANCH  18  19
ENDBRANCH  17  18
ENDBRANCH   1  13
BRANCH   1  25
ATOM     24  C   UNL     1       7.960   5.612  19.371  0.00  0.00    +0.000 C 
ATOM     25  C   UNL     1       6.928   6.450  18.599  0.00  0.00    +0.000 C 
ATOM     26  C   UNL     1       7.734   7.484  17.811  0.00  0.00    +0.000 C 
ENDBRANCH   1  25
TORSDOF 6
ENDMDL
MODEL 6
REMARK VINA RESULT:      -6.4      4.588      9.270
REMARK  Name = 
REMARK  8 active torsions:
REMARK  status: ('A' for Active; 'I' for Inactive)
REMARK    1  A    between atoms: C_1  and  C_2
REMARK    2  A    between atoms: C_2  and  C_3
REMARK    3  A    between atoms: C_2  and  C_4
REMARK    4  A    between atoms: C_4  and  C_5
REMARK    5  A    between atoms: C_4  and  N_16
REMARK    6  A    between atoms: N_9  and  C_10
REMARK    7  A    between atoms: C_10  and  C_11
REMARK    8  A    between atoms: N_19  and  C_20
REMARK                            x       y       z     vdW  Elec       q    Type
REMARK                         _______ _______ _______ _____ _____    ______ ____
ROOT
ATOM      1  C   UNL     1       0.970  11.242  19.652  0.00  0.00    +0.000 C 
ENDROOT
BRANCH   1   2
ATOM      2  N   UNL     1       0.784   9.833  19.277  0.00  0.00    +0.000 NA
ATOM      3  C   UNL     1       1.194   9.261  18.016  0.00  0.00    +0.000 C 
ATOM      4  C   UNL     1       2.507   8.472  18.157  0.00  0.00    +0.000 C 
ATOM      5  N   UNL     1       2.496   7.405  19.185  0.00  0.00    +0.000 NA
ATOM      6  C   UNL     1       1.925   7.923  20.449  0.00  0.00    +0.000 C 
ATOM      7  C   UNL     1       0.666   8.812  20.321  0.00  0.00    +0.000 C 
BRANCH   5   8
ATOM      8  C   UNL     1       1.902   6.140  18.724  0.00  0.00    +0.000 C 
ATOM      9  C   UNL     1       2.844   5.364  17.789  0.00  0.00    +0.000 C 
ATOM     10  C   UNL     1       2.295   3.947  17.789  0.00  0.00    +0.000 C 
ATOM     11  C   UNL     1       1.784   3.723  19.203  0.00  0.00    +0.000 C 
ATOM     12  C   UNL     1       1.671   5.107  19.846  0.00  0.00    +0.000 C 
ENDBRANCH   5   8
ENDBRANCH   1   2
BRANCH   1  13
ATOM     13  C   UNL     1       0.039  11.571  20.803  0.00  0.00    +0.000 A 
ATOM     14  N   UNL     1       0.401  11.467  22.074  0.00  0.00    +0.000 NA
ATOM     15  N   UNL     1      -0.708  11.707  22.836  0.00  0.00    +0.000 NA
ATOM     16  N   UNL     1      -1.749  11.967  22.072  0.00  0.00    +0.000 NA
ATOM     17  N   UNL     1      -1.297  11.886  20.807  0.00  0.00    +0.000 N 
BRANCH  17  18
ATOM     18  C   UNL     1      -2.184  12.324  19.754  0.00  0.00    +0.000 C 
BRANCH  18  19
ATOM     19  C   UNL     1      -2.627  11.314  18.706  0.00  0.00    +0.000 C 
ATOM     20  C   UNL     1      -1.935  11.459  17.365  0.00  0.00    +0.000 C 
ATOM     21  C   UNL     1      -2.972  10.948  16.396  0.00  0.00    +0.000 C 
ATOM     22  C   UNL     1      -4.291  11.286  17.059  0.00  0.00    +0.000 C 
ATOM     23  O   UNL     1      -4.025  11.565  18.437  0.00  0.00    +0.000 OA
ENDBRANCH  18  19
ENDBRANCH  17  18
ENDBRANCH   1  13
BRANCH   1  25
ATOM     24  C   UNL     1       1.139  13.829  19.281  0.00  0.00    +0.000 C 
ATOM     25  C   UNL     1       1.373  12.431  18.685  0.00  0.00    +0.000 C 
ATOM     26  C   UNL     1       2.729  12.497  17.982  0.00  0.00    +0.000 C 
ENDBRANCH   1  25
TORSDOF 6
ENDMDL
MODEL 7
REMARK VINA RESULT:      -6.3      2.597      3.752
REMARK  Name = 
REMARK  8 active torsions:
REMARK  status: ('A' for Active; 'I' for Inactive)
REMARK    1  A    between atoms: C_1  and  C_2
REMARK    2  A    between atoms: C_2  and  C_3
REMARK    3  A    between atoms: C_2  and  C_4
REMARK    4  A    between atoms: C_4  and  C_5
REMARK    5  A    between atoms: C_4  and  N_16
REMARK    6  A    between atoms: N_9  and  C_10
REMARK    7  A    between atoms: C_10  and  C_11
REMARK    8  A    between atoms: N_19  and  C_20
REMARK                            x       y       z     vdW  Elec       q    Type
REMARK                         _______ _______ _______ _____ _____    ______ ____
ROOT
ATOM      1  C   UNL     1       4.369   3.986  18.168  0.00  0.00    +0.000 C 
ENDROOT
BRANCH   1   2
ATOM      2  N   UNL     1       3.293   4.985  18.088  0.00  0.00    +0.000 NA
ATOM      3  C   UNL     1       2.156   5.037  18.977  0.00  0.00    +0.000 C 
ATOM      4  C   UNL     1       2.330   6.126  20.049  0.00  0.00    +0.000 C 
ATOM      5  N   UNL     1       2.594   7.489  19.530  0.00  0.00    +0.000 NA
ATOM      6  C   UNL     1       3.648   7.442  18.492  0.00  0.00    +0.000 C 
ATOM      7  C   UNL     1       3.555   6.287  17.468  0.00  0.00    +0.000 C 
BRANCH   5   8
ATOM      8  C   UNL     1       1.380   8.218  19.129  0.00  0.00    +0.000 C 
ATOM      9  C   UNL     1       0.763   9.004  20.298  0.00  0.00    +0.000 C 
ATOM     10  C   UNL     1      -0.154  10.015  19.632  0.00  0.00    +0.000 C 
ATOM     11  C   UNL     1       0.559  10.409  18.349  0.00  0.00    +0.000 C 
ATOM     12  C   UNL     1       1.631   9.344  18.105  0.00  0.00    +0.000 C 
ENDBRANCH   5   8
ENDBRANCH   1   2
BRANCH   1  13
ATOM     13  C   UNL     1       5.284   4.152  16.970  0.00  0.00    +0.000 A 
ATOM     14  N   UNL     1       4.911   3.855  15.733  0.00  0.00    +0.000 NA
ATOM     15  N   UNL     1       6.009   3.993  14.931  0.00  0.00    +0.000 NA
ATOM     16  N   UNL     1       7.054   4.376  15.636  0.00  0.00    +0.000 NA
ATOM     17  N   UNL     1       6.615   4.479  16.904  0.00  0.00    +0.000 N 
BRANCH  17  18
ATOM     18  C   UNL     1       7.506   5.080  17.870  0.00  0.00    +0.000 C 
BRANCH  18  19
ATOM     19  C   UNL     1       7.282   6.532  18.265  0.00  0.00    +0.000 C 
ATOM     20  C   UNL     1       7.140   7.484  17.094  0.00  0.00    +0.000 C 
ATOM     21  C   UNL     1       7.662   8.784  17.655  0.00  0.00    +0.000 C 
ATOM     22  C   UNL     1       8.693   8.353  18.678  0.00  0.00    +0.000 C 
ATOM     23  O   UNL     1       8.468   6.970  18.966  0.00  0.00    +0.000 OA
ENDBRANCH  18  19
ENDBRANCH  17  18
ENDBRANCH   1  13
BRANCH   1  25
ATOM     24  C   UNL     1       3.841   2.534  20.282  0.00  0.00    +0.000 C 
ATOM     25  C   UNL     1       4.266   2.539  18.805  0.00  0.00    +0.000 C 
ATOM     26  C   UNL     1       3.489   1.401  18.142  0.00  0.00    +0.000 C 
ENDBRANCH   1  25
TORSDOF 6
ENDMDL
MODEL 8
REMARK VINA RESULT:      -6.3      1.126      1.368
REMARK  Name = 
REMARK  8 active torsions:
REMARK  status: ('A' for Active; 'I' for Inactive)
REMARK    1  A    between atoms: C_1  and  C_2
REMARK    2  A    between atoms: C_2  and  C_3
REMARK    3  A    between atoms: C_2  and  C_4
REMARK    4  A    between atoms: C_4  and  C_5
REMARK    5  A    between atoms: C_4  and  N_16
REMARK    6  A    between atoms: N_9  and  C_10
REMARK    7  A    between atoms: C_10  and  C_11
REMARK    8  A    between atoms: N_19  and  C_20
REMARK                            x       y       z     vdW  Elec       q    Type
REMARK                         _______ _______ _______ _____ _____    ______ ____
ROOT
ATOM      1  C   UNL     1       4.106   4.593  18.540  0.00  0.00    +0.000 C 
ENDROOT
BRANCH   1   2
ATOM      2  N   UNL     1       3.749   5.774  19.339  0.00  0.00    +0.000 NA
ATOM      3  C   UNL     1       3.661   7.118  18.820  0.00  0.00    +0.000 C 
ATOM      4  C   UNL     1       2.201   7.533  18.575  0.00  0.00    +0.000 C 
ATOM      5  N   UNL     1       1.304   7.414  19.749  0.00  0.00    +0.000 NA
ATOM      6  C   UNL     1       1.494   6.099  20.403  0.00  0.00    +0.000 C 
ATOM      7  C   UNL     1       2.953   5.612  20.559  0.00  0.00    +0.000 C 
BRANCH   5   8
ATOM      8  C   UNL     1       1.371   8.563  20.667  0.00  0.00    +0.000 C 
ATOM      9  C   UNL     1       0.706   9.817  20.076  0.00  0.00    +0.000 C 
ATOM     10  C   UNL     1       0.461  10.716  21.275  0.00  0.00    +0.000 C 
ATOM     11  C   UNL     1       0.117   9.771  22.414  0.00  0.00    +0.000 C 
ATOM     12  C   UNL     1       0.565   8.377  21.969  0.00  0.00    +0.000 C 
ENDBRANCH   5   8
ENDBRANCH   1   2
BRANCH   1  13
ATOM     13  C   UNL     1       5.551   4.719  18.095  0.00  0.00    +0.000 A 
ATOM     14  N   UNL     1       6.554   4.136  18.738  0.00  0.00    +0.000 NA
ATOM     15  N   UNL     1       7.714   4.563  18.155  0.00  0.00    +0.000 NA
ATOM     16  N   UNL     1       7.459   5.390  17.162  0.00  0.00    +0.000 NA
ATOM     17  N   UNL     1       6.118   5.494  17.115  0.00  0.00    +0.000 N 
BRANCH  17  18
ATOM     18  C   UNL     1       5.543   6.187  15.985  0.00  0.00    +0.000 C 
BRANCH  18  19
ATOM     19  C   UNL     1       5.612   5.529  14.615  0.00  0.00    +0.000 C 
ATOM     20  C   UNL     1       5.344   4.037  14.623  0.00  0.00    +0.000 C 
ATOM     21  C   UNL     1       6.149   3.546  13.446  0.00  0.00    +0.000 C 
ATOM     22  C   UNL     1       7.314   4.512  13.371  0.00  0.00    +0.000 C 
ATOM     23  O   UNL     1       6.973   5.665  14.146  0.00  0.00    +0.000 OA
ENDBRANCH  18  19
ENDBRANCH  17  18
ENDBRANCH   1  13
BRANCH   1  25
ATOM     24  C   UNL     1       3.235   2.233  17.814  0.00  0.00    +0.000 C 
ATOM     25  C   UNL     1       3.135   3.754  17.611  0.00  0.00    +0.000 C 
ATOM     26  C   UNL     1       1.642   4.062  17.489  0.00  0.00    +0.000 C 
ENDBRANCH   1  25
TORSDOF 6
ENDMDL
MODEL 9
REMARK VINA RESULT:      -6.2      2.417      5.449
REMARK  Name = 
REMARK  8 active torsions:
REMARK  status: ('A' for Active; 'I' for Inactive)
REMARK    1  A    between atoms: C_1  and  C_2
REMARK    2  A    between atoms: C_2  and  C_3
REMARK    3  A    between atoms: C_2  and  C_4
REMARK    4  A    between atoms: C_4  and  C_5
REMARK    5  A    between atoms: C_4  and  N_16
REMARK    6  A    between atoms: N_9  and  C_10
REMARK    7  A    between atoms: C_10  and  C_11
REMARK    8  A    between atoms: N_19  and  C_20
REMARK                            x       y       z     vdW  Elec       q    Type
REMARK                         _______ _______ _______ _____ _____    ______ ____
ROOT
ATOM      1  C   UNL     1       5.812   4.569  16.472  0.00  0.00    +0.000 C 
ENDROOT
BRANCH   1   2
ATOM      2  N   UNL     1       4.673   4.306  17.364  0.00  0.00    +0.000 NA
ATOM      3  C   UNL     1       3.470   3.610  16.971  0.00  0.00    +0.000 C 
ATOM      4  C   UNL     1       3.477   2.153  17.462  0.00  0.00    +0.000 C 
ATOM      5  N   UNL     1       3.675   1.978  18.921  0.00  0.00    +0.000 NA
ATOM      6  C   UNL     1       4.808   2.813  19.383  0.00  0.00    +0.000 C 
ATOM      7  C   UNL     1       4.882   4.248  18.813  0.00  0.00    +0.000 C 
BRANCH   5   8
ATOM      8  C   UNL     1       2.444   2.134  19.712  0.00  0.00    +0.000 C 
ATOM      9  C   UNL     1       2.731   2.624  21.141  0.00  0.00    +0.000 C 
ATOM     10  C   UNL     1       1.396   3.154  21.635  0.00  0.00    +0.000 C 
ATOM     11  C   UNL     1       0.742   3.776  20.412  0.00  0.00    +0.000 C 
ATOM     12  C   UNL     1       1.501   3.241  19.196  0.00  0.00    +0.000 C 
ENDBRANCH   5   8
ENDBRANCH   1   2
BRANCH   1  13
ATOM     13  C   UNL     1       6.290   5.991  16.693  0.00  0.00    +0.000 A 
ATOM     14  N   UNL     1       7.572   6.310  16.806  0.00  0.00    +0.000 NA
ATOM     15  N   UNL     1       7.636   7.636  17.129  0.00  0.00    +0.000 NA
ATOM     16  N   UNL     1       6.428   8.154  17.212  0.00  0.00    +0.000 NA
ATOM     17  N   UNL     1       5.583   7.141  16.942  0.00  0.00    +0.000 N 
BRANCH  17  18
ATOM     18  C   UNL     1       4.187   7.468  16.765  0.00  0.00    +0.000 C 
BRANCH  18  19
ATOM     19  C   UNL     1       3.455   8.176  17.895  0.00  0.00    +0.000 C 
ATOM     20  C   UNL     1       2.638   7.259  18.783  0.00  0.00    +0.000 C 
ATOM     21  C   UNL     1       1.525   8.159  19.260  0.00  0.00    +0.000 C 
ATOM     22  C   UNL     1       1.333   9.139  18.120  0.00  0.00    +0.000 C 
ATOM     23  O   UNL     1       2.492   9.067  17.285  0.00  0.00    +0.000 OA
ENDBRANCH  18  19
ENDBRANCH  17  18
ENDBRANCH   1  13
BRANCH   1  25
ATOM     24  C   UNL     1       4.839   4.036  14.101  0.00  0.00    +0.000 C 
ATOM     25  C   UNL     1       6.053   3.940  15.038  0.00  0.00    +0.000 C 
ATOM     26  C   UNL     1       7.271   4.286  14.182  0.00  0.00    +0.000 C 
ENDBRANCH   1  25
TORSDOF 6
ENDMDL
