MODEL 1
REMARK VINA RESULT:      -8.6      0.000      0.000
REMARK  Name = 
REMARK  6 active torsions:
REMARK  status: ('A' for Active; 'I' for Inactive)
REMARK    1  A    between atoms: C_2  and  C_3
REMARK    2  A    between atoms: C_2  and  O_10
REMARK    3  A    between atoms: C_3  and  C_4
REMARK    4  A    between atoms: O_10  and  C_11
REMARK    5  A    between atoms: C_13  and  O_14
REMARK    6  A    between atoms: C_19  and  C_20
REMARK                            x       y       z     vdW  Elec       q    Type
REMARK                         _______ _______ _______ _____ _____    ______ ____
ROOT
ATOM      1  C   UNL     1       4.123   3.740  16.963  0.00  0.00    +0.000 A 
ATOM      2  C   UNL     1       3.432   2.657  17.515  0.00  0.00    +0.000 A 
ATOM      3  C   UNL     1       2.493   2.875  18.509  0.00  0.00    +0.000 A 
ATOM      4  C   UNL     1       2.254   4.176  18.946  0.00  0.00    +0.000 A 
ATOM      5  C   UNL     1       1.479   4.452  20.157  0.00  0.00    +0.000 A 
ATOM      6  O   UNL     1       0.625   3.721  20.634  0.00  0.00    +0.000 OA
ATOM      7  C   UNL     1       1.790   5.743  20.790  0.00  0.00    +0.000 A 
ATOM      8  C   UNL     1       1.952   6.765  19.936  0.00  0.00    +0.000 A 
ATOM      9  O   UNL     1       2.475   6.575  18.647  0.00  0.00    +0.000 OA
ATOM     10  C   UNL     1       2.860   5.276  18.319  0.00  0.00    +0.000 A 
ATOM     11  C   UNL     1       3.835   5.059  17.335  0.00  0.00    +0.000 A 
ENDROOT
BRANCH   8  12
ATOM     12  C   UNL     1       1.510   8.133  20.324  0.00  0.00    +0.000 A 
ATOM     13  C   UNL     1       1.303   9.164  19.406  0.00  0.00    +0.000 A 
ATOM     14  C   UNL     1       0.815  10.418  19.814  0.00  0.00    +0.000 A 
ATOM     15  C   UNL     1       0.503  10.665  21.154  0.00  0.00    +0.000 A 
ATOM     16  C   UNL     1       0.663   9.647  22.082  0.00  0.00    +0.000 A 
ATOM     17  C   UNL     1       1.147   8.406  21.671  0.00  0.00    +0.000 A 
ENDBRANCH   8  12
BRANCH   3  18
ATOM     18  O   UNL     1       1.858   1.808  19.068  0.00  0.00    +0.000 OA
ATOM     19  H   UNL     1       2.482   1.316  19.627  0.00  0.00    +0.000 HD
ENDBRANCH   3  18
BRANCH   1  20
ATOM     20  O   UNL     1       5.095   3.330  16.010  0.00  0.00    +0.000 OA
BRANCH  20  22
ATOM     21  O   UNL     1       5.103   4.501  13.991  0.00  0.00    +0.000 OA
ATOM     22  C   UNL     1       5.676   4.080  14.986  0.00  0.00    +0.000 C 
BRANCH  22  23
ATOM     23  C   UNL     1       7.148   4.297  15.297  0.00  0.00    +0.000 C 
BRANCH  23  24
ATOM     24  C   UNL     1       7.374   5.161  16.514  0.00  0.00    +0.000 A 
ATOM     25  C   UNL     1       7.235   6.557  16.438  0.00  0.00    +0.000 A 
ATOM     26  C   UNL     1       7.451   7.358  17.567  0.00  0.00    +0.000 A 
ATOM     27  C   UNL     1       7.814   6.772  18.777  0.00  0.00    +0.000 A 
ATOM     28  C   UNL     1       7.948   5.388  18.864  0.00  0.00    +0.000 A 
ATOM     29  C   UNL     1       7.731   4.587  17.741  0.00  0.00    +0.000 A 
ENDBRANCH  23  24
ENDBRANCH  22  23
ENDBRANCH  20  22
ENDBRANCH   1  20
TORSDOF 6
ENDMDL
MODEL 2
REMARK VINA RESULT:      -8.5      0.158      1.292
REMARK  Name = 
REMARK  6 active torsions:
REMARK  status: ('A' for Active; 'I' for Inactive)
REMARK    1  A    between atoms: C_2  and  C_3
REMARK    2  A    between atoms: C_2  and  O_10
REMARK    3  A    between atoms: C_3  and  C_4
REMARK    4  A    between atoms: O_10  and  C_11
REMARK    5  A    between atoms: C_13  and  O_14
REMARK    6  A    between atoms: C_19  and  C_20
REMARK                            x       y       z     vdW  Elec       q    Type
REMARK                         _______ _______ _______ _____ _____    ______ ____
ROOT
ATOM      1  C   UNL     1       4.262   3.808  16.975  0.00  0.00    +0.000 A 
ATOM      2  C   UNL     1       3.575   2.697  17.475  0.00  0.00    +0.000 A 
ATOM      3  C   UNL     1       2.596   2.870  18.439  0.00  0.00    +0.000 A 
ATOM      4  C   UNL     1       2.312   4.155  18.898  0.00  0.00    +0.000 A 
ATOM      5  C   UNL     1       1.488   4.384  20.085  0.00  0.00    +0.000 A 
ATOM      6  O   UNL     1       0.634   3.623  20.513  0.00  0.00    +0.000 OA
ATOM      7  C   UNL     1       1.748   5.665  20.760  0.00  0.00    +0.000 A 
ATOM      8  C   UNL     1       1.917   6.711  19.938  0.00  0.00    +0.000 A 
ATOM      9  O   UNL     1       2.491   6.564  18.665  0.00  0.00    +0.000 OA
ATOM     10  C   UNL     1       2.917   5.283  18.320  0.00  0.00    +0.000 A 
ATOM     11  C   UNL     1       3.932   5.110  17.368  0.00  0.00    +0.000 A 
ENDROOT
BRANCH   8  12
ATOM     12  C   UNL     1       1.432   8.060  20.342  0.00  0.00    +0.000 A 
ATOM     13  C   UNL     1       1.213   8.432  21.669  0.00  0.00    +0.000 A 
ATOM     14  C   UNL     1       0.824   9.741  22.005  0.00  0.00    +0.000 A 
ATOM     15  C   UNL     1       0.665  10.718  21.019  0.00  0.00    +0.000 A 
ATOM     16  C   UNL     1       0.914  10.386  19.695  0.00  0.00    +0.000 A 
ATOM     17  C   UNL     1       1.298   9.087  19.369  0.00  0.00    +0.000 A 
ENDBRANCH   8  12
BRANCH   3  18
ATOM     18  O   UNL     1       1.965   1.776  18.949  0.00  0.00    +0.000 OA
ATOM     19  H   UNL     1       2.376   0.971  18.594  0.00  0.00    +0.000 HD
ENDBRANCH   3  18
BRANCH   1  20
ATOM     20  O   UNL     1       5.277   3.442  16.049  0.00  0.00    +0.000 OA
BRANCH  20  22
ATOM     21  O   UNL     1       5.023   4.348  13.913  0.00  0.00    +0.000 OA
ATOM     22  C   UNL     1       5.698   4.128  14.909  0.00  0.00    +0.000 C 
BRANCH  22  23
ATOM     23  C   UNL     1       7.142   4.565  15.092  0.00  0.00    +0.000 C 
BRANCH  23  24
ATOM     24  C   UNL     1       7.385   5.266  16.407  0.00  0.00    +0.000 A 
ATOM     25  C   UNL     1       7.732   4.537  17.556  0.00  0.00    +0.000 A 
ATOM     26  C   UNL     1       7.950   5.189  18.776  0.00  0.00    +0.000 A 
ATOM     27  C   UNL     1       7.818   6.573  18.859  0.00  0.00    +0.000 A 
ATOM     28  C   UNL     1       7.481   7.306  17.724  0.00  0.00    +0.000 A 
ATOM     29  C   UNL     1       7.265   6.658  16.505  0.00  0.00    +0.000 A 
ENDBRANCH  23  24
ENDBRANCH  22  23
ENDBRANCH  20  22
ENDBRANCH   1  20
TORSDOF 6
ENDMDL
MODEL 3
REMARK VINA RESULT:      -8.4      1.654      3.278
REMARK  Name = 
REMARK  6 active torsions:
REMARK  status: ('A' for Active; 'I' for Inactive)
REMARK    1  A    between atoms: C_2  and  C_3
REMARK    2  A    between atoms: C_2  and  O_10
REMARK    3  A    between atoms: C_3  and  C_4
REMARK    4  A    between atoms: O_10  and  C_11
REMARK    5  A    between atoms: C_13  and  O_14
REMARK    6  A    between atoms: C_19  and  C_20
REMARK                            x       y       z     vdW  Elec       q    Type
REMARK                         _______ _______ _______ _____ _____    ______ ____
ROOT
ATOM      1  C   UNL     1       4.642   3.954  16.786  0.00  0.00    +0.000 A 
ATOM      2  C   UNL     1       3.910   2.833  17.190  0.00  0.00    +0.000 A 
ATOM      3  C   UNL     1       2.869   2.979  18.092  0.00  0.00    +0.000 A 
ATOM      4  C   UNL     1       2.568   4.247  18.584  0.00  0.00    +0.000 A 
ATOM      5  C   UNL     1       1.667   4.437  19.722  0.00  0.00    +0.000 A 
ATOM      6  O   UNL     1       0.777   3.671  20.058  0.00  0.00    +0.000 OA
ATOM      7  C   UNL     1       1.893   5.685  20.467  0.00  0.00    +0.000 A 
ATOM      8  C   UNL     1       2.130   6.762  19.704  0.00  0.00    +0.000 A 
ATOM      9  O   UNL     1       2.788   6.661  18.468  0.00  0.00    +0.000 OA
ATOM     10  C   UNL     1       3.222   5.390  18.098  0.00  0.00    +0.000 A 
ATOM     11  C   UNL     1       4.298   5.244  17.211  0.00  0.00    +0.000 A 
ENDROOT
BRANCH   8  12
ATOM     12  C   UNL     1       1.632   8.099  20.131  0.00  0.00    +0.000 A 
ATOM     13  C   UNL     1       1.371   9.143  19.243  0.00  0.00    +0.000 A 
ATOM     14  C   UNL     1       0.832  10.363  19.688  0.00  0.00    +0.000 A 
ATOM     15  C   UNL     1       0.521  10.562  21.035  0.00  0.00    +0.000 A 
ATOM     16  C   UNL     1       0.734   9.527  21.935  0.00  0.00    +0.000 A 
ATOM     17  C   UNL     1       1.269   8.321  21.488  0.00  0.00    +0.000 A 
ENDBRANCH   8  12
BRANCH   3  18
ATOM     18  O   UNL     1       2.193   1.873  18.510  0.00  0.00    +0.000 OA
ATOM     19  H   UNL     1       1.969   1.322  17.743  0.00  0.00    +0.000 HD
ENDBRANCH   3  18
BRANCH   1  20
ATOM     20  O   UNL     1       5.713   3.614  15.916  0.00  0.00    +0.000 OA
BRANCH  20  22
ATOM     21  O   UNL     1       7.849   4.394  16.444  0.00  0.00    +0.000 OA
ATOM     22  C   UNL     1       6.896   4.318  15.682  0.00  0.00    +0.000 C 
BRANCH  22  23
ATOM     23  C   UNL     1       6.818   4.987  14.319  0.00  0.00    +0.000 C 
BRANCH  23  24
ATOM     24  C   UNL     1       6.314   4.064  13.236  0.00  0.00    +0.000 A 
ATOM     25  C   UNL     1       7.209   3.284  12.484  0.00  0.00    +0.000 A 
ATOM     26  C   UNL     1       6.740   2.434  11.475  0.00  0.00    +0.000 A 
ATOM     27  C   UNL     1       5.376   2.360  11.205  0.00  0.00    +0.000 A 
ATOM     28  C   UNL     1       4.479   3.125  11.948  0.00  0.00    +0.000 A 
ATOM     29  C   UNL     1       4.944   3.972  12.957  0.00  0.00    +0.000 A 
ENDBRANCH  23  24
ENDBRANCH  22  23
ENDBRANCH  20  22
ENDBRANCH   1  20
TORSDOF 6
ENDMDL
MODEL 4
REMARK VINA RESULT:      -8.4      1.670      3.376
REMARK  Name = 
REMARK  6 active torsions:
REMARK  status: ('A' for Active; 'I' for Inactive)
REMARK    1  A    between atoms: C_2  and  C_3
REMARK    2  A    between atoms: C_2  and  O_10
REMARK    3  A    between atoms: C_3  and  C_4
REMARK    4  A    between atoms: O_10  and  C_11
REMARK    5  A    between atoms: C_13  and  O_14
REMARK    6  A    between atoms: C_19  and  C_20
REMARK                            x       y       z     vdW  Elec       q    Type
REMARK                         _______ _______ _______ _____ _____    ______ ____
ROOT
ATOM      1  C   UNL     1       4.595   3.878  16.958  0.00  0.00    +0.000 A 
ATOM      2  C   UNL     1       3.870   2.757  17.376  0.00  0.00    +0.000 A 
ATOM      3  C   UNL     1       2.819   2.911  18.266  0.00  0.00    +0.000 A 
ATOM      4  C   UNL     1       2.504   4.184  18.733  0.00  0.00    +0.000 A 
ATOM      5  C   UNL     1       1.591   4.387  19.859  0.00  0.00    +0.000 A 
ATOM      6  O   UNL     1       0.705   3.619  20.201  0.00  0.00    +0.000 OA
ATOM      7  C   UNL     1       1.800   5.650  20.585  0.00  0.00    +0.000 A 
ATOM      8  C   UNL     1       2.035   6.716  19.804  0.00  0.00    +0.000 A 
ATOM      9  O   UNL     1       2.705   6.598  18.576  0.00  0.00    +0.000 OA
ATOM     10  C   UNL     1       3.153   5.324  18.232  0.00  0.00    +0.000 A 
ATOM     11  C   UNL     1       4.238   5.172  17.357  0.00  0.00    +0.000 A 
ENDROOT
BRANCH   8  12
ATOM     12  C   UNL     1       1.522   8.056  20.204  0.00  0.00    +0.000 A 
ATOM     13  C   UNL     1       1.284   8.424  21.528  0.00  0.00    +0.000 A 
ATOM     14  C   UNL     1       0.870   9.726  21.861  0.00  0.00    +0.000 A 
ATOM     15  C   UNL     1       0.703  10.700  20.873  0.00  0.00    +0.000 A 
ATOM     16  C   UNL     1       0.970  10.373  19.552  0.00  0.00    +0.000 A 
ATOM     17  C   UNL     1       1.380   9.080  19.229  0.00  0.00    +0.000 A 
ENDBRANCH   8  12
BRANCH   3  18
ATOM     18  O   UNL     1       2.149   1.807  18.697  0.00  0.00    +0.000 OA
ATOM     19  H   UNL     1       2.468   1.026  18.217  0.00  0.00    +0.000 HD
ENDBRANCH   3  18
BRANCH   1  20
ATOM     20  O   UNL     1       5.677   3.532  16.104  0.00  0.00    +0.000 OA
BRANCH  20  22
ATOM     21  O   UNL     1       7.805   4.486  16.196  0.00  0.00    +0.000 OA
ATOM     22  C   UNL     1       6.719   4.343  15.652  0.00  0.00    +0.000 C 
BRANCH  22  23
ATOM     23  C   UNL     1       6.294   5.034  14.366  0.00  0.00    +0.000 C 
BRANCH  23  24
ATOM     24  C   UNL     1       6.098   4.075  13.217  0.00  0.00    +0.000 A 
ATOM     25  C   UNL     1       4.809   3.755  12.761  0.00  0.00    +0.000 A 
ATOM     26  C   UNL     1       4.629   2.860  11.699  0.00  0.00    +0.000 A 
ATOM     27  C   UNL     1       5.735   2.273  11.089  0.00  0.00    +0.000 A 
ATOM     28  C   UNL     1       7.018   2.588  11.530  0.00  0.00    +0.000 A 
ATOM     29  C   UNL     1       7.200   3.483  12.587  0.00  0.00    +0.000 A 
ENDBRANCH  23  24
ENDBRANCH  22  23
ENDBRANCH  20  22
ENDBRANCH   1  20
TORSDOF 6
ENDMDL
MODEL 5
REMARK VINA RESULT:      -8.3      1.851      3.178
REMARK  Name = 
REMARK  6 active torsions:
REMARK  status: ('A' for Active; 'I' for Inactive)
REMARK    1  A    between atoms: C_2  and  C_3
REMARK    2  A    between atoms: C_2  and  O_10
REMARK    3  A    between atoms: C_3  and  C_4
REMARK    4  A    between atoms: O_10  and  C_11
REMARK    5  A    between atoms: C_13  and  O_14
REMARK    6  A    between atoms: C_19  and  C_20
REMARK                            x       y       z     vdW  Elec       q    Type
REMARK                         _______ _______ _______ _____ _____    ______ ____
ROOT
ATOM      1  C   UNL     1       4.271   6.344  17.174  0.00  0.00    +0.000 A 
ATOM      2  C   UNL     1       3.913   5.031  17.497  0.00  0.00    +0.000 A 
ATOM      3  C   UNL     1       2.962   4.799  18.477  0.00  0.00    +0.000 A 
ATOM      4  C   UNL     1       2.379   5.883  19.130  0.00  0.00    +0.000 A 
ATOM      5  C   UNL     1       1.573   5.710  20.339  0.00  0.00    +0.000 A 
ATOM      6  O   UNL     1       0.960   4.699  20.645  0.00  0.00    +0.000 OA
ATOM      7  C   UNL     1       1.524   6.899  21.205  0.00  0.00    +0.000 A 
ATOM      8  C   UNL     1       1.386   8.064  20.554  0.00  0.00    +0.000 A 
ATOM      9  O   UNL     1       1.925   8.263  19.273  0.00  0.00    +0.000 OA
ATOM     10  C   UNL     1       2.650   7.202  18.733  0.00  0.00    +0.000 A 
ATOM     11  C   UNL     1       3.635   7.443  17.765  0.00  0.00    +0.000 A 
ENDROOT
BRANCH   8  12
ATOM     12  C   UNL     1       0.589   9.165  21.164  0.00  0.00    +0.000 A 
ATOM     13  C   UNL     1       0.062  10.229  20.431  0.00  0.00    +0.000 A 
ATOM     14  C   UNL     1      -0.746  11.205  21.040  0.00  0.00    +0.000 A 
ATOM     15  C   UNL     1      -1.064  11.128  22.398  0.00  0.00    +0.000 A 
ATOM     16  C   UNL     1      -0.586  10.060  23.143  0.00  0.00    +0.000 A 
ATOM     17  C   UNL     1       0.215   9.096  22.533  0.00  0.00    +0.000 A 
ENDBRANCH   8  12
BRANCH   3  18
ATOM     18  O   UNL     1       2.653   3.516  18.811  0.00  0.00    +0.000 OA
ATOM     19  H   UNL     1       3.394   2.933  18.576  0.00  0.00    +0.000 HD
ENDBRANCH   3  18
BRANCH   1  20
ATOM     20  O   UNL     1       5.306   6.397  16.201  0.00  0.00    +0.000 OA
BRANCH  20  22
ATOM     21  O   UNL     1       7.427   7.159  16.806  0.00  0.00    +0.000 OA
ATOM     22  C   UNL     1       6.684   6.280  16.394  0.00  0.00    +0.000 C 
BRANCH  22  23
ATOM     23  C   UNL     1       7.127   4.878  16.008  0.00  0.00    +0.000 C 
BRANCH  23  24
ATOM     24  C   UNL     1       6.980   4.598  14.532  0.00  0.00    +0.000 A 
ATOM     25  C   UNL     1       6.036   3.667  14.069  0.00  0.00    +0.000 A 
ATOM     26  C   UNL     1       5.906   3.404  12.699  0.00  0.00    +0.000 A 
ATOM     27  C   UNL     1       6.722   4.063  11.783  0.00  0.00    +0.000 A 
ATOM     28  C   UNL     1       7.658   4.992  12.232  0.00  0.00    +0.000 A 
ATOM     29  C   UNL     1       7.788   5.259  13.597  0.00  0.00    +0.000 A 
ENDBRANCH  23  24
ENDBRANCH  22  23
ENDBRANCH  20  22
ENDBRANCH   1  20
TORSDOF 6
ENDMDL
MODEL 6
REMARK VINA RESULT:      -8.3      1.416      2.847
REMARK  Name = 
REMARK  6 active torsions:
REMARK  status: ('A' for Active; 'I' for Inactive)
REMARK    1  A    between atoms: C_2  and  C_3
REMARK    2  A    between atoms: C_2  and  O_10
REMARK    3  A    between atoms: C_3  and  C_4
REMARK    4  A    between atoms: O_10  and  C_11
REMARK    5  A    between atoms: C_13  and  O_14
REMARK    6  A    between atoms: C_19  and  C_20
REMARK                            x       y       z     vdW  Elec       q    Type
REMARK                         _______ _______ _______ _____ _____    ______ ____
ROOT
ATOM      1  C   UNL     1       4.784   4.053  17.665  0.00  0.00    +0.000 A 
ATOM      2  C   UNL     1       3.992   2.950  17.999  0.00  0.00    +0.000 A 
ATOM      3  C   UNL     1       2.842   3.132  18.750  0.00  0.00    +0.000 A 
ATOM      4  C   UNL     1       2.494   4.417  19.162  0.00  0.00    +0.000 A 
ATOM      5  C   UNL     1       1.452   4.648  20.164  0.00  0.00    +0.000 A 
ATOM      6  O   UNL     1       0.516   3.900  20.399  0.00  0.00    +0.000 OA
ATOM      7  C   UNL     1       1.593   5.916  20.897  0.00  0.00    +0.000 A 
ATOM      8  C   UNL     1       1.943   6.968  20.142  0.00  0.00    +0.000 A 
ATOM      9  O   UNL     1       2.759   6.824  19.008  0.00  0.00    +0.000 OA
ATOM     10  C   UNL     1       3.222   5.539  18.736  0.00  0.00    +0.000 A 
ATOM     11  C   UNL     1       4.404   5.357  18.004  0.00  0.00    +0.000 A 
ENDROOT
BRANCH   8  12
ATOM     12  C   UNL     1       1.410   8.322  20.462  0.00  0.00    +0.000 A 
ATOM     13  C   UNL     1       1.123   9.284  19.493  0.00  0.00    +0.000 A 
ATOM     14  C   UNL     1       0.552  10.521  19.839  0.00  0.00    +0.000 A 
ATOM     15  C   UNL     1       0.234  10.818  21.167  0.00  0.00    +0.000 A 
ATOM     16  C   UNL     1       0.473   9.865  22.147  0.00  0.00    +0.000 A 
ATOM     17  C   UNL     1       1.040   8.641  21.797  0.00  0.00    +0.000 A 
ENDBRANCH   8  12
BRANCH   3  18
ATOM     18  O   UNL     1       2.102   2.046  19.105  0.00  0.00    +0.000 OA
ATOM     19  H   UNL     1       1.214   2.118  18.718  0.00  0.00    +0.000 HD
ENDBRANCH   3  18
BRANCH   1  20
ATOM     20  O   UNL     1       5.958   3.678  16.956  0.00  0.00    +0.000 OA
BRANCH  20  22
ATOM     21  O   UNL     1       8.179   4.305  17.305  0.00  0.00    +0.000 OA
ATOM     22  C   UNL     1       7.109   4.432  16.725  0.00  0.00    +0.000 C 
BRANCH  22  23
ATOM     23  C   UNL     1       6.830   5.450  15.631  0.00  0.00    +0.000 C 
BRANCH  23  24
ATOM     24  C   UNL     1       6.713   4.828  14.261  0.00  0.00    +0.000 A 
ATOM     25  C   UNL     1       5.633   3.987  13.944  0.00  0.00    +0.000 A 
ATOM     26  C   UNL     1       5.531   3.405  12.674  0.00  0.00    +0.000 A 
ATOM     27  C   UNL     1       6.507   3.655  11.713  0.00  0.00    +0.000 A 
ATOM     28  C   UNL     1       7.579   4.492  12.015  0.00  0.00    +0.000 A 
ATOM     29  C   UNL     1       7.683   5.075  13.280  0.00  0.00    +0.000 A 
ENDBRANCH  23  24
ENDBRANCH  22  23
ENDBRANCH  20  22
ENDBRANCH   1  20
TORSDOF 6
ENDMDL
MODEL 7
REMARK VINA RESULT:      -8.2      1.797      3.205
REMARK  Name = 
REMARK  6 active torsions:
REMARK  status: ('A' for Active; 'I' for Inactive)
REMARK    1  A    between atoms: C_2  and  C_3
REMARK    2  A    between atoms: C_2  and  O_10
REMARK    3  A    between atoms: C_3  and  C_4
REMARK    4  A    between atoms: O_10  and  C_11
REMARK    5  A    between atoms: C_13  and  O_14
REMARK    6  A    between atoms: C_19  and  C_20
REMARK                            x       y       z     vdW  Elec       q    Type
REMARK                         _______ _______ _______ _____ _____    ______ ____
ROOT
ATOM      1  C   UNL     1       4.292   6.338  17.159  0.00  0.00    +0.000 A 
ATOM      2  C   UNL     1       3.943   5.019  17.468  0.00  0.00    +0.000 A 
ATOM      3  C   UNL     1       2.996   4.770  18.447  0.00  0.00    +0.000 A 
ATOM      4  C   UNL     1       2.406   5.842  19.113  0.00  0.00    +0.000 A 
ATOM      5  C   UNL     1       1.604   5.651  20.323  0.00  0.00    +0.000 A 
ATOM      6  O   UNL     1       0.999   4.632  20.618  0.00  0.00    +0.000 OA
ATOM      7  C   UNL     1       1.549   6.829  21.201  0.00  0.00    +0.000 A 
ATOM      8  C   UNL     1       1.402   8.001  20.564  0.00  0.00    +0.000 A 
ATOM      9  O   UNL     1       1.937   8.217  19.284  0.00  0.00    +0.000 OA
ATOM     10  C   UNL     1       2.668   7.167  18.731  0.00  0.00    +0.000 A 
ATOM     11  C   UNL     1       3.649   7.426  17.764  0.00  0.00    +0.000 A 
ENDROOT
BRANCH   8  12
ATOM     12  C   UNL     1       0.599   9.089  21.187  0.00  0.00    +0.000 A 
ATOM     13  C   UNL     1       0.039   8.999  22.463  0.00  0.00    +0.000 A 
ATOM     14  C   UNL     1      -0.649  10.082  23.037  0.00  0.00    +0.000 A 
ATOM     15  C   UNL     1      -0.777  11.294  22.353  0.00  0.00    +0.000 A 
ATOM     16  C   UNL     1      -0.198  11.425  21.099  0.00  0.00    +0.000 A 
ATOM     17  C   UNL     1       0.483  10.347  20.536  0.00  0.00    +0.000 A 
ENDBRANCH   8  12
BRANCH   3  18
ATOM     18  O   UNL     1       2.696   3.481  18.768  0.00  0.00    +0.000 OA
ATOM     19  H   UNL     1       2.270   3.455  19.640  0.00  0.00    +0.000 HD
ENDBRANCH   3  18
BRANCH   1  20
ATOM     20  O   UNL     1       5.324   6.408  16.185  0.00  0.00    +0.000 OA
BRANCH  20  22
ATOM     21  O   UNL     1       7.333   7.430  16.791  0.00  0.00    +0.000 OA
ATOM     22  C   UNL     1       6.705   6.462  16.387  0.00  0.00    +0.000 C 
BRANCH  22  23
ATOM     23  C   UNL     1       7.316   5.119  16.024  0.00  0.00    +0.000 C 
BRANCH  23  24
ATOM     24  C   UNL     1       7.019   4.699  14.605  0.00  0.00    +0.000 A 
ATOM     25  C   UNL     1       7.798   5.174  13.537  0.00  0.00    +0.000 A 
ATOM     26  C   UNL     1       7.515   4.787  12.221  0.00  0.00    +0.000 A 
ATOM     27  C   UNL     1       6.450   3.929  11.960  0.00  0.00    +0.000 A 
ATOM     28  C   UNL     1       5.675   3.448  13.013  0.00  0.00    +0.000 A 
ATOM     29  C   UNL     1       5.956   3.830  14.327  0.00  0.00    +0.000 A 
ENDBRANCH  23  24
ENDBRANCH  22  23
ENDBRANCH  20  22
ENDBRANCH   1  20
TORSDOF 6
ENDMDL
MODEL 8
REMARK VINA RESULT:      -8.1      1.947      3.638
REMARK  Name = 
REMARK  6 active torsions:
REMARK  status: ('A' for Active; 'I' for Inactive)
REMARK    1  A    between atoms: C_2  and  C_3
REMARK    2  A    between atoms: C_2  and  O_10
REMARK    3  A    between atoms: C_3  and  C_4
REMARK    4  A    between atoms: O_10  and  C_11
REMARK    5  A    between atoms: C_13  and  O_14
REMARK    6  A    between atoms: C_19  and  C_20
REMARK                            x       y       z     vdW  Elec       q    Type
REMARK                         _______ _______ _______ _____ _____    ______ ____
ROOT
ATOM      1  C   UNL     1       4.990   5.850  16.361  0.00  0.00    +0.000 A 
ATOM      2  C   UNL     1       4.534   4.536  16.505  0.00  0.00    +0.000 A 
ATOM      3  C   UNL     1       3.522   4.253  17.407  0.00  0.00    +0.000 A 
ATOM      4  C   UNL     1       2.975   5.288  18.162  0.00  0.00    +0.000 A 
ATOM      5  C   UNL     1       2.099   5.027  19.306  0.00  0.00    +0.000 A 
ATOM      6  O   UNL     1       1.410   4.031  19.458  0.00  0.00    +0.000 OA
ATOM      7  C   UNL     1       2.080   6.104  20.307  0.00  0.00    +0.000 A 
ATOM      8  C   UNL     1       2.048   7.346  19.799  0.00  0.00    +0.000 A 
ATOM      9  O   UNL     1       2.664   7.659  18.577  0.00  0.00    +0.000 OA
ATOM     10  C   UNL     1       3.347   6.623  17.943  0.00  0.00    +0.000 A 
ATOM     11  C   UNL     1       4.394   6.911  17.055  0.00  0.00    +0.000 A 
ENDROOT
BRANCH   8  12
ATOM     12  C   UNL     1       1.291   8.417  20.504  0.00  0.00    +0.000 A 
ATOM     13  C   UNL     1       1.093   8.438  21.886  0.00  0.00    +0.000 A 
ATOM     14  C   UNL     1       0.435   9.510  22.513  0.00  0.00    +0.000 A 
ATOM     15  C   UNL     1      -0.027  10.601  21.772  0.00  0.00    +0.000 A 
ATOM     16  C   UNL     1       0.190  10.625  20.402  0.00  0.00    +0.000 A 
ATOM     17  C   UNL     1       0.844   9.559  19.786  0.00  0.00    +0.000 A 
ENDBRANCH   8  12
BRANCH   3  18
ATOM     18  O   UNL     1       3.118   2.963  17.568  0.00  0.00    +0.000 OA
ATOM     19  H   UNL     1       2.673   2.867  18.426  0.00  0.00    +0.000 HD
ENDBRANCH   3  18
BRANCH   1  20
ATOM     20  O   UNL     1       6.075   5.948  15.448  0.00  0.00    +0.000 OA
BRANCH  20  22
ATOM     21  O   UNL     1       7.593   4.268  16.012  0.00  0.00    +0.000 OA
ATOM     22  C   UNL     1       7.078   5.012  15.190  0.00  0.00    +0.000 C 
BRANCH  22  23
ATOM     23  C   UNL     1       7.439   5.060  13.714  0.00  0.00    +0.000 C 
BRANCH  23  24
ATOM     24  C   UNL     1       6.659   4.070  12.883  0.00  0.00    +0.000 A 
ATOM     25  C   UNL     1       7.320   3.154  12.049  0.00  0.00    +0.000 A 
ATOM     26  C   UNL     1       6.594   2.242  11.273  0.00  0.00    +0.000 A 
ATOM     27  C   UNL     1       5.202   2.241  11.321  0.00  0.00    +0.000 A 
ATOM     28  C   UNL     1       4.536   3.141  12.149  0.00  0.00    +0.000 A 
ATOM     29  C   UNL     1       5.258   4.051  12.925  0.00  0.00    +0.000 A 
ENDBRANCH  23  24
ENDBRANCH  22  23
ENDBRANCH  20  22
ENDBRANCH   1  20
TORSDOF 6
ENDMDL
MODEL 9
REMARK VINA RESULT:      -8.1      1.846      3.394
REMARK  Name = 
REMARK  6 active torsions:
REMARK  status: ('A' for Active; 'I' for Inactive)
REMARK    1  A    between atoms: C_2  and  C_3
REMARK    2  A    between atoms: C_2  and  O_10
REMARK    3  A    between atoms: C_3  and  C_4
REMARK    4  A    between atoms: O_10  and  C_11
REMARK    5  A    between atoms: C_13  and  O_14
REMARK    6  A    between atoms: C_19  and  C_20
REMARK                            x       y       z     vdW  Elec       q    Type
REMARK                         _______ _______ _______ _____ _____    ______ ____
ROOT
ATOM      1  C   UNL     1       4.906   4.244  16.926  0.00  0.00    +0.000 A 
ATOM      2  C   UNL     1       4.144   3.098  17.176  0.00  0.00    +0.000 A 
ATOM      3  C   UNL     1       3.025   3.180  17.988  0.00  0.00    +0.000 A 
ATOM      4  C   UNL     1       2.678   4.407  18.547  0.00  0.00    +0.000 A 
ATOM      5  C   UNL     1       1.677   4.514  19.610  0.00  0.00    +0.000 A 
ATOM      6  O   UNL     1       0.763   3.729  19.804  0.00  0.00    +0.000 OA
ATOM      7  C   UNL     1       1.832   5.701  20.466  0.00  0.00    +0.000 A 
ATOM      8  C   UNL     1       2.135   6.832  19.812  0.00  0.00    +0.000 A 
ATOM      9  O   UNL     1       2.902   6.822  18.636  0.00  0.00    +0.000 OA
ATOM     10  C   UNL     1       3.371   5.581  18.211  0.00  0.00    +0.000 A 
ATOM     11  C   UNL     1       4.523   5.498  17.416  0.00  0.00    +0.000 A 
ENDROOT
BRANCH   8  12
ATOM     12  C   UNL     1       1.597   8.135  20.294  0.00  0.00    +0.000 A 
ATOM     13  C   UNL     1       1.318   9.211  19.450  0.00  0.00    +0.000 A 
ATOM     14  C   UNL     1       0.742  10.395  19.944  0.00  0.00    +0.000 A 
ATOM     15  C   UNL     1       0.413  10.524  21.296  0.00  0.00    +0.000 A 
ATOM     16  C   UNL     1       0.644   9.455  22.151  0.00  0.00    +0.000 A 
ATOM     17  C   UNL     1       1.215   8.285  21.655  0.00  0.00    +0.000 A 
ENDBRANCH   8  12
BRANCH   3  18
ATOM     18  O   UNL     1       2.316   2.049  18.257  0.00  0.00    +0.000 OA
ATOM     19  H   UNL     1       1.704   1.868  17.525  0.00  0.00    +0.000 HD
ENDBRANCH   3  18
BRANCH   1  20
ATOM     20  O   UNL     1       6.053   3.966  16.133  0.00  0.00    +0.000 OA
BRANCH  20  22
ATOM     21  O   UNL     1       7.760   5.277  15.231  0.00  0.00    +0.000 OA
ATOM     22  C   UNL     1       6.649   4.770  15.161  0.00  0.00    +0.000 C 
BRANCH  22  23
ATOM     23  C   UNL     1       5.696   4.925  13.986  0.00  0.00    +0.000 C 
BRANCH  23  24
ATOM     24  C   UNL     1       5.889   3.868  12.926  0.00  0.00    +0.000 A 
ATOM     25  C   UNL     1       4.784   3.221  12.348  0.00  0.00    +0.000 A 
ATOM     26  C   UNL     1       4.965   2.236  11.369  0.00  0.00    +0.000 A 
ATOM     27  C   UNL     1       6.250   1.885  10.964  0.00  0.00    +0.000 A 
ATOM     28  C   UNL     1       7.353   2.525  11.527  0.00  0.00    +0.000 A 
ATOM     29  C   UNL     1       7.175   3.509  12.502  0.00  0.00    +0.000 A 
ENDBRANCH  23  24
ENDBRANCH  22  23
ENDBRANCH  20  22
ENDBRANCH   1  20
TORSDOF 6
ENDMDL
