MODEL 1
REMARK VINA RESULT:      -7.4      0.000      0.000
REMARK  Name = 
REMARK  7 active torsions:
REMARK  status: ('A' for Active; 'I' for Inactive)
REMARK    1  A    between atoms: C_1  and  C_2
REMARK    2  A    between atoms: C_5  and  C_6
REMARK    3  A    between atoms: C_8  and  C_9
REMARK    4  A    between atoms: C_9  and  O_11
REMARK    5  A    between atoms: N_13  and  C_14
REMARK    6  A    between atoms: C_17  and  S_18
REMARK    7  A    between atoms: S_18  and  N_19
REMARK                            x       y       z     vdW  Elec       q    Type
REMARK                         _______ _______ _______ _____ _____    ______ ____
ROOT
ATOM      1  C   UNL     1       3.961   4.621  18.017  0.00  0.00    +0.000 A 
ATOM      2  C   UNL     1       4.961   4.108  17.205  0.00  0.00    +0.000 A 
ATOM      3  C   UNL     1       5.263   5.110  16.261  0.00  0.00    +0.000 A 
ATOM      4  N   UNL     1       4.486   6.194  16.433  0.00  0.00    +0.000 NA
ATOM      5  N   UNL     1       3.805   5.946  17.592  0.00  0.00    +0.000 N 
ENDROOT
BRANCH   1  10
ATOM      6  C   UNL     1       0.915   2.095  22.268  0.00  0.00    +0.000 C 
ATOM      7  C   UNL     1       1.716   2.700  21.154  0.00  0.00    +0.000 A 
ATOM      8  C   UNL     1       3.112   2.743  21.196  0.00  0.00    +0.000 A 
ATOM      9  C   UNL     1       3.839   3.356  20.167  0.00  0.00    +0.000 A 
ATOM     10  C   UNL     1       3.187   3.928  19.066  0.00  0.00    +0.000 A 
ATOM     11  C   UNL     1       1.792   3.803  18.996  0.00  0.00    +0.000 A 
ATOM     12  C   UNL     1       1.061   3.237  20.045  0.00  0.00    +0.000 A 
ENDBRANCH   1  10
BRANCH   5  13
ATOM     13  C   UNL     1       3.084   7.015  18.196  0.00  0.00    +0.000 A 
ATOM     14  C   UNL     1       2.790   8.156  17.434  0.00  0.00    +0.000 A 
ATOM     15  C   UNL     1       2.006   9.176  17.979  0.00  0.00    +0.000 A 
ATOM     16  C   UNL     1       1.535   9.060  19.289  0.00  0.00    +0.000 A 
ATOM     17  C   UNL     1       1.870   7.955  20.074  0.00  0.00    +0.000 A 
ATOM     18  C   UNL     1       2.652   6.935  19.529  0.00  0.00    +0.000 A 
BRANCH  16  19
ATOM     19  S   UNL     1       0.547  10.355  19.979  0.00  0.00    +0.000 S 
ATOM     20  O   UNL     1       0.988  11.624  19.446  0.00  0.00    +0.000 OA
ATOM     21  O   UNL     1      -0.835   9.949  19.979  0.00  0.00    +0.000 OA
BRANCH  19  22
ATOM     22  N   UNL     1       1.038  10.335  21.586  0.00  0.00    +0.000 NA
ATOM     23  H   UNL     1       1.915  10.844  21.686  0.00  0.00    +0.000 HD
ATOM     24  H   UNL     1       0.285  10.691  22.180  0.00  0.00    +0.000 HD
ENDBRANCH  19  22
ENDBRANCH  16  19
ENDBRANCH   5  13
BRANCH   3  25
ATOM     25  C   UNL     1       6.253   5.069  15.183  0.00  0.00    +0.000 C 
ATOM     26  O   UNL     1       7.351   5.604  15.232  0.00  0.00    +0.000 OA
BRANCH  25  27
ATOM     27  O   UNL     1       5.811   4.376  14.098  0.00  0.00    +0.000 OA
ATOM     28  H   UNL     1       6.610   4.133  13.575  0.00  0.00    +0.000 HD
ENDBRANCH  25  27
ENDBRANCH   3  25
TORSDOF 6
ENDMDL
MODEL 2
REMARK VINA RESULT:      -7.4      2.766      4.688
REMARK  Name = 
REMARK  7 active torsions:
REMARK  status: ('A' for Active; 'I' for Inactive)
REMARK    1  A    between atoms: C_1  and  C_2
REMARK    2  A    between atoms: C_5  and  C_6
REMARK    3  A    between atoms: C_8  and  C_9
REMARK    4  A    between atoms: C_9  and  O_11
REMARK    5  A    between atoms: N_13  and  C_14
REMARK    6  A    between atoms: C_17  and  S_18
REMARK    7  A    between atoms: S_18  and  N_19
REMARK                            x       y       z     vdW  Elec       q    Type
REMARK                         _______ _______ _______ _____ _____    ______ ____
ROOT
ATOM      1  C   UNL     1       3.712   5.052  18.379  0.00  0.00    +0.000 A 
ATOM      2  C   UNL     1       3.455   3.712  18.133  0.00  0.00    +0.000 A 
ATOM      3  C   UNL     1       2.175   3.448  18.657  0.00  0.00    +0.000 A 
ATOM      4  N   UNL     1       1.646   4.542  19.233  0.00  0.00    +0.000 NA
ATOM      5  N   UNL     1       2.522   5.545  18.926  0.00  0.00    +0.000 N 
ENDROOT
BRANCH   1  10
ATOM      6  C   UNL     1       8.570   8.156  17.678  0.00  0.00    +0.000 C 
ATOM      7  C   UNL     1       7.327   7.329  17.816  0.00  0.00    +0.000 A 
ATOM      8  C   UNL     1       6.210   7.547  17.005  0.00  0.00    +0.000 A 
ATOM      9  C   UNL     1       5.041   6.795  17.182  0.00  0.00    +0.000 A 
ATOM     10  C   UNL     1       4.968   5.798  18.165  0.00  0.00    +0.000 A 
ATOM     11  C   UNL     1       6.123   5.534  18.914  0.00  0.00    +0.000 A 
ATOM     12  C   UNL     1       7.273   6.316  18.774  0.00  0.00    +0.000 A 
ENDBRANCH   1  10
BRANCH   5  13
ATOM     13  C   UNL     1       2.123   6.891  19.170  0.00  0.00    +0.000 A 
ATOM     14  C   UNL     1       2.063   7.790  18.095  0.00  0.00    +0.000 A 
ATOM     15  C   UNL     1       1.587   9.088  18.297  0.00  0.00    +0.000 A 
ATOM     16  C   UNL     1       1.192   9.487  19.576  0.00  0.00    +0.000 A 
ATOM     17  C   UNL     1       1.302   8.617  20.663  0.00  0.00    +0.000 A 
ATOM     18  C   UNL     1       1.776   7.320  20.460  0.00  0.00    +0.000 A 
BRANCH  16  19
ATOM     19  S   UNL     1       0.595  11.133  19.831  0.00  0.00    +0.000 S 
ATOM     20  O   UNL     1       1.402  12.055  19.064  0.00  0.00    +0.000 OA
ATOM     21  O   UNL     1      -0.844  11.130  19.778  0.00  0.00    +0.000 OA
BRANCH  19  22
ATOM     22  N   UNL     1       1.002  11.395  21.440  0.00  0.00    +0.000 NA
ATOM     23  H   UNL     1       0.171  11.315  22.024  0.00  0.00    +0.000 HD
ATOM     24  H   UNL     1       1.758  10.763  21.711  0.00  0.00    +0.000 HD
ENDBRANCH  19  22
ENDBRANCH  16  19
ENDBRANCH   5  13
BRANCH   3  25
ATOM     25  C   UNL     1       1.437   2.183  18.650  0.00  0.00    +0.000 C 
ATOM     26  O   UNL     1       0.231   2.086  18.472  0.00  0.00    +0.000 OA
BRANCH  25  27
ATOM     27  O   UNL     1       2.243   1.110  18.882  0.00  0.00    +0.000 OA
ATOM     28  H   UNL     1       1.647   0.338  19.031  0.00  0.00    +0.000 HD
ENDBRANCH  25  27
ENDBRANCH   3  25
TORSDOF 6
ENDMDL
MODEL 3
REMARK VINA RESULT:      -7.4      0.720      1.127
REMARK  Name = 
REMARK  7 active torsions:
REMARK  status: ('A' for Active; 'I' for Inactive)
REMARK    1  A    between atoms: C_1  and  C_2
REMARK    2  A    between atoms: C_5  and  C_6
REMARK    3  A    between atoms: C_8  and  C_9
REMARK    4  A    between atoms: C_9  and  O_11
REMARK    5  A    between atoms: N_13  and  C_14
REMARK    6  A    between atoms: C_17  and  S_18
REMARK    7  A    between atoms: S_18  and  N_19
REMARK                            x       y       z     vdW  Elec       q    Type
REMARK                         _______ _______ _______ _____ _____    ______ ____
ROOT
ATOM      1  C   UNL     1       3.906   4.604  18.070  0.00  0.00    +0.000 A 
ATOM      2  C   UNL     1       4.900   4.092  17.250  0.00  0.00    +0.000 A 
ATOM      3  C   UNL     1       5.202   5.100  16.312  0.00  0.00    +0.000 A 
ATOM      4  N   UNL     1       4.431   6.186  16.496  0.00  0.00    +0.000 NA
ATOM      5  N   UNL     1       3.755   5.932  17.657  0.00  0.00    +0.000 N 
ENDROOT
BRANCH   1  10
ATOM      6  C   UNL     1       0.863   2.063  22.314  0.00  0.00    +0.000 C 
ATOM      7  C   UNL     1       1.664   2.672  21.203  0.00  0.00    +0.000 A 
ATOM      8  C   UNL     1       3.059   2.742  21.260  0.00  0.00    +0.000 A 
ATOM      9  C   UNL     1       3.785   3.359  20.232  0.00  0.00    +0.000 A 
ATOM     10  C   UNL     1       3.134   3.907  19.118  0.00  0.00    +0.000 A 
ATOM     11  C   UNL     1       1.743   3.754  19.035  0.00  0.00    +0.000 A 
ATOM     12  C   UNL     1       1.011   3.185  20.081  0.00  0.00    +0.000 A 
ENDBRANCH   1  10
BRANCH   5  13
ATOM     13  C   UNL     1       3.042   7.001  18.272  0.00  0.00    +0.000 A 
ATOM     14  C   UNL     1       2.749   8.149  17.520  0.00  0.00    +0.000 A 
ATOM     15  C   UNL     1       1.973   9.168  18.076  0.00  0.00    +0.000 A 
ATOM     16  C   UNL     1       1.508   9.045  19.388  0.00  0.00    +0.000 A 
ATOM     17  C   UNL     1       1.842   7.932  20.164  0.00  0.00    +0.000 A 
ATOM     18  C   UNL     1       2.617   6.913  19.607  0.00  0.00    +0.000 A 
BRANCH  16  19
ATOM     19  S   UNL     1       0.530  10.339  20.093  0.00  0.00    +0.000 S 
ATOM     20  O   UNL     1      -0.868   9.985  19.997  0.00  0.00    +0.000 OA
ATOM     21  O   UNL     1       1.138  10.779  21.322  0.00  0.00    +0.000 OA
BRANCH  19  22
ATOM     22  N   UNL     1       0.766  11.582  18.986  0.00  0.00    +0.000 NA
ATOM     23  H   UNL     1       0.037  11.555  18.276  0.00  0.00    +0.000 HD
ATOM     24  H   UNL     1       0.828  12.475  19.480  0.00  0.00    +0.000 HD
ENDBRANCH  19  22
ENDBRANCH  16  19
ENDBRANCH   5  13
BRANCH   3  25
ATOM     25  C   UNL     1       6.186   5.062  15.229  0.00  0.00    +0.000 C 
ATOM     26  O   UNL     1       6.030   4.467  14.173  0.00  0.00    +0.000 OA
BRANCH  25  27
ATOM     27  O   UNL     1       7.318   5.757  15.531  0.00  0.00    +0.000 OA
ATOM     28  H   UNL     1       7.117   6.281  16.341  0.00  0.00    +0.000 HD
ENDBRANCH  25  27
ENDBRANCH   3  25
TORSDOF 6
ENDMDL
MODEL 4
REMARK VINA RESULT:      -7.4      2.897      4.869
REMARK  Name = 
REMARK  7 active torsions:
REMARK  status: ('A' for Active; 'I' for Inactive)
REMARK    1  A    between atoms: C_1  and  C_2
REMARK    2  A    between atoms: C_5  and  C_6
REMARK    3  A    between atoms: C_8  and  C_9
REMARK    4  A    between atoms: C_9  and  O_11
REMARK    5  A    between atoms: N_13  and  C_14
REMARK    6  A    between atoms: C_17  and  S_18
REMARK    7  A    between atoms: S_18  and  N_19
REMARK                            x       y       z     vdW  Elec       q    Type
REMARK                         _______ _______ _______ _____ _____    ______ ____
ROOT
ATOM      1  C   UNL     1       4.740   4.982  18.267  0.00  0.00    +0.000 A 
ATOM      2  C   UNL     1       4.802   3.614  18.051  0.00  0.00    +0.000 A 
ATOM      3  C   UNL     1       3.562   3.088  18.464  0.00  0.00    +0.000 A 
ATOM      4  N   UNL     1       2.757   4.052  18.945  0.00  0.00    +0.000 NA
ATOM      5  N   UNL     1       3.424   5.216  18.681  0.00  0.00    +0.000 N 
ENDROOT
BRANCH   1  10
ATOM      6  C   UNL     1       8.884   9.037  17.929  0.00  0.00    +0.000 C 
ATOM      7  C   UNL     1       7.829   7.972  17.971  0.00  0.00    +0.000 A 
ATOM      8  C   UNL     1       6.679   8.052  17.181  0.00  0.00    +0.000 A 
ATOM      9  C   UNL     1       5.683   7.070  17.271  0.00  0.00    +0.000 A 
ATOM     10  C   UNL     1       5.822   5.979  18.140  0.00  0.00    +0.000 A 
ATOM     11  C   UNL     1       7.018   5.869  18.863  0.00  0.00    +0.000 A 
ATOM     12  C   UNL     1       7.990   6.873  18.814  0.00  0.00    +0.000 A 
ENDBRANCH   1  10
BRANCH   5  13
ATOM     13  C   UNL     1       2.724   6.447  18.834  0.00  0.00    +0.000 A 
ATOM     14  C   UNL     1       2.267   6.819  20.107  0.00  0.00    +0.000 A 
ATOM     15  C   UNL     1       1.658   8.062  20.294  0.00  0.00    +0.000 A 
ATOM     16  C   UNL     1       1.492   8.921  19.204  0.00  0.00    +0.000 A 
ATOM     17  C   UNL     1       1.892   8.535  17.923  0.00  0.00    +0.000 A 
ATOM     18  C   UNL     1       2.501   7.294  17.737  0.00  0.00    +0.000 A 
BRANCH  16  19
ATOM     19  S   UNL     1       0.717  10.493  19.442  0.00  0.00    +0.000 S 
ATOM     20  O   UNL     1      -0.670  10.403  19.046  0.00  0.00    +0.000 OA
ATOM     21  O   UNL     1       1.129  11.039  20.710  0.00  0.00    +0.000 OA
BRANCH  19  22
ATOM     22  N   UNL     1       1.472  11.425  18.266  0.00  0.00    +0.000 NA
ATOM     23  H   UNL     1       0.869  11.506  17.449  0.00  0.00    +0.000 HD
ATOM     24  H   UNL     1       1.749  12.324  18.665  0.00  0.00    +0.000 HD
ENDBRANCH  19  22
ENDBRANCH  16  19
ENDBRANCH   5  13
BRANCH   3  25
ATOM     25  C   UNL     1       3.117   1.693  18.438  0.00  0.00    +0.000 C 
ATOM     26  O   UNL     1       3.866   0.727  18.458  0.00  0.00    +0.000 OA
BRANCH  25  27
ATOM     27  O   UNL     1       1.761   1.582  18.374  0.00  0.00    +0.000 OA
ATOM     28  H   UNL     1       1.504   0.899  19.036  0.00  0.00    +0.000 HD
ENDBRANCH  25  27
ENDBRANCH   3  25
TORSDOF 6
ENDMDL
MODEL 5
REMARK VINA RESULT:      -7.3      0.230      1.184
REMARK  Name = 
REMARK  7 active torsions:
REMARK  status: ('A' for Active; 'I' for Inactive)
REMARK    1  A    between atoms: C_1  and  C_2
REMARK    2  A    between atoms: C_5  and  C_6
REMARK    3  A    between atoms: C_8  and  C_9
REMARK    4  A    between atoms: C_9  and  O_11
REMARK    5  A    between atoms: N_13  and  C_14
REMARK    6  A    between atoms: C_17  and  S_18
REMARK    7  A    between atoms: S_18  and  N_19
REMARK                            x       y       z     vdW  Elec       q    Type
REMARK                         _______ _______ _______ _____ _____    ______ ____
ROOT
ATOM      1  C   UNL     1       3.930   4.710  18.103  0.00  0.00    +0.000 A 
ATOM      2  C   UNL     1       4.980   4.240  17.330  0.00  0.00    +0.000 A 
ATOM      3  C   UNL     1       5.262   5.246  16.385  0.00  0.00    +0.000 A 
ATOM      4  N   UNL     1       4.427   6.292  16.520  0.00  0.00    +0.000 NA
ATOM      5  N   UNL     1       3.723   6.021  17.659  0.00  0.00    +0.000 N 
ENDROOT
BRANCH   1  10
ATOM      6  C   UNL     1       0.888   2.073  22.289  0.00  0.00    +0.000 C 
ATOM      7  C   UNL     1       1.688   2.708  21.191  0.00  0.00    +0.000 A 
ATOM      8  C   UNL     1       3.084   2.763  21.242  0.00  0.00    +0.000 A 
ATOM      9  C   UNL     1       3.809   3.403  20.228  0.00  0.00    +0.000 A 
ATOM     10  C   UNL     1       3.158   3.990  19.135  0.00  0.00    +0.000 A 
ATOM     11  C   UNL     1       1.764   3.852  19.055  0.00  0.00    +0.000 A 
ATOM     12  C   UNL     1       1.034   3.259  20.089  0.00  0.00    +0.000 A 
ENDBRANCH   1  10
BRANCH   5  13
ATOM     13  C   UNL     1       2.929   7.059  18.227  0.00  0.00    +0.000 A 
ATOM     14  C   UNL     1       2.527   6.955  19.567  0.00  0.00    +0.000 A 
ATOM     15  C   UNL     1       1.827   8.003  20.169  0.00  0.00    +0.000 A 
ATOM     16  C   UNL     1       1.514   9.143  19.423  0.00  0.00    +0.000 A 
ATOM     17  C   UNL     1       1.859   9.230  18.073  0.00  0.00    +0.000 A 
ATOM     18  C   UNL     1       2.561   8.183  17.473  0.00  0.00    +0.000 A 
BRANCH  16  19
ATOM     19  S   UNL     1       0.622  10.466  20.185  0.00  0.00    +0.000 S 
ATOM     20  O   UNL     1       1.197  11.727  19.773  0.00  0.00    +0.000 OA
ATOM     21  O   UNL     1      -0.791  10.194  20.107  0.00  0.00    +0.000 OA
BRANCH  19  22
ATOM     22  N   UNL     1       1.044  10.273  21.800  0.00  0.00    +0.000 NA
ATOM     23  H   UNL     1       1.523   9.383  21.928  0.00  0.00    +0.000 HD
ATOM     24  H   UNL     1       1.587  11.081  22.113  0.00  0.00    +0.000 HD
ENDBRANCH  19  22
ENDBRANCH  16  19
ENDBRANCH   5  13
BRANCH   3  25
ATOM     25  C   UNL     1       6.288   5.245  15.340  0.00  0.00    +0.000 C 
ATOM     26  O   UNL     1       6.172   4.690  14.257  0.00  0.00    +0.000 OA
BRANCH  25  27
ATOM     27  O   UNL     1       7.409   5.924  15.711  0.00  0.00    +0.000 OA
ATOM     28  H   UNL     1       7.866   5.365  16.382  0.00  0.00    +0.000 HD
ENDBRANCH  25  27
ENDBRANCH   3  25
TORSDOF 6
ENDMDL
MODEL 6
REMARK VINA RESULT:      -7.3      2.781      4.792
REMARK  Name = 
REMARK  7 active torsions:
REMARK  status: ('A' for Active; 'I' for Inactive)
REMARK    1  A    between atoms: C_1  and  C_2
REMARK    2  A    between atoms: C_5  and  C_6
REMARK    3  A    between atoms: C_8  and  C_9
REMARK    4  A    between atoms: C_9  and  O_11
REMARK    5  A    between atoms: N_13  and  C_14
REMARK    6  A    between atoms: C_17  and  S_18
REMARK    7  A    between atoms: S_18  and  N_19
REMARK                            x       y       z     vdW  Elec       q    Type
REMARK                         _______ _______ _______ _____ _____    ______ ____
ROOT
ATOM      1  C   UNL     1       4.599   4.925  18.353  0.00  0.00    +0.000 A 
ATOM      2  C   UNL     1       4.624   3.557  18.129  0.00  0.00    +0.000 A 
ATOM      3  C   UNL     1       3.396   3.052  18.600  0.00  0.00    +0.000 A 
ATOM      4  N   UNL     1       2.634   4.029  19.123  0.00  0.00    +0.000 NA
ATOM      5  N   UNL     1       3.309   5.181  18.831  0.00  0.00    +0.000 N 
ENDROOT
BRANCH   1  10
ATOM      6  C   UNL     1       8.792   8.907  17.821  0.00  0.00    +0.000 C 
ATOM      7  C   UNL     1       7.724   7.859  17.913  0.00  0.00    +0.000 A 
ATOM      8  C   UNL     1       6.563   7.929  17.138  0.00  0.00    +0.000 A 
ATOM      9  C   UNL     1       5.555   6.964  17.274  0.00  0.00    +0.000 A 
ATOM     10  C   UNL     1       5.692   5.902  18.178  0.00  0.00    +0.000 A 
ATOM     11  C   UNL     1       6.898   5.799  18.886  0.00  0.00    +0.000 A 
ATOM     12  C   UNL     1       7.882   6.786  18.790  0.00  0.00    +0.000 A 
ENDBRANCH   1  10
BRANCH   5  13
ATOM     13  C   UNL     1       2.641   6.425  19.022  0.00  0.00    +0.000 A 
ATOM     14  C   UNL     1       2.167   6.755  20.301  0.00  0.00    +0.000 A 
ATOM     15  C   UNL     1       1.590   8.007  20.529  0.00  0.00    +0.000 A 
ATOM     16  C   UNL     1       1.472   8.916  19.474  0.00  0.00    +0.000 A 
ATOM     17  C   UNL     1       1.888   8.573  18.186  0.00  0.00    +0.000 A 
ATOM     18  C   UNL     1       2.466   7.323  17.959  0.00  0.00    +0.000 A 
BRANCH  16  19
ATOM     19  S   UNL     1       0.736  10.498  19.764  0.00  0.00    +0.000 S 
ATOM     20  O   UNL     1       1.493  11.510  19.062  0.00  0.00    +0.000 OA
ATOM     21  O   UNL     1      -0.696  10.382  19.656  0.00  0.00    +0.000 OA
BRANCH  19  22
ATOM     22  N   UNL     1       1.062  10.729  21.396  0.00  0.00    +0.000 NA
ATOM     23  H   UNL     1       1.561  11.607  21.528  0.00  0.00    +0.000 HD
ATOM     24  H   UNL     1       0.195  10.663  21.933  0.00  0.00    +0.000 HD
ENDBRANCH  19  22
ENDBRANCH  16  19
ENDBRANCH   5  13
BRANCH   3  25
ATOM     25  C   UNL     1       2.923   1.666  18.590  0.00  0.00    +0.000 C 
ATOM     26  O   UNL     1       1.769   1.327  18.808  0.00  0.00    +0.000 OA
BRANCH  25  27
ATOM     27  O   UNL     1       3.921   0.778  18.326  0.00  0.00    +0.000 OA
ATOM     28  H   UNL     1       4.512   1.209  17.665  0.00  0.00    +0.000 HD
ENDBRANCH  25  27
ENDBRANCH   3  25
TORSDOF 6
ENDMDL
MODEL 7
REMARK VINA RESULT:      -7.2      2.890      4.826
REMARK  Name = 
REMARK  7 active torsions:
REMARK  status: ('A' for Active; 'I' for Inactive)
REMARK    1  A    between atoms: C_1  and  C_2
REMARK    2  A    between atoms: C_5  and  C_6
REMARK    3  A    between atoms: C_8  and  C_9
REMARK    4  A    between atoms: C_9  and  O_11
REMARK    5  A    between atoms: N_13  and  C_14
REMARK    6  A    between atoms: C_17  and  S_18
REMARK    7  A    between atoms: S_18  and  N_19
REMARK                            x       y       z     vdW  Elec       q    Type
REMARK                         _______ _______ _______ _____ _____    ______ ____
ROOT
ATOM      1  C   UNL     1       4.652   4.977  18.346  0.00  0.00    +0.000 A 
ATOM      2  C   UNL     1       4.656   3.606  18.137  0.00  0.00    +0.000 A 
ATOM      3  C   UNL     1       3.412   3.129  18.596  0.00  0.00    +0.000 A 
ATOM      4  N   UNL     1       2.661   4.125  19.098  0.00  0.00    +0.000 NA
ATOM      5  N   UNL     1       3.361   5.261  18.804  0.00  0.00    +0.000 N 
ENDROOT
BRANCH   1  10
ATOM      6  C   UNL     1       8.919   8.881  17.823  0.00  0.00    +0.000 C 
ATOM      7  C   UNL     1       7.833   7.852  17.914  0.00  0.00    +0.000 A 
ATOM      8  C   UNL     1       6.703   7.906  17.094  0.00  0.00    +0.000 A 
ATOM      9  C   UNL     1       5.678   6.961  17.228  0.00  0.00    +0.000 A 
ATOM     10  C   UNL     1       5.765   5.932  18.175  0.00  0.00    +0.000 A 
ATOM     11  C   UNL     1       6.941   5.841  18.933  0.00  0.00    +0.000 A 
ATOM     12  C   UNL     1       7.943   6.811  18.837  0.00  0.00    +0.000 A 
ENDBRANCH   1  10
BRANCH   5  13
ATOM     13  C   UNL     1       2.712   6.519  18.972  0.00  0.00    +0.000 A 
ATOM     14  C   UNL     1       2.547   7.356  17.858  0.00  0.00    +0.000 A 
ATOM     15  C   UNL     1       1.834   8.551  17.984  0.00  0.00    +0.000 A 
ATOM     16  C   UNL     1       1.306   8.913  19.226  0.00  0.00    +0.000 A 
ATOM     17  C   UNL     1       1.516   8.114  20.352  0.00  0.00    +0.000 A 
ATOM     18  C   UNL     1       2.227   6.920  20.226  0.00  0.00    +0.000 A 
BRANCH  16  19
ATOM     19  S   UNL     1       0.410  10.429  19.384  0.00  0.00    +0.000 S 
ATOM     20  O   UNL     1      -0.580  10.290  20.429  0.00  0.00    +0.000 OA
ATOM     21  O   UNL     1       1.332  11.534  19.329  0.00  0.00    +0.000 OA
BRANCH  19  22
ATOM     22  N   UNL     1      -0.449  10.467  17.940  0.00  0.00    +0.000 NA
ATOM     23  H   UNL     1      -0.394  11.397  17.529  0.00  0.00    +0.000 HD
ATOM     24  H   UNL     1      -0.116   9.724  17.322  0.00  0.00    +0.000 HD
ENDBRANCH  19  22
ENDBRANCH  16  19
ENDBRANCH   5  13
BRANCH   3  25
ATOM     25  C   UNL     1       2.915   1.751  18.595  0.00  0.00    +0.000 C 
ATOM     26  O   UNL     1       1.767   1.430  18.865  0.00  0.00    +0.000 OA
BRANCH  25  27
ATOM     27  O   UNL     1       3.882   0.850  18.271  0.00  0.00    +0.000 OA
ATOM     28  H   UNL     1       3.530  -0.039  18.513  0.00  0.00    +0.000 HD
ENDBRANCH  25  27
ENDBRANCH   3  25
TORSDOF 6
ENDMDL
MODEL 8
REMARK VINA RESULT:      -7.2      0.757      1.378
REMARK  Name = 
REMARK  7 active torsions:
REMARK  status: ('A' for Active; 'I' for Inactive)
REMARK    1  A    between atoms: C_1  and  C_2
REMARK    2  A    between atoms: C_5  and  C_6
REMARK    3  A    between atoms: C_8  and  C_9
REMARK    4  A    between atoms: C_9  and  O_11
REMARK    5  A    between atoms: N_13  and  C_14
REMARK    6  A    between atoms: C_17  and  S_18
REMARK    7  A    between atoms: S_18  and  N_19
REMARK                            x       y       z     vdW  Elec       q    Type
REMARK                         _______ _______ _______ _____ _____    ______ ____
ROOT
ATOM      1  C   UNL     1       4.029   4.636  18.164  0.00  0.00    +0.000 A 
ATOM      2  C   UNL     1       5.114   4.153  17.450  0.00  0.00    +0.000 A 
ATOM      3  C   UNL     1       5.427   5.132  16.487  0.00  0.00    +0.000 A 
ATOM      4  N   UNL     1       4.579   6.173  16.554  0.00  0.00    +0.000 NA
ATOM      5  N   UNL     1       3.830   5.931  17.671  0.00  0.00    +0.000 N 
ENDROOT
BRANCH   1  10
ATOM      6  C   UNL     1       0.851   2.096  22.309  0.00  0.00    +0.000 C 
ATOM      7  C   UNL     1       1.685   2.706  21.222  0.00  0.00    +0.000 A 
ATOM      8  C   UNL     1       3.081   2.705  21.283  0.00  0.00    +0.000 A 
ATOM      9  C   UNL     1       3.840   3.322  20.280  0.00  0.00    +0.000 A 
ATOM     10  C   UNL     1       3.221   3.941  19.185  0.00  0.00    +0.000 A 
ATOM     11  C   UNL     1       1.823   3.860  19.094  0.00  0.00    +0.000 A 
ATOM     12  C   UNL     1       1.062   3.290  20.118  0.00  0.00    +0.000 A 
ENDBRANCH   1  10
BRANCH   5  13
ATOM     13  C   UNL     1       3.005   6.979  18.174  0.00  0.00    +0.000 A 
ATOM     14  C   UNL     1       2.563   6.921  19.504  0.00  0.00    +0.000 A 
ATOM     15  C   UNL     1       1.830   7.981  20.042  0.00  0.00    +0.000 A 
ATOM     16  C   UNL     1       1.525   9.086  19.243  0.00  0.00    +0.000 A 
ATOM     17  C   UNL     1       1.911   9.126  17.901  0.00  0.00    +0.000 A 
ATOM     18  C   UNL     1       2.645   8.067  17.365  0.00  0.00    +0.000 A 
BRANCH  16  19
ATOM     19  S   UNL     1       0.592  10.425  19.924  0.00  0.00    +0.000 S 
ATOM     20  O   UNL     1      -0.804  10.054  19.976  0.00  0.00    +0.000 OA
ATOM     21  O   UNL     1       1.295  10.965  21.059  0.00  0.00    +0.000 OA
BRANCH  19  22
ATOM     22  N   UNL     1       0.716  11.578  18.708  0.00  0.00    +0.000 NA
ATOM     23  H   UNL     1       1.696  11.727  18.472  0.00  0.00    +0.000 HD
ATOM     24  H   UNL     1       0.138  11.302  17.911  0.00  0.00    +0.000 HD
ENDBRANCH  19  22
ENDBRANCH  16  19
ENDBRANCH   5  13
BRANCH   3  25
ATOM     25  C   UNL     1       6.495   5.108  15.485  0.00  0.00    +0.000 C 
ATOM     26  O   UNL     1       7.419   5.908  15.440  0.00  0.00    +0.000 OA
BRANCH  25  27
ATOM     27  O   UNL     1       6.342   4.096  14.587  0.00  0.00    +0.000 OA
ATOM     28  H   UNL     1       7.015   4.243  13.882  0.00  0.00    +0.000 HD
ENDBRANCH  25  27
ENDBRANCH   3  25
TORSDOF 6
ENDMDL
MODEL 9
REMARK VINA RESULT:      -7.2      2.872      4.863
REMARK  Name = 
REMARK  7 active torsions:
REMARK  status: ('A' for Active; 'I' for Inactive)
REMARK    1  A    between atoms: C_1  and  C_2
REMARK    2  A    between atoms: C_5  and  C_6
REMARK    3  A    between atoms: C_8  and  C_9
REMARK    4  A    between atoms: C_9  and  O_11
REMARK    5  A    between atoms: N_13  and  C_14
REMARK    6  A    between atoms: C_17  and  S_18
REMARK    7  A    between atoms: S_18  and  N_19
REMARK                            x       y       z     vdW  Elec       q    Type
REMARK                         _______ _______ _______ _____ _____    ______ ____
ROOT
ATOM      1  C   UNL     1       3.721   5.064  18.334  0.00  0.00    +0.000 A 
ATOM      2  C   UNL     1       3.501   3.710  18.133  0.00  0.00    +0.000 A 
ATOM      3  C   UNL     1       2.205   3.440  18.613  0.00  0.00    +0.000 A 
ATOM      4  N   UNL     1       1.630   4.545  19.121  0.00  0.00    +0.000 NA
ATOM      5  N   UNL     1       2.498   5.553  18.810  0.00  0.00    +0.000 N 
ENDROOT
BRANCH   1  10
ATOM      6  C   UNL     1       8.549   8.234  17.727  0.00  0.00    +0.000 C 
ATOM      7  C   UNL     1       7.313   7.392  17.840  0.00  0.00    +0.000 A 
ATOM      8  C   UNL     1       6.194   7.625  17.037  0.00  0.00    +0.000 A 
ATOM      9  C   UNL     1       5.032   6.856  17.192  0.00  0.00    +0.000 A 
ATOM     10  C   UNL     1       4.969   5.829  18.143  0.00  0.00    +0.000 A 
ATOM     11  C   UNL     1       6.128   5.552  18.882  0.00  0.00    +0.000 A 
ATOM     12  C   UNL     1       7.270   6.348  18.766  0.00  0.00    +0.000 A 
ENDBRANCH   1  10
BRANCH   5  13
ATOM     13  C   UNL     1       2.062   6.899  18.981  0.00  0.00    +0.000 A 
ATOM     14  C   UNL     1       1.756   7.358  20.271  0.00  0.00    +0.000 A 
ATOM     15  C   UNL     1       1.414   8.698  20.471  0.00  0.00    +0.000 A 
ATOM     16  C   UNL     1       1.361   9.568  19.379  0.00  0.00    +0.000 A 
ATOM     17  C   UNL     1       1.608   9.107  18.085  0.00  0.00    +0.000 A 
ATOM     18  C   UNL     1       1.951   7.768  17.885  0.00  0.00    +0.000 A 
BRANCH  16  19
ATOM     19  S   UNL     1       0.923  11.262  19.635  0.00  0.00    +0.000 S 
ATOM     20  O   UNL     1      -0.470  11.449  19.296  0.00  0.00    +0.000 OA
ATOM     21  O   UNL     1       1.488  11.717  20.879  0.00  0.00    +0.000 OA
BRANCH  19  22
ATOM     22  N   UNL     1       1.797  12.025  18.420  0.00  0.00    +0.000 NA
ATOM     23  H   UNL     1       1.932  11.387  17.637  0.00  0.00    +0.000 HD
ATOM     24  H   UNL     1       1.337  12.901  18.161  0.00  0.00    +0.000 HD
ENDBRANCH  19  22
ENDBRANCH  16  19
ENDBRANCH   5  13
BRANCH   3  25
ATOM     25  C   UNL     1       1.493   2.160  18.627  0.00  0.00    +0.000 C 
ATOM     26  O   UNL     1       0.285   2.038  18.486  0.00  0.00    +0.000 OA
BRANCH  25  27
ATOM     27  O   UNL     1       2.328   1.104  18.833  0.00  0.00    +0.000 OA
ATOM     28  H   UNL     1       2.417   0.643  17.967  0.00  0.00    +0.000 HD
ENDBRANCH  25  27
ENDBRANCH   3  25
TORSDOF 6
ENDMDL
