MODEL 1
REMARK VINA RESULT:      -6.2      0.000      0.000
REMARK  Name = 
REMARK  6 active torsions:
REMARK  status: ('A' for Active; 'I' for Inactive)
REMARK    1  A    between atoms: C_1  and  C_2
REMARK    2  A    between atoms: C_2  and  C_3
REMARK    3  A    between atoms: C_19  and  O_20
REMARK    4  A    between atoms: C_19  and  C_21
REMARK    5  A    between atoms: C_21  and  O_23
REMARK    6  A    between atoms: O_23  and  C_24
REMARK                            x       y       z     vdW  Elec       q    Type
REMARK                         _______ _______ _______ _____ _____    ______ ____
ROOT
ATOM      1  C   UNL     1      -4.012  13.758  22.016  0.00  0.00    +0.000 C 
ATOM      2  C   UNL     1      -3.582  15.075  21.390  0.00  0.00    +0.000 C 
ATOM      3  C   UNL     1      -2.288  15.429  21.456  0.00  0.00    +0.000 C 
ATOM      4  C   UNL     1      -1.302  14.575  22.198  0.00  0.00    +0.000 C 
ATOM      5  N   UNL     1      -1.452  13.134  21.947  0.00  0.00    +0.000 NA
ATOM      6  C   UNL     1      -0.428  12.717  20.945  0.00  0.00    +0.000 C 
ATOM      7  C   UNL     1      -0.684  11.428  20.138  0.00  0.00    +0.000 C 
ATOM      8  C   UNL     1      -2.040  11.542  19.562  0.00  0.00    +0.000 A 
ATOM      9  C   UNL     1      -3.027  12.152  20.297  0.00  0.00    +0.000 A 
ATOM     10  N   UNL     1      -4.154  12.222  19.523  0.00  0.00    +0.000 N 
ATOM     11  C   UNL     1      -3.887  11.700  18.263  0.00  0.00    +0.000 A 
ATOM     12  C   UNL     1      -4.679  11.594  17.104  0.00  0.00    +0.000 A 
ATOM     13  C   UNL     1      -4.106  11.042  15.955  0.00  0.00    +0.000 A 
ATOM     14  C   UNL     1      -2.788  10.600  15.951  0.00  0.00    +0.000 A 
ATOM     15  C   UNL     1      -2.006  10.699  17.104  0.00  0.00    +0.000 A 
ATOM     16  C   UNL     1      -2.556  11.255  18.277  0.00  0.00    +0.000 A 
ATOM     17  C   UNL     1      -5.393  12.864  19.963  0.00  0.00    +0.000 C 
ATOM     18  C   UNL     1      -5.367  13.226  21.462  0.00  0.00    +0.000 C 
ATOM     19  C   UNL     1      -2.871  12.700  21.698  0.00  0.00    +0.000 C 
ENDROOT
BRANCH   1  21
ATOM     20  C   UNL     1      -4.159  12.651  24.385  0.00  0.00    +0.000 C 
ATOM     21  C   UNL     1      -4.200  13.943  23.564  0.00  0.00    +0.000 C 
ENDBRANCH   1  21
BRANCH  17  22
ATOM     22  O   UNL     1      -5.525  14.100  19.245  0.00  0.00    +0.000 OA
ATOM     23  H   UNL     1      -4.808  14.682  19.551  0.00  0.00    +0.000 HD
ENDBRANCH  17  22
BRANCH  17  24
ATOM     24  C   UNL     1      -6.605  11.930  19.715  0.00  0.00    +0.000 C 
ATOM     25  O   UNL     1      -7.529  12.189  18.947  0.00  0.00    +0.000 OA
BRANCH  24  26
ATOM     26  O   UNL     1      -6.510  10.781  20.447  0.00  0.00    +0.000 OA
ATOM     27  C   UNL     1      -7.125   9.627  19.871  0.00  0.00    +0.000 C 
ENDBRANCH  24  26
ENDBRANCH  17  24
TORSDOF 4
ENDMDL
MODEL 2
REMARK VINA RESULT:      -6.1      2.572      4.512
REMARK  Name = 
REMARK  6 active torsions:
REMARK  status: ('A' for Active; 'I' for Inactive)
REMARK    1  A    between atoms: C_1  and  C_2
REMARK    2  A    between atoms: C_2  and  C_3
REMARK    3  A    between atoms: C_19  and  O_20
REMARK    4  A    between atoms: C_19  and  C_21
REMARK    5  A    between atoms: C_21  and  O_23
REMARK    6  A    between atoms: O_23  and  C_24
REMARK                            x       y       z     vdW  Elec       q    Type
REMARK                         _______ _______ _______ _____ _____    ______ ____
ROOT
ATOM      1  C   UNL     1      -2.317  13.903  22.505  0.00  0.00    +0.000 C 
ATOM      2  C   UNL     1      -2.392  12.659  23.375  0.00  0.00    +0.000 C 
ATOM      3  C   UNL     1      -3.590  12.259  23.830  0.00  0.00    +0.000 C 
ATOM      4  C   UNL     1      -4.821  13.070  23.545  0.00  0.00    +0.000 C 
ATOM      5  N   UNL     1      -4.908  13.558  22.161  0.00  0.00    +0.000 NA
ATOM      6  C   UNL     1      -5.826  12.663  21.398  0.00  0.00    +0.000 C 
ATOM      7  C   UNL     1      -5.697  12.629  19.862  0.00  0.00    +0.000 C 
ATOM      8  C   UNL     1      -4.272  12.387  19.554  0.00  0.00    +0.000 A 
ATOM      9  C   UNL     1      -3.312  12.956  20.356  0.00  0.00    +0.000 A 
ATOM     10  N   UNL     1      -2.086  12.514  19.934  0.00  0.00    +0.000 N 
ATOM     11  C   UNL     1      -2.251  11.618  18.885  0.00  0.00    +0.000 A 
ATOM     12  C   UNL     1      -1.325  10.852  18.151  0.00  0.00    +0.000 A 
ATOM     13  C   UNL     1      -1.808   9.996  17.158  0.00  0.00    +0.000 A 
ATOM     14  C   UNL     1      -3.170   9.902  16.892  0.00  0.00    +0.000 A 
ATOM     15  C   UNL     1      -4.087  10.667  17.616  0.00  0.00    +0.000 A 
ATOM     16  C   UNL     1      -3.628  11.536  18.626  0.00  0.00    +0.000 A 
ATOM     17  C   UNL     1      -0.831  12.871  20.595  0.00  0.00    +0.000 C 
ATOM     18  C   UNL     1      -1.018  13.981  21.649  0.00  0.00    +0.000 C 
ATOM     19  C   UNL     1      -3.575  13.866  21.535  0.00  0.00    +0.000 C 
ENDROOT
BRANCH   1  21
ATOM     20  C   UNL     1      -1.375  15.159  24.602  0.00  0.00    +0.000 C 
ATOM     21  C   UNL     1      -2.337  15.186  23.411  0.00  0.00    +0.000 C 
ENDBRANCH   1  21
BRANCH  17  22
ATOM     22  O   UNL     1      -0.361  11.712  21.299  0.00  0.00    +0.000 OA
ATOM     23  H   UNL     1      -1.143  11.171  21.504  0.00  0.00    +0.000 HD
ENDBRANCH  17  22
BRANCH  17  24
ATOM     24  C   UNL     1       0.207  13.366  19.556  0.00  0.00    +0.000 C 
ATOM     25  O   UNL     1       0.006  14.286  18.766  0.00  0.00    +0.000 OA
BRANCH  24  26
ATOM     26  O   UNL     1       1.373  12.661  19.637  0.00  0.00    +0.000 OA
ATOM     27  C   UNL     1       2.130  12.574  18.428  0.00  0.00    +0.000 C 
ENDBRANCH  24  26
ENDBRANCH  17  24
TORSDOF 4
ENDMDL
MODEL 3
REMARK VINA RESULT:      -6.1      9.143     11.741
REMARK  Name = 
REMARK  6 active torsions:
REMARK  status: ('A' for Active; 'I' for Inactive)
REMARK    1  A    between atoms: C_1  and  C_2
REMARK    2  A    between atoms: C_2  and  C_3
REMARK    3  A    between atoms: C_19  and  O_20
REMARK    4  A    between atoms: C_19  and  C_21
REMARK    5  A    between atoms: C_21  and  O_23
REMARK    6  A    between atoms: O_23  and  C_24
REMARK                            x       y       z     vdW  Elec       q    Type
REMARK                         _______ _______ _______ _____ _____    ______ ____
ROOT
ATOM      1  C   UNL     1       4.044   2.884  18.693  0.00  0.00    +0.000 C 
ATOM      2  C   UNL     1       2.988   2.503  17.667  0.00  0.00    +0.000 C 
ATOM      3  C   UNL     1       1.779   2.110  18.100  0.00  0.00    +0.000 C 
ATOM      4  C   UNL     1       1.503   1.979  19.569  0.00  0.00    +0.000 C 
ATOM      5  N   UNL     1       2.027   3.090  20.378  0.00  0.00    +0.000 NA
ATOM      6  C   UNL     1       0.908   4.030  20.674  0.00  0.00    +0.000 C 
ATOM      7  C   UNL     1       1.260   5.486  21.041  0.00  0.00    +0.000 C 
ATOM      8  C   UNL     1       2.170   5.988  19.990  0.00  0.00    +0.000 A 
ATOM      9  C   UNL     1       3.090   5.129  19.441  0.00  0.00    +0.000 A 
ATOM     10  N   UNL     1       3.744   5.789  18.434  0.00  0.00    +0.000 N 
ATOM     11  C   UNL     1       3.213   7.066  18.296  0.00  0.00    +0.000 A 
ATOM     12  C   UNL     1       3.492   8.103  17.385  0.00  0.00    +0.000 A 
ATOM     13  C   UNL     1       2.751   9.285  17.476  0.00  0.00    +0.000 A 
ATOM     14  C   UNL     1       1.766   9.442  18.445  0.00  0.00    +0.000 A 
ATOM     15  C   UNL     1       1.496   8.415  19.352  0.00  0.00    +0.000 A 
ATOM     16  C   UNL     1       2.225   7.210  19.281  0.00  0.00    +0.000 A 
ATOM     17  C   UNL     1       4.758   5.162  17.587  0.00  0.00    +0.000 C 
ATOM     18  C   UNL     1       5.181   3.773  18.107  0.00  0.00    +0.000 C 
ATOM     19  C   UNL     1       3.301   3.687  19.846  0.00  0.00    +0.000 C 
ENDROOT
BRANCH   1  21
ATOM     20  C   UNL     1       5.030   1.606  20.756  0.00  0.00    +0.000 C 
ATOM     21  C   UNL     1       4.730   1.588  19.255  0.00  0.00    +0.000 C 
ENDBRANCH   1  21
BRANCH  17  22
ATOM     22  O   UNL     1       4.179   4.956  16.290  0.00  0.00    +0.000 OA
ATOM     23  H   UNL     1       4.538   5.648  15.708  0.00  0.00    +0.000 HD
ENDBRANCH  17  22
BRANCH  17  24
ATOM     24  C   UNL     1       6.025   6.052  17.510  0.00  0.00    +0.000 C 
ATOM     25  O   UNL     1       6.412   6.612  16.487  0.00  0.00    +0.000 OA
BRANCH  24  26
ATOM     26  O   UNL     1       6.647   6.144  18.722  0.00  0.00    +0.000 OA
ATOM     27  C   UNL     1       8.017   6.550  18.686  0.00  0.00    +0.000 C 
ENDBRANCH  24  26
ENDBRANCH  17  24
TORSDOF 4
ENDMDL
MODEL 4
REMARK VINA RESULT:      -6.1      2.825      4.839
REMARK  Name = 
REMARK  6 active torsions:
REMARK  status: ('A' for Active; 'I' for Inactive)
REMARK    1  A    between atoms: C_1  and  C_2
REMARK    2  A    between atoms: C_2  and  C_3
REMARK    3  A    between atoms: C_19  and  O_20
REMARK    4  A    between atoms: C_19  and  C_21
REMARK    5  A    between atoms: C_21  and  O_23
REMARK    6  A    between atoms: O_23  and  C_24
REMARK                            x       y       z     vdW  Elec       q    Type
REMARK                         _______ _______ _______ _____ _____    ______ ____
ROOT
ATOM      1  C   UNL     1      -2.520  14.047  23.303  0.00  0.00    +0.000 C 
ATOM      2  C   UNL     1      -2.849  12.793  24.095  0.00  0.00    +0.000 C 
ATOM      3  C   UNL     1      -4.130  12.397  24.175  0.00  0.00    +0.000 C 
ATOM      4  C   UNL     1      -5.221  13.221  23.557  0.00  0.00    +0.000 C 
ATOM      5  N   UNL     1      -4.899  13.728  22.214  0.00  0.00    +0.000 NA
ATOM      6  C   UNL     1      -5.559  12.851  21.205  0.00  0.00    +0.000 C 
ATOM      7  C   UNL     1      -4.989  12.834  19.772  0.00  0.00    +0.000 C 
ATOM      8  C   UNL     1      -3.537  12.585  19.889  0.00  0.00    +0.000 A 
ATOM      9  C   UNL     1      -2.850  13.136  20.943  0.00  0.00    +0.000 A 
ATOM     10  N   UNL     1      -1.556  12.689  20.890  0.00  0.00    +0.000 N 
ATOM     11  C   UNL     1      -1.412  11.808  19.826  0.00  0.00    +0.000 A 
ATOM     12  C   UNL     1      -0.316  11.044  19.382  0.00  0.00    +0.000 A 
ATOM     13  C   UNL     1      -0.492  10.204  18.278  0.00  0.00    +0.000 A 
ATOM     14  C   UNL     1      -1.718  10.125  17.626  0.00  0.00    +0.000 A 
ATOM     15  C   UNL     1      -2.802  10.888  18.063  0.00  0.00    +0.000 A 
ATOM     16  C   UNL     1      -2.654  11.741  19.176  0.00  0.00    +0.000 A 
ATOM     17  C   UNL     1      -0.546  13.028  21.893  0.00  0.00    +0.000 C 
ATOM     18  C   UNL     1      -1.028  14.125  22.863  0.00  0.00    +0.000 C 
ATOM     19  C   UNL     1      -3.441  14.033  22.008  0.00  0.00    +0.000 C 
ENDROOT
BRANCH   1  21
ATOM     20  C   UNL     1      -2.236  15.263  25.606  0.00  0.00    +0.000 C 
ATOM     21  C   UNL     1      -2.797  15.319  24.183  0.00  0.00    +0.000 C 
ENDBRANCH   1  21
BRANCH  17  22
ATOM     22  O   UNL     1      -0.306  11.855  22.686  0.00  0.00    +0.000 OA
ATOM     23  H   UNL     1      -1.177  11.489  22.917  0.00  0.00    +0.000 HD
ENDBRANCH  17  22
BRANCH  17  24
ATOM     24  C   UNL     1       0.751  13.527  21.208  0.00  0.00    +0.000 C 
ATOM     25  O   UNL     1       1.848  12.988  21.335  0.00  0.00    +0.000 OA
BRANCH  24  26
ATOM     26  O   UNL     1       0.519  14.632  20.439  0.00  0.00    +0.000 OA
ATOM     27  C   UNL     1       1.037  14.580  19.108  0.00  0.00    +0.000 C 
ENDBRANCH  24  26
ENDBRANCH  17  24
TORSDOF 4
ENDMDL
MODEL 5
REMARK VINA RESULT:      -6.0     11.380     14.221
REMARK  Name = 
REMARK  6 active torsions:
REMARK  status: ('A' for Active; 'I' for Inactive)
REMARK    1  A    between atoms: C_1  and  C_2
REMARK    2  A    between atoms: C_2  and  C_3
REMARK    3  A    between atoms: C_19  and  O_20
REMARK    4  A    between atoms: C_19  and  C_21
REMARK    5  A    between atoms: C_21  and  O_23
REMARK    6  A    between atoms: O_23  and  C_24
REMARK                            x       y       z     vdW  Elec       q    Type
REMARK                         _______ _______ _______ _____ _____    ______ ____
ROOT
ATOM      1  C   UNL     1       9.834  11.741  19.819  0.00  0.00    +0.000 C 
ATOM      2  C   UNL     1      11.177  11.834  20.524  0.00  0.00    +0.000 C 
ATOM      3  C   UNL     1      12.299  11.711  19.797  0.00  0.00    +0.000 C 
ATOM      4  C   UNL     1      12.224  11.413  18.328  0.00  0.00    +0.000 C 
ATOM      5  N   UNL     1      11.202  12.191  17.611  0.00  0.00    +0.000 NA
ATOM      6  C   UNL     1      11.871  13.332  16.923  0.00  0.00    +0.000 C 
ATOM      7  C   UNL     1      11.014  14.558  16.547  0.00  0.00    +0.000 C 
ATOM      8  C   UNL     1      10.289  14.968  17.768  0.00  0.00    +0.000 A 
ATOM      9  C   UNL     1       9.841  13.999  18.633  0.00  0.00    +0.000 A 
ATOM     10  N   UNL     1       9.294  14.621  19.724  0.00  0.00    +0.000 N 
ATOM     11  C   UNL     1       9.429  15.998  19.591  0.00  0.00    +0.000 A 
ATOM     12  C   UNL     1       9.087  17.061  20.448  0.00  0.00    +0.000 A 
ATOM     13  C   UNL     1       9.387  18.365  20.044  0.00  0.00    +0.000 A 
ATOM     14  C   UNL     1      10.002  18.613  18.822  0.00  0.00    +0.000 A 
ATOM     15  C   UNL     1      10.333  17.558  17.969  0.00  0.00    +0.000 A 
ATOM     16  C   UNL     1      10.046  16.232  18.353  0.00  0.00    +0.000 A 
ATOM     17  C   UNL     1       8.764  13.898  20.880  0.00  0.00    +0.000 C 
ATOM     18  C   UNL     1       8.666  12.380  20.628  0.00  0.00    +0.000 C 
ATOM     19  C   UNL     1       9.983  12.507  18.435  0.00  0.00    +0.000 C 
ENDROOT
BRANCH   1  21
ATOM     20  C   UNL     1       8.673   9.940  18.312  0.00  0.00    +0.000 C 
ATOM     21  C   UNL     1       9.455  10.233  19.595  0.00  0.00    +0.000 C 
ENDBRANCH   1  21
BRANCH  17  22
ATOM     22  O   UNL     1       9.685  14.075  21.967  0.00  0.00    +0.000 OA
ATOM     23  H   UNL     1      10.524  13.665  21.695  0.00  0.00    +0.000 HD
ENDBRANCH  17  22
BRANCH  17  24
ATOM     24  C   UNL     1       7.349  14.417  21.242  0.00  0.00    +0.000 C 
ATOM     25  O   UNL     1       6.467  14.643  20.417  0.00  0.00    +0.000 OA
BRANCH  24  26
ATOM     26  O   UNL     1       7.204  14.579  22.590  0.00  0.00    +0.000 OA
ATOM     27  C   UNL     1       6.069  13.935  23.172  0.00  0.00    +0.000 C 
ENDBRANCH  24  26
ENDBRANCH  17  24
TORSDOF 4
ENDMDL
MODEL 6
REMARK VINA RESULT:      -5.9      1.641      5.101
REMARK  Name = 
REMARK  6 active torsions:
REMARK  status: ('A' for Active; 'I' for Inactive)
REMARK    1  A    between atoms: C_1  and  C_2
REMARK    2  A    between atoms: C_2  and  C_3
REMARK    3  A    between atoms: C_19  and  O_20
REMARK    4  A    between atoms: C_19  and  C_21
REMARK    5  A    between atoms: C_21  and  O_23
REMARK    6  A    between atoms: O_23  and  C_24
REMARK                            x       y       z     vdW  Elec       q    Type
REMARK                         _______ _______ _______ _____ _____    ______ ____
ROOT
ATOM      1  C   UNL     1      -3.324  11.149  17.124  0.00  0.00    +0.000 C 
ATOM      2  C   UNL     1      -3.220   9.721  17.636  0.00  0.00    +0.000 C 
ATOM      3  C   UNL     1      -2.052   9.302  18.149  0.00  0.00    +0.000 C 
ATOM      4  C   UNL     1      -0.853  10.203  18.146  0.00  0.00    +0.000 C 
ATOM      5  N   UNL     1      -1.146  11.589  18.541  0.00  0.00    +0.000 NA
ATOM      6  C   UNL     1      -0.758  11.767  19.971  0.00  0.00    +0.000 C 
ATOM      7  C   UNL     1      -1.411  12.917  20.763  0.00  0.00    +0.000 C 
ATOM      8  C   UNL     1      -2.872  12.795  20.575  0.00  0.00    +0.000 A 
ATOM      9  C   UNL     1      -3.353  12.380  19.357  0.00  0.00    +0.000 A 
ATOM     10  N   UNL     1      -4.714  12.253  19.456  0.00  0.00    +0.000 N 
ATOM     11  C   UNL     1      -5.114  12.540  20.756  0.00  0.00    +0.000 A 
ATOM     12  C   UNL     1      -6.375  12.501  21.379  0.00  0.00    +0.000 A 
ATOM     13  C   UNL     1      -6.456  12.816  22.738  0.00  0.00    +0.000 A 
ATOM     14  C   UNL     1      -5.323  13.167  23.462  0.00  0.00    +0.000 A 
ATOM     15  C   UNL     1      -4.073  13.213  22.841  0.00  0.00    +0.000 A 
ATOM     16  C   UNL     1      -3.961  12.896  21.472  0.00  0.00    +0.000 A 
ATOM     17  C   UNL     1      -5.559  11.773  18.363  0.00  0.00    +0.000 C 
ATOM     18  C   UNL     1      -4.790  11.666  17.030  0.00  0.00    +0.000 C 
ATOM     19  C   UNL     1      -2.515  12.065  18.138  0.00  0.00    +0.000 C 
ENDROOT
BRANCH   1  21
ATOM     20  C   UNL     1      -3.122  10.100  14.731  0.00  0.00    +0.000 C 
ATOM     21  C   UNL     1      -2.722  11.237  15.675  0.00  0.00    +0.000 C 
ENDBRANCH   1  21
BRANCH  17  22
ATOM     22  O   UNL     1      -5.993  10.446  18.695  0.00  0.00    +0.000 OA
ATOM     23  H   UNL     1      -5.458   9.833  18.161  0.00  0.00    +0.000 HD
ENDBRANCH  17  22
BRANCH  17  24
ATOM     24  C   UNL     1      -6.761  12.728  18.148  0.00  0.00    +0.000 C 
ATOM     25  O   UNL     1      -7.899  12.505  18.555  0.00  0.00    +0.000 OA
BRANCH  24  26
ATOM     26  O   UNL     1      -6.393  13.851  17.463  0.00  0.00    +0.000 OA
ATOM     27  C   UNL     1      -7.433  14.491  16.720  0.00  0.00    +0.000 C 
ENDBRANCH  24  26
ENDBRANCH  17  24
TORSDOF 4
ENDMDL
MODEL 7
REMARK VINA RESULT:      -5.9      1.986      5.053
REMARK  Name = 
REMARK  6 active torsions:
REMARK  status: ('A' for Active; 'I' for Inactive)
REMARK    1  A    between atoms: C_1  and  C_2
REMARK    2  A    between atoms: C_2  and  C_3
REMARK    3  A    between atoms: C_19  and  O_20
REMARK    4  A    between atoms: C_19  and  C_21
REMARK    5  A    between atoms: C_21  and  O_23
REMARK    6  A    between atoms: O_23  and  C_24
REMARK                            x       y       z     vdW  Elec       q    Type
REMARK                         _______ _______ _______ _____ _____    ______ ____
ROOT
ATOM      1  C   UNL     1      -6.578  12.994  20.325  0.00  0.00    +0.000 C 
ATOM      2  C   UNL     1      -6.981  11.594  20.760  0.00  0.00    +0.000 C 
ATOM      3  C   UNL     1      -7.096  10.636  19.827  0.00  0.00    +0.000 C 
ATOM      4  C   UNL     1      -6.903  10.961  18.374  0.00  0.00    +0.000 C 
ATOM      5  N   UNL     1      -5.752  11.836  18.106  0.00  0.00    +0.000 NA
ATOM      6  C   UNL     1      -4.613  10.993  17.640  0.00  0.00    +0.000 C 
ATOM      7  C   UNL     1      -3.185  11.557  17.784  0.00  0.00    +0.000 C 
ATOM      8  C   UNL     1      -3.036  12.002  19.186  0.00  0.00    +0.000 A 
ATOM      9  C   UNL     1      -4.114  12.569  19.822  0.00  0.00    +0.000 A 
ATOM     10  N   UNL     1      -3.764  12.807  21.125  0.00  0.00    +0.000 N 
ATOM     11  C   UNL     1      -2.471  12.350  21.349  0.00  0.00    +0.000 A 
ATOM     12  C   UNL     1      -1.680  12.309  22.513  0.00  0.00    +0.000 A 
ATOM     13  C   UNL     1      -0.403  11.746  22.430  0.00  0.00    +0.000 A 
ATOM     14  C   UNL     1       0.083  11.242  21.229  0.00  0.00    +0.000 A 
ATOM     15  C   UNL     1      -0.700  11.290  20.074  0.00  0.00    +0.000 A 
ATOM     16  C   UNL     1      -1.994  11.849  20.129  0.00  0.00    +0.000 A 
ATOM     17  C   UNL     1      -4.687  13.354  22.119  0.00  0.00    +0.000 C 
ATOM     18  C   UNL     1      -6.000  13.858  21.485  0.00  0.00    +0.000 C 
ATOM     19  C   UNL     1      -5.468  12.828  19.201  0.00  0.00    +0.000 C 
ENDROOT
BRANCH   1  21
ATOM     20  C   UNL     1      -7.528  14.895  18.793  0.00  0.00    +0.000 C 
ATOM     21  C   UNL     1      -7.834  13.761  19.775  0.00  0.00    +0.000 C 
ENDBRANCH   1  21
BRANCH  17  22
ATOM     22  O   UNL     1      -5.044  12.293  23.017  0.00  0.00    +0.000 OA
ATOM     23  H   UNL     1      -5.956  12.466  23.307  0.00  0.00    +0.000 HD
ENDBRANCH  17  22
BRANCH  17  24
ATOM     24  C   UNL     1      -4.031  14.540  22.871  0.00  0.00    +0.000 C 
ATOM     25  O   UNL     1      -3.598  15.550  22.321  0.00  0.00    +0.000 OA
BRANCH  24  26
ATOM     26  O   UNL     1      -4.008  14.327  24.220  0.00  0.00    +0.000 OA
ATOM     27  C   UNL     1      -3.190  15.224  24.975  0.00  0.00    +0.000 C 
ENDBRANCH  24  26
ENDBRANCH  17  24
TORSDOF 4
ENDMDL
MODEL 8
REMARK VINA RESULT:      -5.9     10.568     13.735
REMARK  Name = 
REMARK  6 active torsions:
REMARK  status: ('A' for Active; 'I' for Inactive)
REMARK    1  A    between atoms: C_1  and  C_2
REMARK    2  A    between atoms: C_2  and  C_3
REMARK    3  A    between atoms: C_19  and  O_20
REMARK    4  A    between atoms: C_19  and  C_21
REMARK    5  A    between atoms: C_21  and  O_23
REMARK    6  A    between atoms: O_23  and  C_24
REMARK                            x       y       z     vdW  Elec       q    Type
REMARK                         _______ _______ _______ _____ _____    ______ ____
ROOT
ATOM      1  C   UNL     1      10.442  13.557  18.520  0.00  0.00    +0.000 C 
ATOM      2  C   UNL     1       9.579  12.641  17.667  0.00  0.00    +0.000 C 
ATOM      3  C   UNL     1       9.407  11.368  18.058  0.00  0.00    +0.000 C 
ATOM      4  C   UNL     1      10.114  10.842  19.273  0.00  0.00    +0.000 C 
ATOM      5  N   UNL     1      10.097  11.763  20.420  0.00  0.00    +0.000 NA
ATOM      6  C   UNL     1       9.029  11.324  21.364  0.00  0.00    +0.000 C 
ATOM      7  C   UNL     1       8.460  12.363  22.351  0.00  0.00    +0.000 C 
ATOM      8  C   UNL     1       8.073  13.547  21.556  0.00  0.00    +0.000 A 
ATOM      9  C   UNL     1       8.848  13.908  20.480  0.00  0.00    +0.000 A 
ATOM     10  N   UNL     1       8.242  14.963  19.852  0.00  0.00    +0.000 N 
ATOM     11  C   UNL     1       7.045  15.260  20.492  0.00  0.00    +0.000 A 
ATOM     12  C   UNL     1       6.039  16.203  20.210  0.00  0.00    +0.000 A 
ATOM     13  C   UNL     1       4.910  16.240  21.034  0.00  0.00    +0.000 A 
ATOM     14  C   UNL     1       4.781  15.372  22.112  0.00  0.00    +0.000 A 
ATOM     15  C   UNL     1       5.783  14.442  22.396  0.00  0.00    +0.000 A 
ATOM     16  C   UNL     1       6.931  14.380  21.579  0.00  0.00    +0.000 A 
ATOM     17  C   UNL     1       8.758  15.576  18.628  0.00  0.00    +0.000 C 
ATOM     18  C   UNL     1      10.171  15.070  18.270  0.00  0.00    +0.000 C 
ATOM     19  C   UNL     1      10.119  13.218  20.038  0.00  0.00    +0.000 C 
ENDROOT
BRANCH   1  21
ATOM     20  C   UNL     1      12.332  13.404  16.712  0.00  0.00    +0.000 C 
ATOM     21  C   UNL     1      11.959  13.312  18.194  0.00  0.00    +0.000 C 
ENDBRANCH   1  21
BRANCH  17  22
ATOM     22  O   UNL     1       7.897  15.188  17.547  0.00  0.00    +0.000 OA
ATOM     23  H   UNL     1       7.250  14.561  17.914  0.00  0.00    +0.000 HD
ENDBRANCH  17  22
BRANCH  17  24
ATOM     24  C   UNL     1       8.824  17.117  18.779  0.00  0.00    +0.000 C 
ATOM     25  O   UNL     1       8.115  17.901  18.152  0.00  0.00    +0.000 OA
BRANCH  24  26
ATOM     26  O   UNL     1       9.757  17.491  19.703  0.00  0.00    +0.000 OA
ATOM     27  C   UNL     1      10.593  18.589  19.330  0.00  0.00    +0.000 C 
ENDBRANCH  24  26
ENDBRANCH  17  24
TORSDOF 4
ENDMDL
MODEL 9
REMARK VINA RESULT:      -5.9      2.598      3.994
REMARK  Name = 
REMARK  6 active torsions:
REMARK  status: ('A' for Active; 'I' for Inactive)
REMARK    1  A    between atoms: C_1  and  C_2
REMARK    2  A    between atoms: C_2  and  C_3
REMARK    3  A    between atoms: C_19  and  O_20
REMARK    4  A    between atoms: C_19  and  C_21
REMARK    5  A    between atoms: C_21  and  O_23
REMARK    6  A    between atoms: O_23  and  C_24
REMARK                            x       y       z     vdW  Elec       q    Type
REMARK                         _______ _______ _______ _____ _____    ______ ____
ROOT
ATOM      1  C   UNL     1      -3.066  13.008  20.223  0.00  0.00    +0.000 C 
ATOM      2  C   UNL     1      -2.031  14.120  20.176  0.00  0.00    +0.000 C 
ATOM      3  C   UNL     1      -1.430  14.492  21.318  0.00  0.00    +0.000 C 
ATOM      4  C   UNL     1      -1.830  13.872  22.625  0.00  0.00    +0.000 C 
ATOM      5  N   UNL     1      -2.011  12.414  22.564  0.00  0.00    +0.000 NA
ATOM      6  C   UNL     1      -0.784  11.761  23.105  0.00  0.00    +0.000 C 
ATOM      7  C   UNL     1      -0.495  10.303  22.693  0.00  0.00    +0.000 C 
ATOM      8  C   UNL     1      -0.573  10.248  21.218  0.00  0.00    +0.000 A 
ATOM      9  C   UNL     1      -1.509  11.018  20.572  0.00  0.00    +0.000 A 
ATOM     10  N   UNL     1      -1.324  10.873  19.223  0.00  0.00    +0.000 N 
ATOM     11  C   UNL     1      -0.235  10.042  18.990  0.00  0.00    +0.000 A 
ATOM     12  C   UNL     1       0.392   9.629  17.799  0.00  0.00    +0.000 A 
ATOM     13  C   UNL     1       1.515   8.801  17.890  0.00  0.00    +0.000 A 
ATOM     14  C   UNL     1       2.003   8.387  19.124  0.00  0.00    +0.000 A 
ATOM     15  C   UNL     1       1.376   8.792  20.305  0.00  0.00    +0.000 A 
ATOM     16  C   UNL     1       0.243   9.630  20.243  0.00  0.00    +0.000 A 
ATOM     17  C   UNL     1      -2.108  11.594  18.221  0.00  0.00    +0.000 C 
ATOM     18  C   UNL     1      -3.311  12.335  18.839  0.00  0.00    +0.000 C 
ATOM     19  C   UNL     1      -2.527  11.915  21.242  0.00  0.00    +0.000 C 
ENDROOT
BRANCH   1  21
ATOM     20  C   UNL     1      -5.422  12.563  21.279  0.00  0.00    +0.000 C 
ATOM     21  C   UNL     1      -4.448  13.589  20.692  0.00  0.00    +0.000 C 
ENDBRANCH   1  21
BRANCH  17  22
ATOM     22  O   UNL     1      -1.262  12.598  17.641  0.00  0.00    +0.000 OA
ATOM     23  H   UNL     1      -0.356  12.409  17.941  0.00  0.00    +0.000 HD
ENDBRANCH  17  22
BRANCH  17  24
ATOM     24  C   UNL     1      -2.648  10.615  17.147  0.00  0.00    +0.000 C 
ATOM     25  O   UNL     1      -3.281   9.593  17.403  0.00  0.00    +0.000 OA
BRANCH  24  26
ATOM     26  O   UNL     1      -2.342  11.037  15.885  0.00  0.00    +0.000 OA
ATOM     27  C   UNL     1      -3.041  10.380  14.826  0.00  0.00    +0.000 C 
ENDBRANCH  24  26
ENDBRANCH  17  24
TORSDOF 4
ENDMDL
