MODEL 1
REMARK VINA RESULT:      -7.7      0.000      0.000
REMARK  Name = 
REMARK  9 active torsions:
REMARK  status: ('A' for Active; 'I' for Inactive)
REMARK    1  A    between atoms: C_1  and  C_2
REMARK    2  A    between atoms: C_2  and  C_3
REMARK    3  A    between atoms: C_3  and  C_4
REMARK    4  A    between atoms: C_4  and  C_5
REMARK    5  A    between atoms: C_6  and  C_7
REMARK    6  A    between atoms: C_10  and  C_11
REMARK    7  A    between atoms: C_12  and  O_13
REMARK    8  A    between atoms: O_13  and  C_14
REMARK    9  A    between atoms: C_14  and  C_15
REMARK                            x       y       z     vdW  Elec       q    Type
REMARK                         _______ _______ _______ _____ _____    ______ ____
ROOT
ATOM      1  C   UNL     1       6.129   4.303  15.200  0.00  0.00    +0.000 A 
ATOM      2  C   UNL     1       7.224   5.128  15.417  0.00  0.00    +0.000 A 
ATOM      3  N   UNL     1       7.579   5.613  16.631  0.00  0.00    +0.000 NA
ATOM      4  C   UNL     1       6.813   5.255  17.702  0.00  0.00    +0.000 A 
ATOM      5  C   UNL     1       7.198   5.840  19.031  0.00  0.00    +0.000 C 
ATOM      6  C   UNL     1       5.726   4.381  17.588  0.00  0.00    +0.000 A 
ATOM      7  C   UNL     1       5.380   3.919  16.311  0.00  0.00    +0.000 A 
ENDROOT
BRANCH   1   9
ATOM      8  C   UNL     1       5.330   3.496  12.707  0.00  0.00    +0.000 C 
ATOM      9  C   UNL     1       5.741   3.872  13.887  0.00  0.00    +0.000 C 
BRANCH   8  10
ATOM     10  C   UNL     1       4.851   3.058  11.332  0.00  0.00    +0.000 C 
BRANCH  10  11
ATOM     11  C   UNL     1       3.418   3.515  11.114  0.00  0.00    +0.000 C 
BRANCH  11  13
ATOM     12  C   UNL     1       2.470   4.804   9.188  0.00  0.00    +0.000 C 
ATOM     13  C   UNL     1       3.057   3.476   9.633  0.00  0.00    +0.000 C 
ENDBRANCH  11  13
ENDBRANCH  10  11
ENDBRANCH   8  10
ENDBRANCH   1   9
BRANCH   6  14
ATOM     14  O   UNL     1       5.035   4.086  18.731  0.00  0.00    +0.000 OA
BRANCH  14  15
ATOM     15  C   UNL     1       3.796   3.386  18.556  0.00  0.00    +0.000 C 
BRANCH  15  16
ATOM     16  C   UNL     1       2.651   4.235  19.155  0.00  0.00    +0.000 C 
ATOM     17  C   UNL     1       1.293   3.854  18.584  0.00  0.00    +0.000 C 
ATOM     18  C   UNL     1       0.907   2.638  19.405  0.00  0.00    +0.000 C 
ATOM     19  C   UNL     1       1.547   2.883  20.765  0.00  0.00    +0.000 C 
ATOM     20  N   UNL     1       2.446   4.027  20.601  0.00  0.00    +0.000 NA
ATOM     21  H   UNL     1       3.333   3.878  21.083  0.00  0.00    +0.000 HD
ENDBRANCH  15  16
ENDBRANCH  14  15
ENDBRANCH   6  14
TORSDOF 7
ENDMDL
MODEL 2
REMARK VINA RESULT:      -7.6      0.964      1.164
REMARK  Name = 
REMARK  9 active torsions:
REMARK  status: ('A' for Active; 'I' for Inactive)
REMARK    1  A    between atoms: C_1  and  C_2
REMARK    2  A    between atoms: C_2  and  C_3
REMARK    3  A    between atoms: C_3  and  C_4
REMARK    4  A    between atoms: C_4  and  C_5
REMARK    5  A    between atoms: C_6  and  C_7
REMARK    6  A    between atoms: C_10  and  C_11
REMARK    7  A    between atoms: C_12  and  O_13
REMARK    8  A    between atoms: O_13  and  C_14
REMARK    9  A    between atoms: C_14  and  C_15
REMARK                            x       y       z     vdW  Elec       q    Type
REMARK                         _______ _______ _______ _____ _____    ______ ____
ROOT
ATOM      1  C   UNL     1       6.010   4.327  15.491  0.00  0.00    +0.000 A 
ATOM      2  C   UNL     1       7.298   4.235  15.999  0.00  0.00    +0.000 A 
ATOM      3  N   UNL     1       7.656   4.647  17.238  0.00  0.00    +0.000 NA
ATOM      4  C   UNL     1       6.683   5.175  18.033  0.00  0.00    +0.000 A 
ATOM      5  C   UNL     1       7.110   5.668  19.387  0.00  0.00    +0.000 C 
ATOM      6  C   UNL     1       5.344   5.254  17.628  0.00  0.00    +0.000 A 
ATOM      7  C   UNL     1       5.020   4.836  16.331  0.00  0.00    +0.000 A 
ENDROOT
BRANCH   1   9
ATOM      8  C   UNL     1       5.372   3.663  12.911  0.00  0.00    +0.000 C 
ATOM      9  C   UNL     1       5.686   3.949  14.144  0.00  0.00    +0.000 C 
BRANCH   8  10
ATOM     10  C   UNL     1       5.006   3.331  11.473  0.00  0.00    +0.000 C 
BRANCH  10  11
ATOM     11  C   UNL     1       3.497   3.383  11.298  0.00  0.00    +0.000 C 
BRANCH  11  13
ATOM     12  C   UNL     1       2.643   4.649   9.314  0.00  0.00    +0.000 C 
ATOM     13  C   UNL     1       3.121   3.300   9.823  0.00  0.00    +0.000 C 
ENDBRANCH  11  13
ENDBRANCH  10  11
ENDBRANCH   8  10
ENDBRANCH   1   9
BRANCH   6  14
ATOM     14  O   UNL     1       4.452   5.796  18.512  0.00  0.00    +0.000 OA
BRANCH  14  15
ATOM     15  C   UNL     1       3.172   5.156  18.588  0.00  0.00    +0.000 C 
BRANCH  15  16
ATOM     16  C   UNL     1       3.237   4.028  19.643  0.00  0.00    +0.000 C 
ATOM     17  C   UNL     1       2.312   4.290  20.823  0.00  0.00    +0.000 C 
ATOM     18  C   UNL     1       0.964   3.819  20.310  0.00  0.00    +0.000 C 
ATOM     19  C   UNL     1       1.300   2.684  19.352  0.00  0.00    +0.000 C 
ATOM     20  N   UNL     1       2.752   2.724  19.155  0.00  0.00    +0.000 NA
ATOM     21  H   UNL     1       3.000   2.579  18.177  0.00  0.00    +0.000 HD
ENDBRANCH  15  16
ENDBRANCH  14  15
ENDBRANCH   6  14
TORSDOF 7
ENDMDL
MODEL 3
REMARK VINA RESULT:      -7.4      0.936      1.157
REMARK  Name = 
REMARK  9 active torsions:
REMARK  status: ('A' for Active; 'I' for Inactive)
REMARK    1  A    between atoms: C_1  and  C_2
REMARK    2  A    between atoms: C_2  and  C_3
REMARK    3  A    between atoms: C_3  and  C_4
REMARK    4  A    between atoms: C_4  and  C_5
REMARK    5  A    between atoms: C_6  and  C_7
REMARK    6  A    between atoms: C_10  and  C_11
REMARK    7  A    between atoms: C_12  and  O_13
REMARK    8  A    between atoms: O_13  and  C_14
REMARK    9  A    between atoms: C_14  and  C_15
REMARK                            x       y       z     vdW  Elec       q    Type
REMARK                         _______ _______ _______ _____ _____    ______ ____
ROOT
ATOM      1  C   UNL     1       6.112   4.180  15.141  0.00  0.00    +0.000 A 
ATOM      2  C   UNL     1       7.177   5.033  15.395  0.00  0.00    +0.000 A 
ATOM      3  N   UNL     1       7.498   5.499  16.625  0.00  0.00    +0.000 NA
ATOM      4  C   UNL     1       6.728   5.093  17.675  0.00  0.00    +0.000 A 
ATOM      5  C   UNL     1       7.074   5.657  19.024  0.00  0.00    +0.000 C 
ATOM      6  C   UNL     1       5.670   4.188  17.523  0.00  0.00    +0.000 A 
ATOM      7  C   UNL     1       5.358   3.746  16.231  0.00  0.00    +0.000 A 
ENDROOT
BRANCH   1   9
ATOM      8  C   UNL     1       5.404   3.448  12.598  0.00  0.00    +0.000 C 
ATOM      9  C   UNL     1       5.757   3.769  13.812  0.00  0.00    +0.000 C 
BRANCH   8  10
ATOM     10  C   UNL     1       4.993   3.075  11.183  0.00  0.00    +0.000 C 
BRANCH  10  11
ATOM     11  C   UNL     1       3.478   3.099  11.061  0.00  0.00    +0.000 C 
BRANCH  11  13
ATOM     12  C   UNL     1       3.094   4.052   8.778  0.00  0.00    +0.000 C 
ATOM     13  C   UNL     1       3.017   4.318  10.271  0.00  0.00    +0.000 C 
ENDBRANCH  11  13
ENDBRANCH  10  11
ENDBRANCH   8  10
ENDBRANCH   1   9
BRANCH   6  14
ATOM     14  O   UNL     1       4.971   3.845  18.648  0.00  0.00    +0.000 OA
BRANCH  14  15
ATOM     15  C   UNL     1       3.546   3.773  18.507  0.00  0.00    +0.000 C 
BRANCH  15  16
ATOM     16  C   UNL     1       3.026   2.547  19.292  0.00  0.00    +0.000 C 
ATOM     17  C   UNL     1       2.245   2.947  20.534  0.00  0.00    +0.000 C 
ATOM     18  C   UNL     1       0.866   3.260  19.984  0.00  0.00    +0.000 C 
ATOM     19  C   UNL     1       0.715   2.325  18.792  0.00  0.00    +0.000 C 
ATOM     20  N   UNL     1       2.037   1.740  18.553  0.00  0.00    +0.000 NA
ATOM     21  H   UNL     1       2.255   1.705  17.558  0.00  0.00    +0.000 HD
ENDBRANCH  15  16
ENDBRANCH  14  15
ENDBRANCH   6  14
TORSDOF 7
ENDMDL
MODEL 4
REMARK VINA RESULT:      -7.3      1.143      1.369
REMARK  Name = 
REMARK  9 active torsions:
REMARK  status: ('A' for Active; 'I' for Inactive)
REMARK    1  A    between atoms: C_1  and  C_2
REMARK    2  A    between atoms: C_2  and  C_3
REMARK    3  A    between atoms: C_3  and  C_4
REMARK    4  A    between atoms: C_4  and  C_5
REMARK    5  A    between atoms: C_6  and  C_7
REMARK    6  A    between atoms: C_10  and  C_11
REMARK    7  A    between atoms: C_12  and  O_13
REMARK    8  A    between atoms: O_13  and  C_14
REMARK    9  A    between atoms: C_14  and  C_15
REMARK                            x       y       z     vdW  Elec       q    Type
REMARK                         _______ _______ _______ _____ _____    ______ ____
ROOT
ATOM      1  C   UNL     1       6.219   4.437  14.826  0.00  0.00    +0.000 A 
ATOM      2  C   UNL     1       7.196   5.423  14.847  0.00  0.00    +0.000 A 
ATOM      3  N   UNL     1       7.649   6.018  15.976  0.00  0.00    +0.000 NA
ATOM      4  C   UNL     1       7.113   5.609  17.163  0.00  0.00    +0.000 A 
ATOM      5  C   UNL     1       7.598   6.313  18.399  0.00  0.00    +0.000 C 
ATOM      6  C   UNL     1       6.167   4.581  17.244  0.00  0.00    +0.000 A 
ATOM      7  C   UNL     1       5.710   4.007  16.050  0.00  0.00    +0.000 A 
ENDROOT
BRANCH   1   9
ATOM      8  C   UNL     1       5.256   3.328  12.513  0.00  0.00    +0.000 C 
ATOM      9  C   UNL     1       5.711   3.886  13.602  0.00  0.00    +0.000 C 
BRANCH   8  10
ATOM     10  C   UNL     1       4.725   2.679  11.246  0.00  0.00    +0.000 C 
BRANCH  10  11
ATOM     11  C   UNL     1       4.351   3.749  10.233  0.00  0.00    +0.000 C 
BRANCH  11  13
ATOM     12  C   UNL     1       2.455   4.739   8.932  0.00  0.00    +0.000 C 
ATOM     13  C   UNL     1       2.837   3.900  10.139  0.00  0.00    +0.000 C 
ENDBRANCH  11  13
ENDBRANCH  10  11
ENDBRANCH   8  10
ENDBRANCH   1   9
BRANCH   6  14
ATOM     14  O   UNL     1       5.705   4.250  18.488  0.00  0.00    +0.000 OA
BRANCH  14  15
ATOM     15  C   UNL     1       4.338   4.580  18.762  0.00  0.00    +0.000 C 
BRANCH  15  16
ATOM     16  C   UNL     1       3.696   3.431  19.573  0.00  0.00    +0.000 C 
ATOM     17  C   UNL     1       2.241   3.201  19.194  0.00  0.00    +0.000 C 
ATOM     18  C   UNL     1       2.344   2.347  17.944  0.00  0.00    +0.000 C 
ATOM     19  C   UNL     1       3.614   1.531  18.150  0.00  0.00    +0.000 C 
ATOM     20  N   UNL     1       4.295   2.108  19.311  0.00  0.00    +0.000 NA
ATOM     21  H   UNL     1       5.300   2.180  19.157  0.00  0.00    +0.000 HD
ENDBRANCH  15  16
ENDBRANCH  14  15
ENDBRANCH   6  14
TORSDOF 7
ENDMDL
MODEL 5
REMARK VINA RESULT:      -7.2      0.829      1.050
REMARK  Name = 
REMARK  9 active torsions:
REMARK  status: ('A' for Active; 'I' for Inactive)
REMARK    1  A    between atoms: C_1  and  C_2
REMARK    2  A    between atoms: C_2  and  C_3
REMARK    3  A    between atoms: C_3  and  C_4
REMARK    4  A    between atoms: C_4  and  C_5
REMARK    5  A    between atoms: C_6  and  C_7
REMARK    6  A    between atoms: C_10  and  C_11
REMARK    7  A    between atoms: C_12  and  O_13
REMARK    8  A    between atoms: O_13  and  C_14
REMARK    9  A    between atoms: C_14  and  C_15
REMARK                            x       y       z     vdW  Elec       q    Type
REMARK                         _______ _______ _______ _____ _____    ______ ____
ROOT
ATOM      1  C   UNL     1       6.137   4.160  15.332  0.00  0.00    +0.000 A 
ATOM      2  C   UNL     1       7.250   4.893  15.719  0.00  0.00    +0.000 A 
ATOM      3  N   UNL     1       7.459   5.347  16.977  0.00  0.00    +0.000 NA
ATOM      4  C   UNL     1       6.517   5.052  17.919  0.00  0.00    +0.000 A 
ATOM      5  C   UNL     1       6.747   5.603  19.298  0.00  0.00    +0.000 C 
ATOM      6  C   UNL     1       5.392   4.269  17.635  0.00  0.00    +0.000 A 
ATOM      7  C   UNL     1       5.203   3.837  16.315  0.00  0.00    +0.000 A 
ENDROOT
BRANCH   1   9
ATOM      8  C   UNL     1       5.663   3.368  12.752  0.00  0.00    +0.000 C 
ATOM      9  C   UNL     1       5.915   3.762  13.970  0.00  0.00    +0.000 C 
BRANCH   8  10
ATOM     10  C   UNL     1       5.370   2.910  11.333  0.00  0.00    +0.000 C 
BRANCH  10  11
ATOM     11  C   UNL     1       3.871   2.938  11.079  0.00  0.00    +0.000 C 
BRANCH  11  13
ATOM     12  C   UNL     1       2.783   4.146   9.176  0.00  0.00    +0.000 C 
ATOM     13  C   UNL     1       3.440   4.295  10.537  0.00  0.00    +0.000 C 
ENDBRANCH  11  13
ENDBRANCH  10  11
ENDBRANCH   8  10
ENDBRANCH   1   9
BRANCH   6  14
ATOM     14  O   UNL     1       4.518   4.031  18.659  0.00  0.00    +0.000 OA
BRANCH  14  15
ATOM     15  C   UNL     1       3.210   4.599  18.517  0.00  0.00    +0.000 C 
BRANCH  15  16
ATOM     16  C   UNL     1       2.154   3.507  18.807  0.00  0.00    +0.000 C 
ATOM     17  C   UNL     1       2.742   2.323  19.561  0.00  0.00    +0.000 C 
ATOM     18  C   UNL     1       2.738   2.801  21.002  0.00  0.00    +0.000 C 
ATOM     19  C   UNL     1       1.531   3.726  21.089  0.00  0.00    +0.000 C 
ATOM     20  N   UNL     1       1.076   3.945  19.713  0.00  0.00    +0.000 NA
ATOM     21  H   UNL     1       0.830   4.921  19.552  0.00  0.00    +0.000 HD
ENDBRANCH  15  16
ENDBRANCH  14  15
ENDBRANCH   6  14
TORSDOF 7
ENDMDL
MODEL 6
REMARK VINA RESULT:      -7.2      0.953      1.191
REMARK  Name = 
REMARK  9 active torsions:
REMARK  status: ('A' for Active; 'I' for Inactive)
REMARK    1  A    between atoms: C_1  and  C_2
REMARK    2  A    between atoms: C_2  and  C_3
REMARK    3  A    between atoms: C_3  and  C_4
REMARK    4  A    between atoms: C_4  and  C_5
REMARK    5  A    between atoms: C_6  and  C_7
REMARK    6  A    between atoms: C_10  and  C_11
REMARK    7  A    between atoms: C_12  and  O_13
REMARK    8  A    between atoms: O_13  and  C_14
REMARK    9  A    between atoms: C_14  and  C_15
REMARK                            x       y       z     vdW  Elec       q    Type
REMARK                         _______ _______ _______ _____ _____    ______ ____
ROOT
ATOM      1  C   UNL     1       6.185   4.155  15.449  0.00  0.00    +0.000 A 
ATOM      2  C   UNL     1       7.389   4.527  16.028  0.00  0.00    +0.000 A 
ATOM      3  N   UNL     1       7.515   4.959  17.306  0.00  0.00    +0.000 NA
ATOM      4  C   UNL     1       6.384   5.019  18.065  0.00  0.00    +0.000 A 
ATOM      5  C   UNL     1       6.539   5.544  19.465  0.00  0.00    +0.000 C 
ATOM      6  C   UNL     1       5.135   4.609  17.585  0.00  0.00    +0.000 A 
ATOM      7  C   UNL     1       5.045   4.189  16.251  0.00  0.00    +0.000 A 
ENDROOT
BRANCH   1   9
ATOM      8  C   UNL     1       6.048   3.443  12.807  0.00  0.00    +0.000 C 
ATOM      9  C   UNL     1       6.081   3.775  14.068  0.00  0.00    +0.000 C 
BRANCH   8  10
ATOM     10  C   UNL     1       6.009   3.055  11.338  0.00  0.00    +0.000 C 
BRANCH  10  11
ATOM     11  C   UNL     1       4.647   2.474  10.991  0.00  0.00    +0.000 C 
BRANCH  11  13
ATOM     12  C   UNL     1       3.073   4.012   9.798  0.00  0.00    +0.000 C 
ATOM     13  C   UNL     1       3.554   3.524  11.153  0.00  0.00    +0.000 C 
ENDBRANCH  11  13
ENDBRANCH  10  11
ENDBRANCH   8  10
ENDBRANCH   1   9
BRANCH   6  14
ATOM     14  O   UNL     1       4.070   4.707  18.439  0.00  0.00    +0.000 OA
BRANCH  14  15
ATOM     15  C   UNL     1       3.661   3.492  19.078  0.00  0.00    +0.000 C 
BRANCH  15  16
ATOM     16  C   UNL     1       3.291   3.798  20.547  0.00  0.00    +0.000 C 
ATOM     17  C   UNL     1       2.251   4.902  20.662  0.00  0.00    +0.000 C 
ATOM     18  C   UNL     1       0.946   4.167  20.419  0.00  0.00    +0.000 C 
ATOM     19  C   UNL     1       1.193   2.769  20.970  0.00  0.00    +0.000 C 
ATOM     20  N   UNL     1       2.629   2.678  21.243  0.00  0.00    +0.000 NA
ATOM     21  H   UNL     1       3.010   1.780  20.945  0.00  0.00    +0.000 HD
ENDBRANCH  15  16
ENDBRANCH  14  15
ENDBRANCH   6  14
TORSDOF 7
ENDMDL
MODEL 7
REMARK VINA RESULT:      -7.1      1.431      2.057
REMARK  Name = 
REMARK  9 active torsions:
REMARK  status: ('A' for Active; 'I' for Inactive)
REMARK    1  A    between atoms: C_1  and  C_2
REMARK    2  A    between atoms: C_2  and  C_3
REMARK    3  A    between atoms: C_3  and  C_4
REMARK    4  A    between atoms: C_4  and  C_5
REMARK    5  A    between atoms: C_6  and  C_7
REMARK    6  A    between atoms: C_10  and  C_11
REMARK    7  A    between atoms: C_12  and  O_13
REMARK    8  A    between atoms: O_13  and  C_14
REMARK    9  A    between atoms: C_14  and  C_15
REMARK                            x       y       z     vdW  Elec       q    Type
REMARK                         _______ _______ _______ _____ _____    ______ ____
ROOT
ATOM      1  C   UNL     1       6.359   4.251  15.521  0.00  0.00    +0.000 A 
ATOM      2  C   UNL     1       7.449   4.992  15.954  0.00  0.00    +0.000 A 
ATOM      3  N   UNL     1       7.629   5.400  17.233  0.00  0.00    +0.000 NA
ATOM      4  C   UNL     1       6.680   5.049  18.146  0.00  0.00    +0.000 A 
ATOM      5  C   UNL     1       6.876   5.550  19.550  0.00  0.00    +0.000 C 
ATOM      6  C   UNL     1       5.576   4.254  17.814  0.00  0.00    +0.000 A 
ATOM      7  C   UNL     1       5.417   3.870  16.476  0.00  0.00    +0.000 A 
ENDROOT
BRANCH   1   9
ATOM      8  C   UNL     1       5.934   3.612  12.891  0.00  0.00    +0.000 C 
ATOM      9  C   UNL     1       6.166   3.903  14.141  0.00  0.00    +0.000 C 
BRANCH   8  10
ATOM     10  C   UNL     1       5.664   3.273  11.434  0.00  0.00    +0.000 C 
BRANCH  10  11
ATOM     11  C   UNL     1       5.258   1.813  11.309  0.00  0.00    +0.000 C 
BRANCH  11  13
ATOM     12  C   UNL     1       6.143  -0.528  11.361  0.00  0.00    +0.000 C 
ATOM     13  C   UNL     1       6.479   0.928  11.090  0.00  0.00    +0.000 C 
ENDBRANCH  11  13
ENDBRANCH  10  11
ENDBRANCH   8  10
ENDBRANCH   1   9
BRANCH   6  14
ATOM     14  O   UNL     1       4.692   3.957  18.814  0.00  0.00    +0.000 OA
BRANCH  14  15
ATOM     15  C   UNL     1       3.572   3.143  18.444  0.00  0.00    +0.000 C 
BRANCH  15  16
ATOM     16  C   UNL     1       2.292   4.011  18.466  0.00  0.00    +0.000 C 
ATOM     17  C   UNL     1       1.066   3.218  18.893  0.00  0.00    +0.000 C 
ATOM     18  C   UNL     1       1.169   3.219  20.407  0.00  0.00    +0.000 C 
ATOM     19  C   UNL     1       1.845   4.542  20.737  0.00  0.00    +0.000 C 
ATOM     20  N   UNL     1       2.321   5.094  19.466  0.00  0.00    +0.000 NA
ATOM     21  H   UNL     1       3.257   5.489  19.557  0.00  0.00    +0.000 HD
ENDBRANCH  15  16
ENDBRANCH  14  15
ENDBRANCH   6  14
TORSDOF 7
ENDMDL
MODEL 8
REMARK VINA RESULT:      -7.1      1.609      2.245
REMARK  Name = 
REMARK  9 active torsions:
REMARK  status: ('A' for Active; 'I' for Inactive)
REMARK    1  A    between atoms: C_1  and  C_2
REMARK    2  A    between atoms: C_2  and  C_3
REMARK    3  A    between atoms: C_3  and  C_4
REMARK    4  A    between atoms: C_4  and  C_5
REMARK    5  A    between atoms: C_6  and  C_7
REMARK    6  A    between atoms: C_10  and  C_11
REMARK    7  A    between atoms: C_12  and  O_13
REMARK    8  A    between atoms: O_13  and  C_14
REMARK    9  A    between atoms: C_14  and  C_15
REMARK                            x       y       z     vdW  Elec       q    Type
REMARK                         _______ _______ _______ _____ _____    ______ ____
ROOT
ATOM      1  C   UNL     1       6.226   4.348  15.509  0.00  0.00    +0.000 A 
ATOM      2  C   UNL     1       7.468   4.326  16.130  0.00  0.00    +0.000 A 
ATOM      3  N   UNL     1       7.684   4.714  17.409  0.00  0.00    +0.000 NA
ATOM      4  C   UNL     1       6.607   5.142  18.128  0.00  0.00    +0.000 A 
ATOM      5  C   UNL     1       6.876   5.610  19.531  0.00  0.00    +0.000 C 
ATOM      6  C   UNL     1       5.308   5.144  17.606  0.00  0.00    +0.000 A 
ATOM      7  C   UNL     1       5.132   4.755  16.271  0.00  0.00    +0.000 A 
ENDROOT
BRANCH   1   9
ATOM      8  C   UNL     1       5.835   3.672  12.884  0.00  0.00    +0.000 C 
ATOM      9  C   UNL     1       6.052   4.002  14.127  0.00  0.00    +0.000 C 
BRANCH   8  10
ATOM     10  C   UNL     1       5.582   3.287  11.435  0.00  0.00    +0.000 C 
BRANCH  10  11
ATOM     11  C   UNL     1       5.221   1.813  11.346  0.00  0.00    +0.000 C 
BRANCH  11  13
ATOM     12  C   UNL     1       6.182  -0.499  11.353  0.00  0.00    +0.000 C 
ATOM     13  C   UNL     1       6.459   0.968  11.072  0.00  0.00    +0.000 C 
ENDBRANCH  11  13
ENDBRANCH  10  11
ENDBRANCH   8  10
ENDBRANCH   1   9
BRANCH   6  14
ATOM     14  O   UNL     1       4.304   5.588  18.421  0.00  0.00    +0.000 OA
BRANCH  14  15
ATOM     15  C   UNL     1       2.968   5.289  17.996  0.00  0.00    +0.000 C 
BRANCH  15  16
ATOM     16  C   UNL     1       2.318   4.331  19.021  0.00  0.00    +0.000 C 
ATOM     17  C   UNL     1       1.366   3.343  18.363  0.00  0.00    +0.000 C 
ATOM     18  C   UNL     1       2.299   2.262  17.847  0.00  0.00    +0.000 C 
ATOM     19  C   UNL     1       3.448   2.248  18.846  0.00  0.00    +0.000 C 
ATOM     20  N   UNL     1       3.278   3.433  19.692  0.00  0.00    +0.000 NA
ATOM     21  H   UNL     1       4.167   3.902  19.862  0.00  0.00    +0.000 HD
ENDBRANCH  15  16
ENDBRANCH  14  15
ENDBRANCH   6  14
TORSDOF 7
ENDMDL
MODEL 9
REMARK VINA RESULT:      -7.1      1.592      2.170
REMARK  Name = 
REMARK  9 active torsions:
REMARK  status: ('A' for Active; 'I' for Inactive)
REMARK    1  A    between atoms: C_1  and  C_2
REMARK    2  A    between atoms: C_2  and  C_3
REMARK    3  A    between atoms: C_3  and  C_4
REMARK    4  A    between atoms: C_4  and  C_5
REMARK    5  A    between atoms: C_6  and  C_7
REMARK    6  A    between atoms: C_10  and  C_11
REMARK    7  A    between atoms: C_12  and  O_13
REMARK    8  A    between atoms: O_13  and  C_14
REMARK    9  A    between atoms: C_14  and  C_15
REMARK                            x       y       z     vdW  Elec       q    Type
REMARK                         _______ _______ _______ _____ _____    ______ ____
ROOT
ATOM      1  C   UNL     1       6.192   4.268  15.503  0.00  0.00    +0.000 A 
ATOM      2  C   UNL     1       7.448   4.465  16.061  0.00  0.00    +0.000 A 
ATOM      3  N   UNL     1       7.656   4.849  17.343  0.00  0.00    +0.000 NA
ATOM      4  C   UNL     1       6.560   5.043  18.130  0.00  0.00    +0.000 A 
ATOM      5  C   UNL     1       6.812   5.513  19.535  0.00  0.00    +0.000 C 
ATOM      6  C   UNL     1       5.257   4.812  17.671  0.00  0.00    +0.000 A 
ATOM      7  C   UNL     1       5.085   4.435  16.333  0.00  0.00    +0.000 A 
ENDROOT
BRANCH   1   9
ATOM      8  C   UNL     1       5.905   3.612  12.859  0.00  0.00    +0.000 C 
ATOM      9  C   UNL     1       6.011   3.934  14.119  0.00  0.00    +0.000 C 
BRANCH   8  10
ATOM     10  C   UNL     1       5.781   3.237  11.391  0.00  0.00    +0.000 C 
BRANCH  10  11
ATOM     11  C   UNL     1       5.301   1.800  11.263  0.00  0.00    +0.000 C 
BRANCH  11  13
ATOM     12  C   UNL     1       6.052  -0.587  11.337  0.00  0.00    +0.000 C 
ATOM     13  C   UNL     1       6.480   0.849  11.090  0.00  0.00    +0.000 C 
ENDBRANCH  11  13
ENDBRANCH  10  11
ENDBRANCH   8  10
ENDBRANCH   1   9
BRANCH   6  14
ATOM     14  O   UNL     1       4.233   5.032  18.551  0.00  0.00    +0.000 OA
BRANCH  14  15
ATOM     15  C   UNL     1       3.533   3.868  19.007  0.00  0.00    +0.000 C 
BRANCH  15  16
ATOM     16  C   UNL     1       3.161   4.057  20.496  0.00  0.00    +0.000 C 
ATOM     17  C   UNL     1       1.964   4.980  20.678  0.00  0.00    +0.000 C 
ATOM     18  C   UNL     1       0.783   4.059  20.433  0.00  0.00    +0.000 C 
ATOM     19  C   UNL     1       1.260   2.697  20.921  0.00  0.00    +0.000 C 
ATOM     20  N   UNL     1       2.700   2.823  21.159  0.00  0.00    +0.000 NA
ATOM     21  H   UNL     1       3.208   2.007  20.817  0.00  0.00    +0.000 HD
ENDBRANCH  15  16
ENDBRANCH  14  15
ENDBRANCH   6  14
TORSDOF 7
ENDMDL
