MODEL 1
REMARK VINA RESULT:      -8.9      0.000      0.000
REMARK  Name = 
REMARK  3 active torsions:
REMARK  status: ('A' for Active; 'I' for Inactive)
REMARK    1  A    between atoms: C_2  and  O_3
REMARK    2  A    between atoms: C_2  and  C_10
REMARK    3  A    between atoms: O_3  and  C_4
REMARK                            x       y       z     vdW  Elec       q    Type
REMARK                         _______ _______ _______ _____ _____    ______ ____
ROOT
ATOM      1  C   UNL     1       5.183   5.446  16.889  0.00  0.00    +0.000 A 
ATOM      2  C   UNL     1       4.335   6.477  17.267  0.00  0.00    +0.000 A 
ATOM      3  C   UNL     1       3.258   5.788  17.846  0.00  0.00    +0.000 A 
ATOM      4  C   UNL     1       3.237   4.530  17.295  0.00  0.00    +0.000 A 
ATOM      5  O   UNL     1       4.465   4.274  16.753  0.00  0.00    +0.000 OA
ATOM      6  C   UNL     1       2.315   3.487  17.664  0.00  0.00    +0.000 C 
ATOM      7  O   UNL     1       1.911   2.573  16.957  0.00  0.00    +0.000 OA
ATOM      8  C   UNL     1       1.947   3.593  19.111  0.00  0.00    +0.000 A 
ATOM      9  C   UNL     1       1.701   2.420  19.822  0.00  0.00    +0.000 A 
ATOM     10  C   UNL     1       1.832   2.433  21.213  0.00  0.00    +0.000 A 
ATOM     11  C   UNL     1       2.186   3.610  21.875  0.00  0.00    +0.000 A 
ATOM     12  C   UNL     1       2.309   4.817  21.177  0.00  0.00    +0.000 A 
ATOM     13  C   UNL     1       2.155   4.815  19.785  0.00  0.00    +0.000 A 
ATOM     14  C   UNL     1       2.474   6.063  19.028  0.00  0.00    +0.000 C 
ATOM     15  O   UNL     1       2.257   7.179  19.467  0.00  0.00    +0.000 OA
ENDROOT
BRANCH   1  17
ATOM     16  O   UNL     1       7.352   6.226  17.421  0.00  0.00    +0.000 OA
ATOM     17  C   UNL     1       6.625   5.463  16.796  0.00  0.00    +0.000 C 
BRANCH  17  18
ATOM     18  O   UNL     1       7.059   4.379  16.027  0.00  0.00    +0.000 OA
BRANCH  18  19
ATOM     19  C   UNL     1       6.967   4.483  14.625  0.00  0.00    +0.000 A 
ATOM     20  C   UNL     1       7.809   5.379  13.963  0.00  0.00    +0.000 A 
ATOM     21  C   UNL     1       7.881   5.344  12.566  0.00  0.00    +0.000 A 
ATOM     22  C   UNL     1       7.118   4.420  11.849  0.00  0.00    +0.000 A 
ATOM     23  C   UNL     1       6.258   3.552  12.519  0.00  0.00    +0.000 A 
ATOM     24  C   UNL     1       6.182   3.581  13.909  0.00  0.00    +0.000 A 
ENDBRANCH  18  19
ENDBRANCH  17  18
ENDBRANCH   1  17
TORSDOF 3
ENDMDL
MODEL 2
REMARK VINA RESULT:      -8.9      0.603      1.117
REMARK  Name = 
REMARK  3 active torsions:
REMARK  status: ('A' for Active; 'I' for Inactive)
REMARK    1  A    between atoms: C_2  and  O_3
REMARK    2  A    between atoms: C_2  and  C_10
REMARK    3  A    between atoms: O_3  and  C_4
REMARK                            x       y       z     vdW  Elec       q    Type
REMARK                         _______ _______ _______ _____ _____    ______ ____
ROOT
ATOM      1  C   UNL     1       5.337   5.094  16.835  0.00  0.00    +0.000 A 
ATOM      2  C   UNL     1       4.536   6.185  17.143  0.00  0.00    +0.000 A 
ATOM      3  C   UNL     1       3.414   5.582  17.732  0.00  0.00    +0.000 A 
ATOM      4  C   UNL     1       3.338   4.301  17.243  0.00  0.00    +0.000 A 
ATOM      5  O   UNL     1       4.561   3.955  16.741  0.00  0.00    +0.000 OA
ATOM      6  C   UNL     1       2.356   3.326  17.643  0.00  0.00    +0.000 C 
ATOM      7  O   UNL     1       1.918   2.400  16.973  0.00  0.00    +0.000 OA
ATOM      8  C   UNL     1       1.965   3.524  19.075  0.00  0.00    +0.000 A 
ATOM      9  C   UNL     1       1.645   2.403  19.837  0.00  0.00    +0.000 A 
ATOM     10  C   UNL     1       1.750   2.478  21.228  0.00  0.00    +0.000 A 
ATOM     11  C   UNL     1       2.152   3.668  21.839  0.00  0.00    +0.000 A 
ATOM     12  C   UNL     1       2.352   4.830  21.085  0.00  0.00    +0.000 A 
ATOM     13  C   UNL     1       2.225   4.766  19.692  0.00  0.00    +0.000 A 
ATOM     14  C   UNL     1       2.623   5.956  18.881  0.00  0.00    +0.000 C 
ATOM     15  O   UNL     1       2.456   7.102  19.260  0.00  0.00    +0.000 OA
ENDROOT
BRANCH   1  17
ATOM     16  O   UNL     1       7.479   4.379  17.537  0.00  0.00    +0.000 OA
ATOM     17  C   UNL     1       6.778   5.032  16.772  0.00  0.00    +0.000 C 
BRANCH  17  18
ATOM     18  O   UNL     1       7.228   5.681  15.619  0.00  0.00    +0.000 OA
BRANCH  18  19
ATOM     19  C   UNL     1       7.163   4.982  14.398  0.00  0.00    +0.000 A 
ATOM     20  C   UNL     1       6.218   3.964  14.259  0.00  0.00    +0.000 A 
ATOM     21  C   UNL     1       5.996   3.405  12.995  0.00  0.00    +0.000 A 
ATOM     22  C   UNL     1       6.713   3.868  11.890  0.00  0.00    +0.000 A 
ATOM     23  C   UNL     1       7.677   4.863  12.046  0.00  0.00    +0.000 A 
ATOM     24  C   UNL     1       7.902   5.423  13.301  0.00  0.00    +0.000 A 
ENDBRANCH  18  19
ENDBRANCH  17  18
ENDBRANCH   1  17
TORSDOF 3
ENDMDL
MODEL 3
REMARK VINA RESULT:      -8.9      1.649      2.748
REMARK  Name = 
REMARK  3 active torsions:
REMARK  status: ('A' for Active; 'I' for Inactive)
REMARK    1  A    between atoms: C_2  and  O_3
REMARK    2  A    between atoms: C_2  and  C_10
REMARK    3  A    between atoms: O_3  and  C_4
REMARK                            x       y       z     vdW  Elec       q    Type
REMARK                         _______ _______ _______ _____ _____    ______ ____
ROOT
ATOM      1  C   UNL     1       5.386   5.938  17.376  0.00  0.00    +0.000 A 
ATOM      2  C   UNL     1       5.988   5.013  18.217  0.00  0.00    +0.000 A 
ATOM      3  C   UNL     1       4.939   4.657  19.079  0.00  0.00    +0.000 A 
ATOM      4  C   UNL     1       4.056   5.708  19.099  0.00  0.00    +0.000 A 
ATOM      5  O   UNL     1       4.278   6.482  17.996  0.00  0.00    +0.000 OA
ATOM      6  C   UNL     1       2.809   5.720  19.822  0.00  0.00    +0.000 C 
ATOM      7  O   UNL     1       2.230   6.696  20.280  0.00  0.00    +0.000 OA
ATOM      8  C   UNL     1       2.220   4.345  19.884  0.00  0.00    +0.000 A 
ATOM      9  C   UNL     1       0.833   4.216  19.864  0.00  0.00    +0.000 A 
ATOM     10  C   UNL     1       0.273   3.006  19.443  0.00  0.00    +0.000 A 
ATOM     11  C   UNL     1       1.097   1.943  19.068  0.00  0.00    +0.000 A 
ATOM     12  C   UNL     1       2.487   2.028  19.207  0.00  0.00    +0.000 A 
ATOM     13  C   UNL     1       3.053   3.230  19.651  0.00  0.00    +0.000 A 
ATOM     14  C   UNL     1       4.539   3.377  19.617  0.00  0.00    +0.000 C 
ATOM     15  O   UNL     1       5.302   2.453  19.838  0.00  0.00    +0.000 OA
ENDROOT
BRANCH   1  17
ATOM     16  O   UNL     1       5.080   7.025  15.298  0.00  0.00    +0.000 OA
ATOM     17  C   UNL     1       5.696   6.226  15.996  0.00  0.00    +0.000 C 
BRANCH  17  18
ATOM     18  O   UNL     1       6.890   5.594  15.639  0.00  0.00    +0.000 OA
BRANCH  18  19
ATOM     19  C   UNL     1       6.935   4.909  14.409  0.00  0.00    +0.000 A 
ATOM     20  C   UNL     1       6.019   3.879  14.183  0.00  0.00    +0.000 A 
ATOM     21  C   UNL     1       5.908   3.333  12.899  0.00  0.00    +0.000 A 
ATOM     22  C   UNL     1       6.707   3.819  11.861  0.00  0.00    +0.000 A 
ATOM     23  C   UNL     1       7.639   4.826  12.106  0.00  0.00    +0.000 A 
ATOM     24  C   UNL     1       7.754   5.373  13.381  0.00  0.00    +0.000 A 
ENDBRANCH  18  19
ENDBRANCH  17  18
ENDBRANCH   1  17
TORSDOF 3
ENDMDL
MODEL 4
REMARK VINA RESULT:      -8.6      1.655      2.591
REMARK  Name = 
REMARK  3 active torsions:
REMARK  status: ('A' for Active; 'I' for Inactive)
REMARK    1  A    between atoms: C_2  and  O_3
REMARK    2  A    between atoms: C_2  and  C_10
REMARK    3  A    between atoms: O_3  and  C_4
REMARK                            x       y       z     vdW  Elec       q    Type
REMARK                         _______ _______ _______ _____ _____    ______ ____
ROOT
ATOM      1  C   UNL     1       5.372   5.809  17.505  0.00  0.00    +0.000 A 
ATOM      2  C   UNL     1       5.959   4.856  18.327  0.00  0.00    +0.000 A 
ATOM      3  C   UNL     1       4.905   4.502  19.183  0.00  0.00    +0.000 A 
ATOM      4  C   UNL     1       4.041   5.569  19.226  0.00  0.00    +0.000 A 
ATOM      5  O   UNL     1       4.275   6.360  18.137  0.00  0.00    +0.000 OA
ATOM      6  C   UNL     1       2.796   5.589  19.951  0.00  0.00    +0.000 C 
ATOM      7  O   UNL     1       2.235   6.566  20.429  0.00  0.00    +0.000 OA
ATOM      8  C   UNL     1       2.182   4.224  19.987  0.00  0.00    +0.000 A 
ATOM      9  C   UNL     1       0.793   4.120  19.967  0.00  0.00    +0.000 A 
ATOM     10  C   UNL     1       0.210   2.929  19.524  0.00  0.00    +0.000 A 
ATOM     11  C   UNL     1       1.014   1.859  19.126  0.00  0.00    +0.000 A 
ATOM     12  C   UNL     1       2.406   1.916  19.264  0.00  0.00    +0.000 A 
ATOM     13  C   UNL     1       2.994   3.099  19.731  0.00  0.00    +0.000 A 
ATOM     14  C   UNL     1       4.483   3.220  19.696  0.00  0.00    +0.000 C 
ATOM     15  O   UNL     1       5.229   2.278  19.898  0.00  0.00    +0.000 OA
ENDROOT
BRANCH   1  17
ATOM     16  O   UNL     1       5.246   7.086  15.519  0.00  0.00    +0.000 OA
ATOM     17  C   UNL     1       5.685   6.119  16.130  0.00  0.00    +0.000 C 
BRANCH  17  18
ATOM     18  O   UNL     1       6.684   5.256  15.668  0.00  0.00    +0.000 OA
BRANCH  18  19
ATOM     19  C   UNL     1       6.627   4.837  14.325  0.00  0.00    +0.000 A 
ATOM     20  C   UNL     1       7.653   5.221  13.460  0.00  0.00    +0.000 A 
ATOM     21  C   UNL     1       7.725   4.645  12.186  0.00  0.00    +0.000 A 
ATOM     22  C   UNL     1       6.780   3.695  11.793  0.00  0.00    +0.000 A 
ATOM     23  C   UNL     1       5.741   3.342  12.654  0.00  0.00    +0.000 A 
ATOM     24  C   UNL     1       5.664   3.912  13.922  0.00  0.00    +0.000 A 
ENDBRANCH  18  19
ENDBRANCH  17  18
ENDBRANCH   1  17
TORSDOF 3
ENDMDL
MODEL 5
REMARK VINA RESULT:      -8.3      2.437      4.370
REMARK  Name = 
REMARK  3 active torsions:
REMARK  status: ('A' for Active; 'I' for Inactive)
REMARK    1  A    between atoms: C_2  and  O_3
REMARK    2  A    between atoms: C_2  and  C_10
REMARK    3  A    between atoms: O_3  and  C_4
REMARK                            x       y       z     vdW  Elec       q    Type
REMARK                         _______ _______ _______ _____ _____    ______ ____
ROOT
ATOM      1  C   UNL     1       5.931   4.527  17.374  0.00  0.00    +0.000 A 
ATOM      2  C   UNL     1       5.039   3.847  16.558  0.00  0.00    +0.000 A 
ATOM      3  C   UNL     1       4.263   3.133  17.485  0.00  0.00    +0.000 A 
ATOM      4  C   UNL     1       5.031   2.961  18.610  0.00  0.00    +0.000 A 
ATOM      5  O   UNL     1       6.042   3.879  18.589  0.00  0.00    +0.000 OA
ATOM      6  C   UNL     1       4.582   2.324  19.821  0.00  0.00    +0.000 C 
ATOM      7  O   UNL     1       5.266   1.720  20.637  0.00  0.00    +0.000 OA
ATOM      8  C   UNL     1       3.119   2.562  20.035  0.00  0.00    +0.000 A 
ATOM      9  C   UNL     1       2.651   2.688  21.340  0.00  0.00    +0.000 A 
ATOM     10  C   UNL     1       1.449   3.366  21.566  0.00  0.00    +0.000 A 
ATOM     11  C   UNL     1       0.727   3.891  20.492  0.00  0.00    +0.000 A 
ATOM     12  C   UNL     1       1.130   3.657  19.173  0.00  0.00    +0.000 A 
ATOM     13  C   UNL     1       2.321   2.957  18.940  0.00  0.00    +0.000 A 
ATOM     14  C   UNL     1       2.843   2.876  17.542  0.00  0.00    +0.000 C 
ATOM     15  O   UNL     1       2.116   2.793  16.568  0.00  0.00    +0.000 OA
ENDROOT
BRANCH   1  17
ATOM     16  O   UNL     1       7.305   6.051  16.197  0.00  0.00    +0.000 OA
ATOM     17  C   UNL     1       6.561   5.805  17.140  0.00  0.00    +0.000 C 
BRANCH  17  18
ATOM     18  O   UNL     1       6.063   6.748  18.044  0.00  0.00    +0.000 OA
BRANCH  18  19
ATOM     19  C   UNL     1       4.666   6.895  18.144  0.00  0.00    +0.000 A 
ATOM     20  C   UNL     1       4.019   6.395  19.276  0.00  0.00    +0.000 A 
ATOM     21  C   UNL     1       2.674   6.715  19.492  0.00  0.00    +0.000 A 
ATOM     22  C   UNL     1       1.993   7.528  18.583  0.00  0.00    +0.000 A 
ATOM     23  C   UNL     1       2.640   7.995  17.440  0.00  0.00    +0.000 A 
ATOM     24  C   UNL     1       3.978   7.680  17.220  0.00  0.00    +0.000 A 
ENDBRANCH  18  19
ENDBRANCH  17  18
ENDBRANCH   1  17
TORSDOF 3
ENDMDL
MODEL 6
REMARK VINA RESULT:      -8.2      1.925      3.138
REMARK  Name = 
REMARK  3 active torsions:
REMARK  status: ('A' for Active; 'I' for Inactive)
REMARK    1  A    between atoms: C_2  and  O_3
REMARK    2  A    between atoms: C_2  and  C_10
REMARK    3  A    between atoms: O_3  and  C_4
REMARK                            x       y       z     vdW  Elec       q    Type
REMARK                         _______ _______ _______ _____ _____    ______ ____
ROOT
ATOM      1  C   UNL     1       6.699   5.816  15.663  0.00  0.00    +0.000 A 
ATOM      2  C   UNL     1       7.301   5.798  16.913  0.00  0.00    +0.000 A 
ATOM      3  C   UNL     1       6.206   5.930  17.780  0.00  0.00    +0.000 A 
ATOM      4  C   UNL     1       5.208   6.563  17.081  0.00  0.00    +0.000 A 
ATOM      5  O   UNL     1       5.468   6.437  15.746  0.00  0.00    +0.000 OA
ATOM      6  C   UNL     1       3.892   6.839  17.596  0.00  0.00    +0.000 C 
ATOM      7  O   UNL     1       3.149   7.758  17.274  0.00  0.00    +0.000 OA
ATOM      8  C   UNL     1       3.466   5.776  18.560  0.00  0.00    +0.000 A 
ATOM      9  C   UNL     1       2.118   5.434  18.619  0.00  0.00    +0.000 A 
ATOM     10  C   UNL     1       1.759   4.177  19.115  0.00  0.00    +0.000 A 
ATOM     11  C   UNL     1       2.743   3.291  19.560  0.00  0.00    +0.000 A 
ATOM     12  C   UNL     1       4.086   3.679  19.618  0.00  0.00    +0.000 A 
ATOM     13  C   UNL     1       4.447   4.947  19.145  0.00  0.00    +0.000 A 
ATOM     14  C   UNL     1       5.900   5.283  19.035  0.00  0.00    +0.000 C 
ATOM     15  O   UNL     1       6.734   4.882  19.827  0.00  0.00    +0.000 OA
ENDROOT
BRANCH   1  17
ATOM     16  O   UNL     1       8.009   5.601  13.705  0.00  0.00    +0.000 OA
ATOM     17  C   UNL     1       7.137   5.167  14.449  0.00  0.00    +0.000 C 
BRANCH  17  18
ATOM     18  O   UNL     1       6.543   3.905  14.350  0.00  0.00    +0.000 OA
BRANCH  18  19
ATOM     19  C   UNL     1       5.998   3.526  13.108  0.00  0.00    +0.000 A 
ATOM     20  C   UNL     1       6.664   2.558  12.352  0.00  0.00    +0.000 A 
ATOM     21  C   UNL     1       6.034   2.019  11.225  0.00  0.00    +0.000 A 
ATOM     22  C   UNL     1       4.753   2.447  10.867  0.00  0.00    +0.000 A 
ATOM     23  C   UNL     1       4.112   3.436  11.611  0.00  0.00    +0.000 A 
ATOM     24  C   UNL     1       4.733   3.976  12.733  0.00  0.00    +0.000 A 
ENDBRANCH  18  19
ENDBRANCH  17  18
ENDBRANCH   1  17
TORSDOF 3
ENDMDL
MODEL 7
REMARK VINA RESULT:      -8.1      2.586      4.665
REMARK  Name = 
REMARK  3 active torsions:
REMARK  status: ('A' for Active; 'I' for Inactive)
REMARK    1  A    between atoms: C_2  and  O_3
REMARK    2  A    between atoms: C_2  and  C_10
REMARK    3  A    between atoms: O_3  and  C_4
REMARK                            x       y       z     vdW  Elec       q    Type
REMARK                         _______ _______ _______ _____ _____    ______ ____
ROOT
ATOM      1  C   UNL     1       5.486   4.697  17.534  0.00  0.00    +0.000 A 
ATOM      2  C   UNL     1       4.769   3.817  16.736  0.00  0.00    +0.000 A 
ATOM      3  C   UNL     1       4.125   3.004  17.682  0.00  0.00    +0.000 A 
ATOM      4  C   UNL     1       4.879   3.039  18.828  0.00  0.00    +0.000 A 
ATOM      5  O   UNL     1       5.688   4.139  18.781  0.00  0.00    +0.000 OA
ATOM      6  C   UNL     1       4.532   2.380  20.061  0.00  0.00    +0.000 C 
ATOM      7  O   UNL     1       5.299   1.962  20.918  0.00  0.00    +0.000 OA
ATOM      8  C   UNL     1       3.045   2.331  20.235  0.00  0.00    +0.000 A 
ATOM      9  C   UNL     1       2.524   2.418  21.523  0.00  0.00    +0.000 A 
ATOM     10  C   UNL     1       1.206   2.852  21.692  0.00  0.00    +0.000 A 
ATOM     11  C   UNL     1       0.425   3.173  20.581  0.00  0.00    +0.000 A 
ATOM     12  C   UNL     1       0.904   2.967  19.282  0.00  0.00    +0.000 A 
ATOM     13  C   UNL     1       2.216   2.509  19.107  0.00  0.00    +0.000 A 
ATOM     14  C   UNL     1       2.783   2.472  17.725  0.00  0.00    +0.000 C 
ATOM     15  O   UNL     1       2.115   2.202  16.742  0.00  0.00    +0.000 OA
ENDROOT
BRANCH   1  17
ATOM     16  O   UNL     1       7.004   6.491  17.268  0.00  0.00    +0.000 OA
ATOM     17  C   UNL     1       5.855   6.064  17.250  0.00  0.00    +0.000 C 
BRANCH  17  18
ATOM     18  O   UNL     1       4.738   6.768  16.791  0.00  0.00    +0.000 OA
BRANCH  18  19
ATOM     19  C   UNL     1       3.814   7.237  17.744  0.00  0.00    +0.000 A 
ATOM     20  C   UNL     1       3.110   8.412  17.472  0.00  0.00    +0.000 A 
ATOM     21  C   UNL     1       2.044   8.778  18.302  0.00  0.00    +0.000 A 
ATOM     22  C   UNL     1       1.693   7.971  19.387  0.00  0.00    +0.000 A 
ATOM     23  C   UNL     1       2.423   6.817  19.667  0.00  0.00    +0.000 A 
ATOM     24  C   UNL     1       3.485   6.448  18.845  0.00  0.00    +0.000 A 
ENDBRANCH  18  19
ENDBRANCH  17  18
ENDBRANCH   1  17
TORSDOF 3
ENDMDL
MODEL 8
REMARK VINA RESULT:      -7.9      2.681      4.863
REMARK  Name = 
REMARK  3 active torsions:
REMARK  status: ('A' for Active; 'I' for Inactive)
REMARK    1  A    between atoms: C_2  and  O_3
REMARK    2  A    between atoms: C_2  and  C_10
REMARK    3  A    between atoms: O_3  and  C_4
REMARK                            x       y       z     vdW  Elec       q    Type
REMARK                         _______ _______ _______ _____ _____    ______ ____
ROOT
ATOM      1  C   UNL     1       5.269   5.119  17.569  0.00  0.00    +0.000 A 
ATOM      2  C   UNL     1       4.621   4.214  16.740  0.00  0.00    +0.000 A 
ATOM      3  C   UNL     1       4.063   3.309  17.656  0.00  0.00    +0.000 A 
ATOM      4  C   UNL     1       4.827   3.361  18.796  0.00  0.00    +0.000 A 
ATOM      5  O   UNL     1       5.536   4.529  18.788  0.00  0.00    +0.000 OA
ATOM      6  C   UNL     1       4.555   2.622  20.002  0.00  0.00    +0.000 C 
ATOM      7  O   UNL     1       5.368   2.237  20.832  0.00  0.00    +0.000 OA
ATOM      8  C   UNL     1       3.081   2.435  20.188  0.00  0.00    +0.000 A 
ATOM      9  C   UNL     1       2.573   2.422  21.484  0.00  0.00    +0.000 A 
ATOM     10  C   UNL     1       1.224   2.731  21.685  0.00  0.00    +0.000 A 
ATOM     11  C   UNL     1       0.402   3.030  20.596  0.00  0.00    +0.000 A 
ATOM     12  C   UNL     1       0.880   2.921  19.286  0.00  0.00    +0.000 A 
ATOM     13  C   UNL     1       2.224   2.588  19.078  0.00  0.00    +0.000 A 
ATOM     14  C   UNL     1       2.773   2.659  17.689  0.00  0.00    +0.000 C 
ATOM     15  O   UNL     1       2.118   2.374  16.702  0.00  0.00    +0.000 OA
ENDROOT
BRANCH   1  17
ATOM     16  O   UNL     1       6.609   7.064  17.447  0.00  0.00    +0.000 OA
ATOM     17  C   UNL     1       5.514   6.524  17.341  0.00  0.00    +0.000 C 
BRANCH  17  18
ATOM     18  O   UNL     1       4.363   7.125  16.822  0.00  0.00    +0.000 OA
BRANCH  18  19
ATOM     19  C   UNL     1       3.329   7.458  17.718  0.00  0.00    +0.000 A 
ATOM     20  C   UNL     1       3.129   6.650  18.839  0.00  0.00    +0.000 A 
ATOM     21  C   UNL     1       2.254   7.079  19.844  0.00  0.00    +0.000 A 
ATOM     22  C   UNL     1       1.595   8.304  19.720  0.00  0.00    +0.000 A 
ATOM     23  C   UNL     1       1.779   9.088  18.582  0.00  0.00    +0.000 A 
ATOM     24  C   UNL     1       2.648   8.666  17.580  0.00  0.00    +0.000 A 
ENDBRANCH  18  19
ENDBRANCH  17  18
ENDBRANCH   1  17
TORSDOF 3
ENDMDL
MODEL 9
REMARK VINA RESULT:      -7.6      1.704      2.606
REMARK  Name = 
REMARK  3 active torsions:
REMARK  status: ('A' for Active; 'I' for Inactive)
REMARK    1  A    between atoms: C_2  and  O_3
REMARK    2  A    between atoms: C_2  and  C_10
REMARK    3  A    between atoms: O_3  and  C_4
REMARK                            x       y       z     vdW  Elec       q    Type
REMARK                         _______ _______ _______ _____ _____    ______ ____
ROOT
ATOM      1  C   UNL     1       6.322   5.130  17.653  0.00  0.00    +0.000 A 
ATOM      2  C   UNL     1       6.518   4.438  18.840  0.00  0.00    +0.000 A 
ATOM      3  C   UNL     1       5.216   4.343  19.355  0.00  0.00    +0.000 A 
ATOM      4  C   UNL     1       4.494   5.386  18.829  0.00  0.00    +0.000 A 
ATOM      5  O   UNL     1       5.142   5.844  17.717  0.00  0.00    +0.000 OA
ATOM      6  C   UNL     1       3.092   5.616  19.065  0.00  0.00    +0.000 C 
ATOM      7  O   UNL     1       2.508   6.692  19.059  0.00  0.00    +0.000 OA
ATOM      8  C   UNL     1       2.365   4.319  19.246  0.00  0.00    +0.000 A 
ATOM      9  C   UNL     1       1.053   4.225  18.790  0.00  0.00    +0.000 A 
ATOM     10  C   UNL     1       0.526   2.963  18.501  0.00  0.00    +0.000 A 
ATOM     11  C   UNL     1       1.304   1.818  18.686  0.00  0.00    +0.000 A 
ATOM     12  C   UNL     1       2.577   1.900  19.261  0.00  0.00    +0.000 A 
ATOM     13  C   UNL     1       3.100   3.161  19.576  0.00  0.00    +0.000 A 
ATOM     14  C   UNL     1       4.527   3.256  20.011  0.00  0.00    +0.000 C 
ATOM     15  O   UNL     1       5.072   2.401  20.687  0.00  0.00    +0.000 OA
ENDROOT
BRANCH   1  17
ATOM     16  O   UNL     1       8.118   4.393  16.302  0.00  0.00    +0.000 OA
ATOM     17  C   UNL     1       7.087   5.044  16.431  0.00  0.00    +0.000 C 
BRANCH  17  18
ATOM     18  O   UNL     1       6.390   5.668  15.394  0.00  0.00    +0.000 OA
BRANCH  18  19
ATOM     19  C   UNL     1       6.350   5.025  14.142  0.00  0.00    +0.000 A 
ATOM     20  C   UNL     1       7.387   5.257  13.236  0.00  0.00    +0.000 A 
ATOM     21  C   UNL     1       7.476   4.471  12.082  0.00  0.00    +0.000 A 
ATOM     22  C   UNL     1       6.535   3.466  11.846  0.00  0.00    +0.000 A 
ATOM     23  C   UNL     1       5.486   3.264  12.742  0.00  0.00    +0.000 A 
ATOM     24  C   UNL     1       5.393   4.043  13.892  0.00  0.00    +0.000 A 
ENDBRANCH  18  19
ENDBRANCH  17  18
ENDBRANCH   1  17
TORSDOF 3
ENDMDL
