MODEL 1
REMARK VINA RESULT:      -6.7      0.000      0.000
REMARK  Name = 
REMARK  6 active torsions:
REMARK  status: ('A' for Active; 'I' for Inactive)
REMARK    1  A    between atoms: C_1  and  C_2
REMARK    2  A    between atoms: C_2  and  C_3
REMARK    3  A    between atoms: C_4  and  C_5
REMARK    4  A    between atoms: C_8  and  O_9
REMARK    5  A    between atoms: C_12  and  C_13
REMARK    6  A    between atoms: C_16  and  O_17
REMARK                            x       y       z     vdW  Elec       q    Type
REMARK                         _______ _______ _______ _____ _____    ______ ____
ROOT
ATOM      1  C   UNL     1       2.015   6.438  19.753  0.00  0.00    +0.000 C 
ATOM      2  C   UNL     1       2.642   5.914  18.679  0.00  0.00    +0.000 C 
ATOM      3  C   UNL     1       2.913   6.940  17.587  0.00  0.00    +0.000 C 
ATOM      4  C   UNL     1       4.397   7.154  17.295  0.00  0.00    +0.000 C 
ATOM      5  C   UNL     1       2.296   8.169  18.206  0.00  0.00    +0.000 A 
ATOM      6  C   UNL     1       2.225   9.456  17.690  0.00  0.00    +0.000 A 
ATOM      7  C   UNL     1       1.609  10.433  18.468  0.00  0.00    +0.000 A 
ATOM      8  C   UNL     1       1.055  10.128  19.715  0.00  0.00    +0.000 A 
ATOM      9  C   UNL     1       1.130   8.827  20.222  0.00  0.00    +0.000 A 
ATOM     10  C   UNL     1       1.765   7.854  19.466  0.00  0.00    +0.000 A 
ENDROOT
BRANCH   2  11
ATOM     11  C   UNL     1       3.044   4.517  18.522  0.00  0.00    +0.000 A 
ATOM     12  C   UNL     1       2.347   3.672  17.649  0.00  0.00    +0.000 A 
ATOM     13  C   UNL     1       2.712   2.328  17.517  0.00  0.00    +0.000 A 
ATOM     14  C   UNL     1       3.778   1.834  18.265  0.00  0.00    +0.000 A 
ATOM     15  C   UNL     1       4.482   2.660  19.132  0.00  0.00    +0.000 A 
ATOM     16  C   UNL     1       4.112   3.999  19.266  0.00  0.00    +0.000 A 
BRANCH  14  17
ATOM     17  O   UNL     1       4.163   0.529  18.179  0.00  0.00    +0.000 OA
ATOM     18  H   UNL     1       4.659   0.298  18.981  0.00  0.00    +0.000 HD
ENDBRANCH  14  17
ENDBRANCH   2  11
BRANCH   1  20
ATOM     19  C   UNL     1       0.912   4.445  20.767  0.00  0.00    +0.000 C 
ATOM     20  C   UNL     1       1.604   5.777  21.028  0.00  0.00    +0.000 C 
ENDBRANCH   1  20
BRANCH   7  21
ATOM     21  O   UNL     1       1.530  11.728  18.042  0.00  0.00    +0.000 OA
ATOM     22  H   UNL     1       1.986  11.800  17.189  0.00  0.00    +0.000 HD
ENDBRANCH   7  21
TORSDOF 4
ENDMDL
MODEL 2
REMARK VINA RESULT:      -6.7      3.289      5.583
REMARK  Name = 
REMARK  6 active torsions:
REMARK  status: ('A' for Active; 'I' for Inactive)
REMARK    1  A    between atoms: C_1  and  C_2
REMARK    2  A    between atoms: C_2  and  C_3
REMARK    3  A    between atoms: C_4  and  C_5
REMARK    4  A    between atoms: C_8  and  O_9
REMARK    5  A    between atoms: C_12  and  C_13
REMARK    6  A    between atoms: C_16  and  O_17
REMARK                            x       y       z     vdW  Elec       q    Type
REMARK                         _______ _______ _______ _____ _____    ______ ____
ROOT
ATOM      1  C   UNL     1       3.296   5.046  18.228  0.00  0.00    +0.000 C 
ATOM      2  C   UNL     1       4.282   4.202  17.860  0.00  0.00    +0.000 C 
ATOM      3  C   UNL     1       4.330   2.937  18.704  0.00  0.00    +0.000 C 
ATOM      4  C   UNL     1       4.083   1.655  17.911  0.00  0.00    +0.000 C 
ATOM      5  C   UNL     1       3.201   3.206  19.668  0.00  0.00    +0.000 A 
ATOM      6  C   UNL     1       2.735   2.406  20.702  0.00  0.00    +0.000 A 
ATOM      7  C   UNL     1       1.660   2.877  21.452  0.00  0.00    +0.000 A 
ATOM      8  C   UNL     1       1.084   4.124  21.193  0.00  0.00    +0.000 A 
ATOM      9  C   UNL     1       1.564   4.922  20.150  0.00  0.00    +0.000 A 
ATOM     10  C   UNL     1       2.618   4.450  19.383  0.00  0.00    +0.000 A 
ENDROOT
BRANCH   2  11
ATOM     11  C   UNL     1       5.234   4.423  16.772  0.00  0.00    +0.000 A 
ATOM     12  C   UNL     1       6.552   4.809  17.052  0.00  0.00    +0.000 A 
ATOM     13  C   UNL     1       7.458   5.048  16.013  0.00  0.00    +0.000 A 
ATOM     14  C   UNL     1       7.039   4.901  14.693  0.00  0.00    +0.000 A 
ATOM     15  C   UNL     1       5.736   4.514  14.400  0.00  0.00    +0.000 A 
ATOM     16  C   UNL     1       4.833   4.283  15.438  0.00  0.00    +0.000 A 
BRANCH  14  17
ATOM     17  O   UNL     1       7.881   5.134  13.648  0.00  0.00    +0.000 OA
ATOM     18  H   UNL     1       7.584   5.931  13.181  0.00  0.00    +0.000 HD
ENDBRANCH  14  17
ENDBRANCH   2  11
BRANCH   1  20
ATOM     19  C   UNL     1       4.001   7.405  17.825  0.00  0.00    +0.000 C 
ATOM     20  C   UNL     1       2.905   6.363  17.639  0.00  0.00    +0.000 C 
ENDBRANCH   1  20
BRANCH   7  21
ATOM     21  O   UNL     1       1.125   2.132  22.463  0.00  0.00    +0.000 OA
ATOM     22  H   UNL     1       0.628   2.722  23.052  0.00  0.00    +0.000 HD
ENDBRANCH   7  21
TORSDOF 4
ENDMDL
MODEL 3
REMARK VINA RESULT:      -6.6      3.138      5.360
REMARK  Name = 
REMARK  6 active torsions:
REMARK  status: ('A' for Active; 'I' for Inactive)
REMARK    1  A    between atoms: C_1  and  C_2
REMARK    2  A    between atoms: C_2  and  C_3
REMARK    3  A    between atoms: C_4  and  C_5
REMARK    4  A    between atoms: C_8  and  O_9
REMARK    5  A    between atoms: C_12  and  C_13
REMARK    6  A    between atoms: C_16  and  O_17
REMARK                            x       y       z     vdW  Elec       q    Type
REMARK                         _______ _______ _______ _____ _____    ______ ____
ROOT
ATOM      1  C   UNL     1       3.816   5.444  18.208  0.00  0.00    +0.000 C 
ATOM      2  C   UNL     1       4.466   4.441  17.582  0.00  0.00    +0.000 C 
ATOM      3  C   UNL     1       4.253   3.087  18.244  0.00  0.00    +0.000 C 
ATOM      4  C   UNL     1       3.555   2.065  17.349  0.00  0.00    +0.000 C 
ATOM      5  C   UNL     1       3.375   3.484  19.405  0.00  0.00    +0.000 A 
ATOM      6  C   UNL     1       2.830   2.676  20.394  0.00  0.00    +0.000 A 
ATOM      7  C   UNL     1       2.034   3.285  21.361  0.00  0.00    +0.000 A 
ATOM      8  C   UNL     1       1.812   4.665  21.356  0.00  0.00    +0.000 A 
ATOM      9  C   UNL     1       2.369   5.468  20.357  0.00  0.00    +0.000 A 
ATOM     10  C   UNL     1       3.142   4.866  19.375  0.00  0.00    +0.000 A 
ENDROOT
BRANCH   2  11
ATOM     11  C   UNL     1       5.301   4.578  16.390  0.00  0.00    +0.000 A 
ATOM     12  C   UNL     1       4.777   4.297  15.120  0.00  0.00    +0.000 A 
ATOM     13  C   UNL     1       5.582   4.400  13.981  0.00  0.00    +0.000 A 
ATOM     14  C   UNL     1       6.914   4.784  14.117  0.00  0.00    +0.000 A 
ATOM     15  C   UNL     1       7.446   5.071  15.368  0.00  0.00    +0.000 A 
ATOM     16  C   UNL     1       6.644   4.961  16.504  0.00  0.00    +0.000 A 
BRANCH  14  17
ATOM     17  O   UNL     1       7.739   4.887  13.037  0.00  0.00    +0.000 OA
ATOM     18  H   UNL     1       7.973   5.821  12.913  0.00  0.00    +0.000 HD
ENDBRANCH  14  17
ENDBRANCH   2  11
BRANCH   1  20
ATOM     19  C   UNL     1       2.309   7.392  17.815  0.00  0.00    +0.000 C 
ATOM     20  C   UNL     1       3.749   6.895  17.859  0.00  0.00    +0.000 C 
ENDBRANCH   1  20
BRANCH   7  21
ATOM     21  O   UNL     1       1.437   2.553  22.346  0.00  0.00    +0.000 OA
ATOM     22  H   UNL     1       1.883   1.693  22.405  0.00  0.00    +0.000 HD
ENDBRANCH   7  21
TORSDOF 4
ENDMDL
MODEL 4
REMARK VINA RESULT:      -6.6      2.404      5.864
REMARK  Name = 
REMARK  6 active torsions:
REMARK  status: ('A' for Active; 'I' for Inactive)
REMARK    1  A    between atoms: C_1  and  C_2
REMARK    2  A    between atoms: C_2  and  C_3
REMARK    3  A    between atoms: C_4  and  C_5
REMARK    4  A    between atoms: C_8  and  O_9
REMARK    5  A    between atoms: C_12  and  C_13
REMARK    6  A    between atoms: C_16  and  O_17
REMARK                            x       y       z     vdW  Elec       q    Type
REMARK                         _______ _______ _______ _____ _____    ______ ____
ROOT
ATOM      1  C   UNL     1       2.420   5.818  19.886  0.00  0.00    +0.000 C 
ATOM      2  C   UNL     1       2.172   7.145  19.864  0.00  0.00    +0.000 C 
ATOM      3  C   UNL     1       2.806   7.850  18.674  0.00  0.00    +0.000 C 
ATOM      4  C   UNL     1       1.796   8.499  17.731  0.00  0.00    +0.000 C 
ATOM      5  C   UNL     1       3.506   6.691  18.009  0.00  0.00    +0.000 A 
ATOM      6  C   UNL     1       4.270   6.690  16.849  0.00  0.00    +0.000 A 
ATOM      7  C   UNL     1       4.807   5.476  16.428  0.00  0.00    +0.000 A 
ATOM      8  C   UNL     1       4.607   4.301  17.158  0.00  0.00    +0.000 A 
ATOM      9  C   UNL     1       3.839   4.315  18.325  0.00  0.00    +0.000 A 
ATOM     10  C   UNL     1       3.280   5.515  18.739  0.00  0.00    +0.000 A 
ENDROOT
BRANCH   2  11
ATOM     11  C   UNL     1       1.386   7.883  20.851  0.00  0.00    +0.000 A 
ATOM     12  C   UNL     1      -0.012   7.781  20.864  0.00  0.00    +0.000 A 
ATOM     13  C   UNL     1      -0.769   8.508  21.789  0.00  0.00    +0.000 A 
ATOM     14  C   UNL     1      -0.121   9.339  22.699  0.00  0.00    +0.000 A 
ATOM     15  C   UNL     1       1.264   9.448  22.702  0.00  0.00    +0.000 A 
ATOM     16  C   UNL     1       2.016   8.727  21.774  0.00  0.00    +0.000 A 
BRANCH  14  17
ATOM     17  O   UNL     1      -0.817  10.076  23.611  0.00  0.00    +0.000 OA
ATOM     18  H   UNL     1      -1.738  10.151  23.312  0.00  0.00    +0.000 HD
ENDBRANCH  14  17
ENDBRANCH   2  11
BRANCH   1  20
ATOM     19  C   UNL     1       0.859   3.911  20.267  0.00  0.00    +0.000 C 
ATOM     20  C   UNL     1       1.958   4.783  20.860  0.00  0.00    +0.000 C 
ENDBRANCH   1  20
BRANCH   7  21
ATOM     21  O   UNL     1       5.541   5.390  15.280  0.00  0.00    +0.000 OA
ATOM     22  H   UNL     1       6.116   6.169  15.223  0.00  0.00    +0.000 HD
ENDBRANCH   7  21
TORSDOF 4
ENDMDL
MODEL 5
REMARK VINA RESULT:      -6.5      0.054      1.082
REMARK  Name = 
REMARK  6 active torsions:
REMARK  status: ('A' for Active; 'I' for Inactive)
REMARK    1  A    between atoms: C_1  and  C_2
REMARK    2  A    between atoms: C_2  and  C_3
REMARK    3  A    between atoms: C_4  and  C_5
REMARK    4  A    between atoms: C_8  and  O_9
REMARK    5  A    between atoms: C_12  and  C_13
REMARK    6  A    between atoms: C_16  and  O_17
REMARK                            x       y       z     vdW  Elec       q    Type
REMARK                         _______ _______ _______ _____ _____    ______ ____
ROOT
ATOM      1  C   UNL     1       1.993   6.477  19.759  0.00  0.00    +0.000 C 
ATOM      2  C   UNL     1       2.631   5.935  18.701  0.00  0.00    +0.000 C 
ATOM      3  C   UNL     1       2.927   6.945  17.602  0.00  0.00    +0.000 C 
ATOM      4  C   UNL     1       4.417   7.142  17.329  0.00  0.00    +0.000 C 
ATOM      5  C   UNL     1       2.313   8.187  18.197  0.00  0.00    +0.000 A 
ATOM      6  C   UNL     1       2.261   9.469  17.665  0.00  0.00    +0.000 A 
ATOM      7  C   UNL     1       1.642  10.460  18.423  0.00  0.00    +0.000 A 
ATOM      8  C   UNL     1       1.068  10.174  19.665  0.00  0.00    +0.000 A 
ATOM      9  C   UNL     1       1.124   8.879  20.188  0.00  0.00    +0.000 A 
ATOM     10  C   UNL     1       1.761   7.891  19.452  0.00  0.00    +0.000 A 
ENDROOT
BRANCH   2  11
ATOM     11  C   UNL     1       3.023   4.533  18.567  0.00  0.00    +0.000 A 
ATOM     12  C   UNL     1       4.096   4.022  19.309  0.00  0.00    +0.000 A 
ATOM     13  C   UNL     1       4.492   2.688  19.162  0.00  0.00    +0.000 A 
ATOM     14  C   UNL     1       3.808   1.868  18.267  0.00  0.00    +0.000 A 
ATOM     15  C   UNL     1       2.739   2.358  17.528  0.00  0.00    +0.000 A 
ATOM     16  C   UNL     1       2.351   3.691  17.671  0.00  0.00    +0.000 A 
BRANCH  14  17
ATOM     17  O   UNL     1       4.164   0.566  18.081  0.00  0.00    +0.000 OA
ATOM     18  H   UNL     1       3.609   0.008  18.650  0.00  0.00    +0.000 HD
ENDBRANCH  14  17
ENDBRANCH   2  11
BRANCH   1  20
ATOM     19  C   UNL     1       0.920   4.473  20.786  0.00  0.00    +0.000 C 
ATOM     20  C   UNL     1       1.558   5.834  21.036  0.00  0.00    +0.000 C 
ENDBRANCH   1  20
BRANCH   7  21
ATOM     21  O   UNL     1       1.582  11.750  17.981  0.00  0.00    +0.000 OA
ATOM     22  H   UNL     1       0.686  11.921  17.650  0.00  0.00    +0.000 HD
ENDBRANCH   7  21
TORSDOF 4
ENDMDL
MODEL 6
REMARK VINA RESULT:      -6.5      2.395      5.965
REMARK  Name = 
REMARK  6 active torsions:
REMARK  status: ('A' for Active; 'I' for Inactive)
REMARK    1  A    between atoms: C_1  and  C_2
REMARK    2  A    between atoms: C_2  and  C_3
REMARK    3  A    between atoms: C_4  and  C_5
REMARK    4  A    between atoms: C_8  and  O_9
REMARK    5  A    between atoms: C_12  and  C_13
REMARK    6  A    between atoms: C_16  and  O_17
REMARK                            x       y       z     vdW  Elec       q    Type
REMARK                         _______ _______ _______ _____ _____    ______ ____
ROOT
ATOM      1  C   UNL     1       2.416   5.857  19.905  0.00  0.00    +0.000 C 
ATOM      2  C   UNL     1       2.178   7.185  19.857  0.00  0.00    +0.000 C 
ATOM      3  C   UNL     1       2.818   7.862  18.653  0.00  0.00    +0.000 C 
ATOM      4  C   UNL     1       1.813   8.500  17.696  0.00  0.00    +0.000 C 
ATOM      5  C   UNL     1       3.510   6.685  18.012  0.00  0.00    +0.000 A 
ATOM      6  C   UNL     1       4.276   6.656  16.853  0.00  0.00    +0.000 A 
ATOM      7  C   UNL     1       4.804   5.429  16.457  0.00  0.00    +0.000 A 
ATOM      8  C   UNL     1       4.595   4.270  17.210  0.00  0.00    +0.000 A 
ATOM      9  C   UNL     1       3.825   4.313  18.376  0.00  0.00    +0.000 A 
ATOM     10  C   UNL     1       3.275   5.525  18.764  0.00  0.00    +0.000 A 
ENDROOT
BRANCH   2  11
ATOM     11  C   UNL     1       1.396   7.948  20.827  0.00  0.00    +0.000 A 
ATOM     12  C   UNL     1       2.036   8.779  21.758  0.00  0.00    +0.000 A 
ATOM     13  C   UNL     1       1.292   9.489  22.706  0.00  0.00    +0.000 A 
ATOM     14  C   UNL     1      -0.095   9.364  22.719  0.00  0.00    +0.000 A 
ATOM     15  C   UNL     1      -0.744   8.549  21.800  0.00  0.00    +0.000 A 
ATOM     16  C   UNL     1       0.000   7.836  20.860  0.00  0.00    +0.000 A 
BRANCH  14  17
ATOM     17  O   UNL     1      -0.861  10.027  23.631  0.00  0.00    +0.000 OA
ATOM     18  H   UNL     1      -0.385  10.825  23.915  0.00  0.00    +0.000 HD
ENDBRANCH  14  17
ENDBRANCH   2  11
BRANCH   1  20
ATOM     19  C   UNL     1       0.856   3.955  20.314  0.00  0.00    +0.000 C 
ATOM     20  C   UNL     1       1.946   4.845  20.898  0.00  0.00    +0.000 C 
ENDBRANCH   1  20
BRANCH   7  21
ATOM     21  O   UNL     1       5.538   5.316  15.312  0.00  0.00    +0.000 OA
ATOM     22  H   UNL     1       4.943   5.417  14.552  0.00  0.00    +0.000 HD
ENDBRANCH   7  21
TORSDOF 4
ENDMDL
MODEL 7
REMARK VINA RESULT:      -6.1      3.490      6.666
REMARK  Name = 
REMARK  6 active torsions:
REMARK  status: ('A' for Active; 'I' for Inactive)
REMARK    1  A    between atoms: C_1  and  C_2
REMARK    2  A    between atoms: C_2  and  C_3
REMARK    3  A    between atoms: C_4  and  C_5
REMARK    4  A    between atoms: C_8  and  O_9
REMARK    5  A    between atoms: C_12  and  C_13
REMARK    6  A    between atoms: C_16  and  O_17
REMARK                            x       y       z     vdW  Elec       q    Type
REMARK                         _______ _______ _______ _____ _____    ______ ____
ROOT
ATOM      1  C   UNL     1       5.794   6.114  16.558  0.00  0.00    +0.000 C 
ATOM      2  C   UNL     1       4.590   5.628  16.925  0.00  0.00    +0.000 C 
ATOM      3  C   UNL     1       4.099   4.506  16.021  0.00  0.00    +0.000 C 
ATOM      4  C   UNL     1       3.917   3.170  16.739  0.00  0.00    +0.000 C 
ATOM      5  C   UNL     1       5.232   4.439  15.027  0.00  0.00    +0.000 A 
ATOM      6  C   UNL     1       5.378   3.593  13.935  0.00  0.00    +0.000 A 
ATOM      7  C   UNL     1       6.532   3.721  13.167  0.00  0.00    +0.000 A 
ATOM      8  C   UNL     1       7.500   4.684  13.463  0.00  0.00    +0.000 A 
ATOM      9  C   UNL     1       7.340   5.532  14.563  0.00  0.00    +0.000 A 
ATOM     10  C   UNL     1       6.206   5.395  15.349  0.00  0.00    +0.000 A 
ENDROOT
BRANCH   2  11
ATOM     11  C   UNL     1       3.792   6.090  18.060  0.00  0.00    +0.000 A 
ATOM     12  C   UNL     1       3.722   5.327  19.234  0.00  0.00    +0.000 A 
ATOM     13  C   UNL     1       2.937   5.751  20.311  0.00  0.00    +0.000 A 
ATOM     14  C   UNL     1       2.222   6.943  20.208  0.00  0.00    +0.000 A 
ATOM     15  C   UNL     1       2.286   7.712  19.053  0.00  0.00    +0.000 A 
ATOM     16  C   UNL     1       3.064   7.283  17.977  0.00  0.00    +0.000 A 
BRANCH  14  17
ATOM     17  O   UNL     1       1.436   7.391  21.226  0.00  0.00    +0.000 OA
ATOM     18  H   UNL     1       0.791   6.700  21.449  0.00  0.00    +0.000 HD
ENDBRANCH  14  17
ENDBRANCH   2  11
BRANCH   1  20
ATOM     19  C   UNL     1       7.586   6.608  18.222  0.00  0.00    +0.000 C 
ATOM     20  C   UNL     1       6.619   7.185  17.195  0.00  0.00    +0.000 C 
ENDBRANCH   1  20
BRANCH   7  21
ATOM     21  O   UNL     1       6.762   2.902  12.099  0.00  0.00    +0.000 OA
ATOM     22  H   UNL     1       7.696   2.642  12.105  0.00  0.00    +0.000 HD
ENDBRANCH   7  21
TORSDOF 4
ENDMDL
MODEL 8
REMARK VINA RESULT:      -6.1      1.715      2.116
REMARK  Name = 
REMARK  6 active torsions:
REMARK  status: ('A' for Active; 'I' for Inactive)
REMARK    1  A    between atoms: C_1  and  C_2
REMARK    2  A    between atoms: C_2  and  C_3
REMARK    3  A    between atoms: C_4  and  C_5
REMARK    4  A    between atoms: C_8  and  O_9
REMARK    5  A    between atoms: C_12  and  C_13
REMARK    6  A    between atoms: C_16  and  O_17
REMARK                            x       y       z     vdW  Elec       q    Type
REMARK                         _______ _______ _______ _____ _____    ______ ____
ROOT
ATOM      1  C   UNL     1       2.237   6.527  19.946  0.00  0.00    +0.000 C 
ATOM      2  C   UNL     1       2.645   6.676  18.669  0.00  0.00    +0.000 C 
ATOM      3  C   UNL     1       2.165   7.974  18.035  0.00  0.00    +0.000 C 
ATOM      4  C   UNL     1       3.295   8.914  17.620  0.00  0.00    +0.000 C 
ATOM      5  C   UNL     1       1.364   8.554  19.174  0.00  0.00    +0.000 A 
ATOM      6  C   UNL     1       0.666   9.754  19.219  0.00  0.00    +0.000 A 
ATOM      7  C   UNL     1       0.007  10.076  20.403  0.00  0.00    +0.000 A 
ATOM      8  C   UNL     1       0.023   9.213  21.502  0.00  0.00    +0.000 A 
ATOM      9  C   UNL     1       0.727   8.006  21.443  0.00  0.00    +0.000 A 
ATOM     10  C   UNL     1       1.406   7.689  20.277  0.00  0.00    +0.000 A 
ENDROOT
BRANCH   2  11
ATOM     11  C   UNL     1       3.465   5.725  17.918  0.00  0.00    +0.000 A 
ATOM     12  C   UNL     1       2.929   4.497  17.506  0.00  0.00    +0.000 A 
ATOM     13  C   UNL     1       3.718   3.574  16.812  0.00  0.00    +0.000 A 
ATOM     14  C   UNL     1       5.047   3.885  16.533  0.00  0.00    +0.000 A 
ATOM     15  C   UNL     1       5.591   5.100  16.930  0.00  0.00    +0.000 A 
ATOM     16  C   UNL     1       4.804   6.016  17.628  0.00  0.00    +0.000 A 
BRANCH  14  17
ATOM     17  O   UNL     1       5.857   3.014  15.869  0.00  0.00    +0.000 OA
ATOM     18  H   UNL     1       6.184   3.444  15.063  0.00  0.00    +0.000 HD
ENDBRANCH  14  17
ENDBRANCH   2  11
BRANCH   1  20
ATOM     19  C   UNL     1       1.474   4.314  20.808  0.00  0.00    +0.000 C 
ATOM     20  C   UNL     1       2.518   5.420  20.909  0.00  0.00    +0.000 C 
ENDBRANCH   1  20
BRANCH   7  21
ATOM     21  O   UNL     1      -0.672  11.253  20.534  0.00  0.00    +0.000 OA
ATOM     22  H   UNL     1      -0.958  11.343  21.457  0.00  0.00    +0.000 HD
ENDBRANCH   7  21
TORSDOF 4
ENDMDL
MODEL 9
REMARK VINA RESULT:      -6.1      1.081      6.791
REMARK  Name = 
REMARK  6 active torsions:
REMARK  status: ('A' for Active; 'I' for Inactive)
REMARK    1  A    between atoms: C_1  and  C_2
REMARK    2  A    between atoms: C_2  and  C_3
REMARK    3  A    between atoms: C_4  and  C_5
REMARK    4  A    between atoms: C_8  and  O_9
REMARK    5  A    between atoms: C_12  and  C_13
REMARK    6  A    between atoms: C_16  and  O_17
REMARK                            x       y       z     vdW  Elec       q    Type
REMARK                         _______ _______ _______ _____ _____    ______ ____
ROOT
ATOM      1  C   UNL     1       3.570   6.190  17.809  0.00  0.00    +0.000 C 
ATOM      2  C   UNL     1       2.551   6.449  18.654  0.00  0.00    +0.000 C 
ATOM      3  C   UNL     1       1.987   5.196  19.310  0.00  0.00    +0.000 C 
ATOM      4  C   UNL     1       2.132   5.177  20.831  0.00  0.00    +0.000 C 
ATOM      5  C   UNL     1       2.849   4.138  18.668  0.00  0.00    +0.000 A 
ATOM      6  C   UNL     1       2.823   2.764  18.864  0.00  0.00    +0.000 A 
ATOM      7  C   UNL     1       3.739   1.991  18.153  0.00  0.00    +0.000 A 
ATOM      8  C   UNL     1       4.636   2.573  17.252  0.00  0.00    +0.000 A 
ATOM      9  C   UNL     1       4.650   3.957  17.061  0.00  0.00    +0.000 A 
ATOM     10  C   UNL     1       3.759   4.737  17.784  0.00  0.00    +0.000 A 
ENDROOT
BRANCH   2  11
ATOM     11  C   UNL     1       2.000   7.771  18.949  0.00  0.00    +0.000 A 
ATOM     12  C   UNL     1       1.651   8.117  20.262  0.00  0.00    +0.000 A 
ATOM     13  C   UNL     1       1.099   9.371  20.544  0.00  0.00    +0.000 A 
ATOM     14  C   UNL     1       0.896  10.277  19.506  0.00  0.00    +0.000 A 
ATOM     15  C   UNL     1       1.242   9.951  18.200  0.00  0.00    +0.000 A 
ATOM     16  C   UNL     1       1.786   8.697  17.921  0.00  0.00    +0.000 A 
BRANCH  14  17
ATOM     17  O   UNL     1       0.351  11.505  19.730  0.00  0.00    +0.000 OA
ATOM     18  H   UNL     1      -0.560  11.507  19.393  0.00  0.00    +0.000 HD
ENDBRANCH  14  17
ENDBRANCH   2  11
BRANCH   1  20
ATOM     19  C   UNL     1       5.874   7.038  17.368  0.00  0.00    +0.000 C 
ATOM     20  C   UNL     1       4.398   7.137  17.003  0.00  0.00    +0.000 C 
ENDBRANCH   1  20
BRANCH   7  21
ATOM     21  O   UNL     1       3.797   0.638  18.318  0.00  0.00    +0.000 OA
ATOM     22  H   UNL     1       4.239   0.251  17.545  0.00  0.00    +0.000 HD
ENDBRANCH   7  21
TORSDOF 4
ENDMDL
