MODEL 1
REMARK VINA RESULT:      -4.6      0.000      0.000
REMARK  Name = 
REMARK  2 active torsions:
REMARK  status: ('A' for Active; 'I' for Inactive)
REMARK    1  A    between atoms: C_4  and  O_5
REMARK    2  A    between atoms: C_7  and  O_8
REMARK                            x       y       z     vdW  Elec       q    Type
REMARK                         _______ _______ _______ _____ _____    ______ ____
ROOT
ATOM      1  O   UNL     1       8.337   7.995  18.512  0.00  0.00    +0.000 OA
ATOM      2  C   UNL     1       7.899   6.940  18.093  0.00  0.00    +0.000 C 
ATOM      3  O   UNL     1       7.590   6.676  16.791  0.00  0.00    +0.000 OA
ATOM      4  C   UNL     1       7.038   5.372  16.704  0.00  0.00    +0.000 C 
ATOM      5  C   UNL     1       7.140   4.807  18.060  0.00  0.00    +0.000 C 
ATOM      6  C   UNL     1       7.629   5.723  18.889  0.00  0.00    +0.000 C 
ENDROOT
BRANCH   4   7
ATOM      7  O   UNL     1       7.748   4.578  15.779  0.00  0.00    +0.000 OA
ATOM      8  H   UNL     1       8.501   5.103  15.466  0.00  0.00    +0.000 HD
ENDBRANCH   4   7
BRANCH   6   9
ATOM      9  O   UNL     1       7.853   5.603  20.228  0.00  0.00    +0.000 OA
ATOM     10  H   UNL     1       8.664   6.086  20.457  0.00  0.00    +0.000 HD
ENDBRANCH   6   9
TORSDOF 2
ENDMDL
MODEL 2
REMARK VINA RESULT:      -4.4      1.435      3.495
REMARK  Name = 
REMARK  2 active torsions:
REMARK  status: ('A' for Active; 'I' for Inactive)
REMARK    1  A    between atoms: C_4  and  O_5
REMARK    2  A    between atoms: C_7  and  O_8
REMARK                            x       y       z     vdW  Elec       q    Type
REMARK                         _______ _______ _______ _____ _____    ______ ____
ROOT
ATOM      1  O   UNL     1       5.718   4.028  16.956  0.00  0.00    +0.000 OA
ATOM      2  C   UNL     1       6.348   4.751  17.704  0.00  0.00    +0.000 C 
ATOM      3  O   UNL     1       6.356   4.663  19.065  0.00  0.00    +0.000 OA
ATOM      4  C   UNL     1       7.144   5.720  19.591  0.00  0.00    +0.000 C 
ATOM      5  C   UNL     1       7.718   6.406  18.421  0.00  0.00    +0.000 C 
ATOM      6  C   UNL     1       7.246   5.857  17.306  0.00  0.00    +0.000 C 
ENDROOT
BRANCH   4   7
ATOM      7  O   UNL     1       8.165   5.227  20.430  0.00  0.00    +0.000 OA
ATOM      8  H   UNL     1       7.737   4.745  21.154  0.00  0.00    +0.000 HD
ENDBRANCH   4   7
BRANCH   6   9
ATOM      9  O   UNL     1       7.514   6.218  16.019  0.00  0.00    +0.000 OA
ATOM     10  H   UNL     1       8.453   6.455  15.947  0.00  0.00    +0.000 HD
ENDBRANCH   6   9
TORSDOF 2
ENDMDL
MODEL 3
REMARK VINA RESULT:      -4.4      5.994      6.847
REMARK  Name = 
REMARK  2 active torsions:
REMARK  status: ('A' for Active; 'I' for Inactive)
REMARK    1  A    between atoms: C_4  and  O_5
REMARK    2  A    between atoms: C_7  and  O_8
REMARK                            x       y       z     vdW  Elec       q    Type
REMARK                         _______ _______ _______ _____ _____    ______ ____
ROOT
ATOM      1  O   UNL     1       2.621   2.887  22.069  0.00  0.00    +0.000 OA
ATOM      2  C   UNL     1       2.720   2.618  20.886  0.00  0.00    +0.000 C 
ATOM      3  O   UNL     1       3.862   2.205  20.265  0.00  0.00    +0.000 OA
ATOM      4  C   UNL     1       3.605   2.064  18.876  0.00  0.00    +0.000 C 
ATOM      5  C   UNL     1       2.164   2.320  18.712  0.00  0.00    +0.000 C 
ATOM      6  C   UNL     1       1.636   2.663  19.881  0.00  0.00    +0.000 C 
ENDROOT
BRANCH   4   7
ATOM      7  O   UNL     1       3.935   0.770  18.424  0.00  0.00    +0.000 OA
ATOM      8  H   UNL     1       3.256   0.164  18.760  0.00  0.00    +0.000 HD
ENDBRANCH   4   7
BRANCH   6   9
ATOM      9  O   UNL     1       0.342   3.000  20.147  0.00  0.00    +0.000 OA
ATOM     10  H   UNL     1       0.331   3.727  20.790  0.00  0.00    +0.000 HD
ENDBRANCH   6   9
TORSDOF 2
ENDMDL
MODEL 4
REMARK VINA RESULT:      -4.4      2.072      2.678
REMARK  Name = 
REMARK  2 active torsions:
REMARK  status: ('A' for Active; 'I' for Inactive)
REMARK    1  A    between atoms: C_4  and  O_5
REMARK    2  A    between atoms: C_7  and  O_8
REMARK                            x       y       z     vdW  Elec       q    Type
REMARK                         _______ _______ _______ _____ _____    ______ ____
ROOT
ATOM      1  O   UNL     1       7.592   6.522  16.569  0.00  0.00    +0.000 OA
ATOM      2  C   UNL     1       6.956   5.602  16.090  0.00  0.00    +0.000 C 
ATOM      3  O   UNL     1       6.593   5.491  14.781  0.00  0.00    +0.000 OA
ATOM      4  C   UNL     1       5.798   4.326  14.620  0.00  0.00    +0.000 C 
ATOM      5  C   UNL     1       5.798   3.662  15.934  0.00  0.00    +0.000 C 
ATOM      6  C   UNL     1       6.461   4.409  16.811  0.00  0.00    +0.000 C 
ENDROOT
BRANCH   4   7
ATOM      7  O   UNL     1       6.334   3.474  13.632  0.00  0.00    +0.000 OA
ATOM      8  H   UNL     1       6.678   2.688  14.085  0.00  0.00    +0.000 HD
ENDBRANCH   4   7
BRANCH   6   9
ATOM      9  O   UNL     1       6.666   4.158  18.135  0.00  0.00    +0.000 OA
ATOM     10  H   UNL     1       6.252   4.863  18.658  0.00  0.00    +0.000 HD
ENDBRANCH   6   9
TORSDOF 2
ENDMDL
MODEL 5
REMARK VINA RESULT:      -4.4      1.508      2.111
REMARK  Name = 
REMARK  2 active torsions:
REMARK  status: ('A' for Active; 'I' for Inactive)
REMARK    1  A    between atoms: C_4  and  O_5
REMARK    2  A    between atoms: C_7  and  O_8
REMARK                            x       y       z     vdW  Elec       q    Type
REMARK                         _______ _______ _______ _____ _____    ______ ____
ROOT
ATOM      1  O   UNL     1       7.585   5.415  20.183  0.00  0.00    +0.000 OA
ATOM      2  C   UNL     1       7.144   5.505  19.052  0.00  0.00    +0.000 C 
ATOM      3  O   UNL     1       7.518   6.440  18.133  0.00  0.00    +0.000 OA
ATOM      4  C   UNL     1       6.734   6.274  16.961  0.00  0.00    +0.000 C 
ATOM      5  C   UNL     1       5.916   5.072  17.200  0.00  0.00    +0.000 C 
ATOM      6  C   UNL     1       6.135   4.620  18.429  0.00  0.00    +0.000 C 
ENDROOT
BRANCH   4   7
ATOM      7  O   UNL     1       7.547   6.104  15.822  0.00  0.00    +0.000 OA
ATOM      8  H   UNL     1       8.422   5.821  16.131  0.00  0.00    +0.000 HD
ENDBRANCH   4   7
BRANCH   6   9
ATOM      9  O   UNL     1       5.558   3.547  19.040  0.00  0.00    +0.000 OA
ATOM     10  H   UNL     1       6.189   3.167  19.673  0.00  0.00    +0.000 HD
ENDBRANCH   6   9
TORSDOF 2
ENDMDL
MODEL 6
REMARK VINA RESULT:      -4.3      1.482      2.545
REMARK  Name = 
REMARK  2 active torsions:
REMARK  status: ('A' for Active; 'I' for Inactive)
REMARK    1  A    between atoms: C_4  and  O_5
REMARK    2  A    between atoms: C_7  and  O_8
REMARK                            x       y       z     vdW  Elec       q    Type
REMARK                         _______ _______ _______ _____ _____    ______ ____
ROOT
ATOM      1  O   UNL     1       5.757   4.085  19.311  0.00  0.00    +0.000 OA
ATOM      2  C   UNL     1       6.404   4.978  18.798  0.00  0.00    +0.000 C 
ATOM      3  O   UNL     1       6.175   5.510  17.563  0.00  0.00    +0.000 OA
ATOM      4  C   UNL     1       7.179   6.473  17.282  0.00  0.00    +0.000 C 
ATOM      5  C   UNL     1       7.989   6.570  18.509  0.00  0.00    +0.000 C 
ATOM      6  C   UNL     1       7.555   5.686  19.401  0.00  0.00    +0.000 C 
ENDROOT
BRANCH   4   7
ATOM      7  O   UNL     1       6.613   7.723  16.960  0.00  0.00    +0.000 OA
ATOM      8  H   UNL     1       5.887   7.559  16.337  0.00  0.00    +0.000 HD
ENDBRANCH   4   7
BRANCH   6   9
ATOM      9  O   UNL     1       8.050   5.446  20.648  0.00  0.00    +0.000 OA
ATOM     10  H   UNL     1       8.464   6.257  20.985  0.00  0.00    +0.000 HD
ENDBRANCH   6   9
TORSDOF 2
ENDMDL
MODEL 7
REMARK VINA RESULT:      -4.3      5.801      6.634
REMARK  Name = 
REMARK  2 active torsions:
REMARK  status: ('A' for Active; 'I' for Inactive)
REMARK    1  A    between atoms: C_4  and  O_5
REMARK    2  A    between atoms: C_7  and  O_8
REMARK                            x       y       z     vdW  Elec       q    Type
REMARK                         _______ _______ _______ _____ _____    ______ ____
ROOT
ATOM      1  O   UNL     1       2.818   2.625  21.895  0.00  0.00    +0.000 OA
ATOM      2  C   UNL     1       2.654   2.507  20.695  0.00  0.00    +0.000 C 
ATOM      3  O   UNL     1       1.453   2.569  20.053  0.00  0.00    +0.000 OA
ATOM      4  C   UNL     1       1.655   2.310  18.672  0.00  0.00    +0.000 C 
ATOM      5  C   UNL     1       3.113   2.193  18.500  0.00  0.00    +0.000 C 
ATOM      6  C   UNL     1       3.711   2.290  19.682  0.00  0.00    +0.000 C 
ENDROOT
BRANCH   4   7
ATOM      7  O   UNL     1       1.142   3.355  17.876  0.00  0.00    +0.000 OA
ATOM      8  H   UNL     1       1.871   3.971  17.702  0.00  0.00    +0.000 HD
ENDBRANCH   4   7
BRANCH   6   9
ATOM      9  O   UNL     1       5.044   2.209  19.953  0.00  0.00    +0.000 OA
ATOM     10  H   UNL     1       5.164   2.015  20.897  0.00  0.00    +0.000 HD
ENDBRANCH   6   9
TORSDOF 2
ENDMDL
MODEL 8
REMARK VINA RESULT:      -4.3      2.456      3.001
REMARK  Name = 
REMARK  2 active torsions:
REMARK  status: ('A' for Active; 'I' for Inactive)
REMARK    1  A    between atoms: C_4  and  O_5
REMARK    2  A    between atoms: C_7  and  O_8
REMARK                            x       y       z     vdW  Elec       q    Type
REMARK                         _______ _______ _______ _____ _____    ______ ____
ROOT
ATOM      1  O   UNL     1       5.736   4.226  19.126  0.00  0.00    +0.000 OA
ATOM      2  C   UNL     1       5.897   4.584  17.974  0.00  0.00    +0.000 C 
ATOM      3  O   UNL     1       4.938   5.143  17.180  0.00  0.00    +0.000 OA
ATOM      4  C   UNL     1       5.478   5.355  15.885  0.00  0.00    +0.000 C 
ATOM      5  C   UNL     1       6.899   4.979  15.982  0.00  0.00    +0.000 C 
ATOM      6  C   UNL     1       7.155   4.510  17.199  0.00  0.00    +0.000 C 
ENDROOT
BRANCH   4   7
ATOM      7  O   UNL     1       5.346   6.702  15.490  0.00  0.00    +0.000 OA
ATOM      8  H   UNL     1       6.100   7.187  15.860  0.00  0.00    +0.000 HD
ENDBRANCH   4   7
BRANCH   6   9
ATOM      9  O   UNL     1       8.339   4.038  17.680  0.00  0.00    +0.000 OA
ATOM     10  H   UNL     1       8.770   4.737  18.198  0.00  0.00    +0.000 HD
ENDBRANCH   6   9
TORSDOF 2
ENDMDL
MODEL 9
REMARK VINA RESULT:      -4.3      5.182      5.869
REMARK  Name = 
REMARK  2 active torsions:
REMARK  status: ('A' for Active; 'I' for Inactive)
REMARK    1  A    between atoms: C_4  and  O_5
REMARK    2  A    between atoms: C_7  and  O_8
REMARK                            x       y       z     vdW  Elec       q    Type
REMARK                         _______ _______ _______ _____ _____    ______ ____
ROOT
ATOM      1  O   UNL     1       5.163   3.401  19.428  0.00  0.00    +0.000 OA
ATOM      2  C   UNL     1       4.033   3.181  19.033  0.00  0.00    +0.000 C 
ATOM      3  O   UNL     1       3.028   4.099  18.965  0.00  0.00    +0.000 OA
ATOM      4  C   UNL     1       1.843   3.454  18.528  0.00  0.00    +0.000 C 
ATOM      5  C   UNL     1       2.236   2.068  18.221  0.00  0.00    +0.000 C 
ATOM      6  C   UNL     1       3.516   1.889  18.529  0.00  0.00    +0.000 C 
ENDROOT
BRANCH   4   7
ATOM      7  O   UNL     1       1.309   4.085  17.384  0.00  0.00    +0.000 OA
ATOM      8  H   UNL     1       1.807   4.906  17.249  0.00  0.00    +0.000 HD
ENDBRANCH   4   7
BRANCH   6   9
ATOM      9  O   UNL     1       4.250   0.747  18.416  0.00  0.00    +0.000 OA
ATOM     10  H   UNL     1       4.211   0.436  17.497  0.00  0.00    +0.000 HD
ENDBRANCH   6   9
TORSDOF 2
ENDMDL
