MODEL 1
REMARK VINA RESULT:      -6.8      0.000      0.000
REMARK  Name = 
REMARK  6 active torsions:
REMARK  status: ('A' for Active; 'I' for Inactive)
REMARK    1  A    between atoms: C_1  and  C_2
REMARK    2  A    between atoms: C_12  and  C_13
REMARK    3  A    between atoms: C_12  and  C_14
REMARK    4  A    between atoms: C_15  and  C_16
REMARK    5  A    between atoms: C_17  and  C_18
REMARK    6  A    between atoms: C_17  and  C_19
REMARK                            x       y       z     vdW  Elec       q    Type
REMARK                         _______ _______ _______ _____ _____    ______ ____
ROOT
ATOM      1  C   UNL     1       7.406   4.586  16.527  0.00  0.00    +0.000 C 
ATOM      2  C   UNL     1       6.003   4.443  15.927  0.00  0.00    +0.000 C 
ATOM      3  C   UNL     1       5.741   5.525  14.871  0.00  0.00    +0.000 C 
ATOM      4  O   UNL     1       5.645   6.808  15.491  0.00  0.00    +0.000 OA
ATOM      5  C   UNL     1       4.463   6.909  16.291  0.00  0.00    +0.000 C 
ATOM      6  C   UNL     1       4.249   5.732  17.216  0.00  0.00    +0.000 A 
ATOM      7  C   UNL     1       3.291   5.820  18.237  0.00  0.00    +0.000 A 
ATOM      8  C   UNL     1       3.075   4.726  19.069  0.00  0.00    +0.000 A 
ATOM      9  C   UNL     1       3.792   3.539  18.886  0.00  0.00    +0.000 A 
ATOM     10  C   UNL     1       4.729   3.429  17.864  0.00  0.00    +0.000 A 
ATOM     11  C   UNL     1       4.962   4.528  17.024  0.00  0.00    +0.000 A 
ATOM     12  C   UNL     1       3.393   2.474  19.883  0.00  0.00    +0.000 C 
ATOM     13  C   UNL     1       4.619   1.805  20.529  0.00  0.00    +0.000 C 
ATOM     14  C   UNL     1       2.546   1.395  19.193  0.00  0.00    +0.000 C 
ATOM     15  C   UNL     1       2.628   3.341  20.944  0.00  0.00    +0.000 C 
ATOM     16  C   UNL     1       1.586   2.581  21.764  0.00  0.00    +0.000 C 
ATOM     17  C   UNL     1       2.087   4.619  20.211  0.00  0.00    +0.000 C 
ATOM     18  C   UNL     1       2.152   5.838  21.147  0.00  0.00    +0.000 C 
ATOM     19  C   UNL     1       0.659   4.493  19.660  0.00  0.00    +0.000 C 
ENDROOT
TORSDOF 0
ENDMDL
MODEL 2
REMARK VINA RESULT:      -6.7      2.427      5.831
REMARK  Name = 
REMARK  6 active torsions:
REMARK  status: ('A' for Active; 'I' for Inactive)
REMARK    1  A    between atoms: C_1  and  C_2
REMARK    2  A    between atoms: C_12  and  C_13
REMARK    3  A    between atoms: C_12  and  C_14
REMARK    4  A    between atoms: C_15  and  C_16
REMARK    5  A    between atoms: C_17  and  C_18
REMARK    6  A    between atoms: C_17  and  C_19
REMARK                            x       y       z     vdW  Elec       q    Type
REMARK                         _______ _______ _______ _____ _____    ______ ____
ROOT
ATOM      1  C   UNL     1       0.718   4.548  20.072  0.00  0.00    +0.000 C 
ATOM      2  C   UNL     1       1.451   3.589  19.129  0.00  0.00    +0.000 C 
ATOM      3  C   UNL     1       1.406   2.150  19.660  0.00  0.00    +0.000 C 
ATOM      4  O   UNL     1       2.200   2.034  20.842  0.00  0.00    +0.000 OA
ATOM      5  C   UNL     1       3.593   2.177  20.546  0.00  0.00    +0.000 C 
ATOM      6  C   UNL     1       3.912   3.369  19.674  0.00  0.00    +0.000 A 
ATOM      7  C   UNL     1       5.245   3.782  19.528  0.00  0.00    +0.000 A 
ATOM      8  C   UNL     1       5.541   4.861  18.701  0.00  0.00    +0.000 A 
ATOM      9  C   UNL     1       4.524   5.526  18.006  0.00  0.00    +0.000 A 
ATOM     10  C   UNL     1       3.202   5.114  18.122  0.00  0.00    +0.000 A 
ATOM     11  C   UNL     1       2.890   4.032  18.959  0.00  0.00    +0.000 A 
ATOM     12  C   UNL     1       5.063   6.655  17.155  0.00  0.00    +0.000 C 
ATOM     13  C   UNL     1       4.251   7.950  17.340  0.00  0.00    +0.000 C 
ATOM     14  C   UNL     1       5.032   6.259  15.672  0.00  0.00    +0.000 C 
ATOM     15  C   UNL     1       6.497   6.823  17.768  0.00  0.00    +0.000 C 
ATOM     16  C   UNL     1       7.534   7.424  16.820  0.00  0.00    +0.000 C 
ATOM     17  C   UNL     1       6.905   5.449  18.407  0.00  0.00    +0.000 C 
ATOM     18  C   UNL     1       7.724   5.678  19.688  0.00  0.00    +0.000 C 
ATOM     19  C   UNL     1       7.690   4.511  17.477  0.00  0.00    +0.000 C 
ENDROOT
TORSDOF 0
ENDMDL
MODEL 3
REMARK VINA RESULT:      -6.5      1.494      1.665
REMARK  Name = 
REMARK  6 active torsions:
REMARK  status: ('A' for Active; 'I' for Inactive)
REMARK    1  A    between atoms: C_1  and  C_2
REMARK    2  A    between atoms: C_12  and  C_13
REMARK    3  A    between atoms: C_12  and  C_14
REMARK    4  A    between atoms: C_15  and  C_16
REMARK    5  A    between atoms: C_17  and  C_18
REMARK    6  A    between atoms: C_17  and  C_19
REMARK                            x       y       z     vdW  Elec       q    Type
REMARK                         _______ _______ _______ _____ _____    ______ ____
ROOT
ATOM      1  C   UNL     1       8.206   5.820  19.074  0.00  0.00    +0.000 C 
ATOM      2  C   UNL     1       7.448   5.513  17.778  0.00  0.00    +0.000 C 
ATOM      3  C   UNL     1       7.564   6.674  16.781  0.00  0.00    +0.000 C 
ATOM      4  O   UNL     1       6.842   7.810  17.260  0.00  0.00    +0.000 OA
ATOM      5  C   UNL     1       5.431   7.571  17.244  0.00  0.00    +0.000 C 
ATOM      6  C   UNL     1       5.029   6.250  17.859  0.00  0.00    +0.000 A 
ATOM      7  C   UNL     1       3.678   6.007  18.153  0.00  0.00    +0.000 A 
ATOM      8  C   UNL     1       3.306   4.780  18.692  0.00  0.00    +0.000 A 
ATOM      9  C   UNL     1       4.262   3.786  18.929  0.00  0.00    +0.000 A 
ATOM     10  C   UNL     1       5.600   4.004  18.622  0.00  0.00    +0.000 A 
ATOM     11  C   UNL     1       5.989   5.240  18.086  0.00  0.00    +0.000 A 
ATOM     12  C   UNL     1       3.644   2.528  19.501  0.00  0.00    +0.000 C 
ATOM     13  C   UNL     1       4.428   2.007  20.719  0.00  0.00    +0.000 C 
ATOM     14  C   UNL     1       3.601   1.428  18.432  0.00  0.00    +0.000 C 
ATOM     15  C   UNL     1       2.243   3.071  19.952  0.00  0.00    +0.000 C 
ATOM     16  C   UNL     1       1.137   2.019  20.016  0.00  0.00    +0.000 C 
ATOM     17  C   UNL     1       1.911   4.323  19.065  0.00  0.00    +0.000 C 
ATOM     18  C   UNL     1       1.160   5.379  19.893  0.00  0.00    +0.000 C 
ATOM     19  C   UNL     1       1.102   4.020  17.795  0.00  0.00    +0.000 C 
ENDROOT
TORSDOF 0
ENDMDL
MODEL 4
REMARK VINA RESULT:      -6.2      9.717     12.096
REMARK  Name = 
REMARK  6 active torsions:
REMARK  status: ('A' for Active; 'I' for Inactive)
REMARK    1  A    between atoms: C_1  and  C_2
REMARK    2  A    between atoms: C_12  and  C_13
REMARK    3  A    between atoms: C_12  and  C_14
REMARK    4  A    between atoms: C_15  and  C_16
REMARK    5  A    between atoms: C_17  and  C_18
REMARK    6  A    between atoms: C_17  and  C_19
REMARK                            x       y       z     vdW  Elec       q    Type
REMARK                         _______ _______ _______ _____ _____    ______ ____
ROOT
ATOM      1  C   UNL     1       7.132  11.602  24.174  0.00  0.00    +0.000 C 
ATOM      2  C   UNL     1       8.464  12.349  24.292  0.00  0.00    +0.000 C 
ATOM      3  C   UNL     1       8.383  13.463  25.344  0.00  0.00    +0.000 C 
ATOM      4  O   UNL     1       7.519  14.508  24.892  0.00  0.00    +0.000 OA
ATOM      5  C   UNL     1       8.094  15.213  23.787  0.00  0.00    +0.000 C 
ATOM      6  C   UNL     1       8.632  14.309  22.701  0.00  0.00    +0.000 A 
ATOM      7  C   UNL     1       8.974  14.856  21.454  0.00  0.00    +0.000 A 
ATOM      8  C   UNL     1       9.496  14.028  20.465  0.00  0.00    +0.000 A 
ATOM      9  C   UNL     1       9.695  12.665  20.707  0.00  0.00    +0.000 A 
ATOM     10  C   UNL     1       9.382  12.114  21.945  0.00  0.00    +0.000 A 
ATOM     11  C   UNL     1       8.847  12.936  22.947  0.00  0.00    +0.000 A 
ATOM     12  C   UNL     1      10.285  11.954  19.509  0.00  0.00    +0.000 C 
ATOM     13  C   UNL     1       9.536  10.648  19.191  0.00  0.00    +0.000 C 
ATOM     14  C   UNL     1      11.763  11.629  19.763  0.00  0.00    +0.000 C 
ATOM     15  C   UNL     1      10.022  13.016  18.383  0.00  0.00    +0.000 C 
ATOM     16  C   UNL     1      10.979  12.940  17.194  0.00  0.00    +0.000 C 
ATOM     17  C   UNL     1       9.933  14.424  19.070  0.00  0.00    +0.000 C 
ATOM     18  C   UNL     1       8.884  15.297  18.362  0.00  0.00    +0.000 C 
ATOM     19  C   UNL     1      11.259  15.197  19.135  0.00  0.00    +0.000 C 
ENDROOT
TORSDOF 0
ENDMDL
MODEL 5
REMARK VINA RESULT:      -6.2      1.949      2.724
REMARK  Name = 
REMARK  6 active torsions:
REMARK  status: ('A' for Active; 'I' for Inactive)
REMARK    1  A    between atoms: C_1  and  C_2
REMARK    2  A    between atoms: C_12  and  C_13
REMARK    3  A    between atoms: C_12  and  C_14
REMARK    4  A    between atoms: C_15  and  C_16
REMARK    5  A    between atoms: C_17  and  C_18
REMARK    6  A    between atoms: C_17  and  C_19
REMARK                            x       y       z     vdW  Elec       q    Type
REMARK                         _______ _______ _______ _____ _____    ______ ____
ROOT
ATOM      1  C   UNL     1       7.294   4.939  15.665  0.00  0.00    +0.000 C 
ATOM      2  C   UNL     1       6.553   6.013  16.467  0.00  0.00    +0.000 C 
ATOM      3  C   UNL     1       7.538   6.948  17.182  0.00  0.00    +0.000 C 
ATOM      4  O   UNL     1       8.218   6.246  18.224  0.00  0.00    +0.000 OA
ATOM      5  C   UNL     1       7.326   5.915  19.293  0.00  0.00    +0.000 C 
ATOM      6  C   UNL     1       6.031   5.284  18.833  0.00  0.00    +0.000 A 
ATOM      7  C   UNL     1       5.189   4.671  19.774  0.00  0.00    +0.000 A 
ATOM      8  C   UNL     1       3.984   4.117  19.354  0.00  0.00    +0.000 A 
ATOM      9  C   UNL     1       3.600   4.180  18.010  0.00  0.00    +0.000 A 
ATOM     10  C   UNL     1       4.413   4.805  17.071  0.00  0.00    +0.000 A 
ATOM     11  C   UNL     1       5.634   5.359  17.480  0.00  0.00    +0.000 A 
ATOM     12  C   UNL     1       2.253   3.533  17.773  0.00  0.00    +0.000 C 
ATOM     13  C   UNL     1       2.278   2.582  16.563  0.00  0.00    +0.000 C 
ATOM     14  C   UNL     1       1.186   4.611  17.534  0.00  0.00    +0.000 C 
ATOM     15  C   UNL     1       2.085   2.716  19.101  0.00  0.00    +0.000 C 
ATOM     16  C   UNL     1       0.638   2.425  19.497  0.00  0.00    +0.000 C 
ATOM     17  C   UNL     1       2.942   3.426  20.208  0.00  0.00    +0.000 C 
ATOM     18  C   UNL     1       3.566   2.382  21.150  0.00  0.00    +0.000 C 
ATOM     19  C   UNL     1       2.182   4.462  21.049  0.00  0.00    +0.000 C 
ENDROOT
TORSDOF 0
ENDMDL
MODEL 6
REMARK VINA RESULT:      -6.0      2.243      5.694
REMARK  Name = 
REMARK  6 active torsions:
REMARK  status: ('A' for Active; 'I' for Inactive)
REMARK    1  A    between atoms: C_1  and  C_2
REMARK    2  A    between atoms: C_12  and  C_13
REMARK    3  A    between atoms: C_12  and  C_14
REMARK    4  A    between atoms: C_15  and  C_16
REMARK    5  A    between atoms: C_17  and  C_18
REMARK    6  A    between atoms: C_17  and  C_19
REMARK                            x       y       z     vdW  Elec       q    Type
REMARK                         _______ _______ _______ _____ _____    ______ ____
ROOT
ATOM      1  C   UNL     1       2.711   3.393  21.651  0.00  0.00    +0.000 C 
ATOM      2  C   UNL     1       2.113   4.372  20.636  0.00  0.00    +0.000 C 
ATOM      3  C   UNL     1       0.679   3.973  20.260  0.00  0.00    +0.000 C 
ATOM      4  O   UNL     1       0.687   2.761  19.503  0.00  0.00    +0.000 OA
ATOM      5  C   UNL     1       1.266   2.962  18.210  0.00  0.00    +0.000 C 
ATOM      6  C   UNL     1       2.581   3.708  18.240  0.00  0.00    +0.000 A 
ATOM      7  C   UNL     1       3.385   3.740  17.090  0.00  0.00    +0.000 A 
ATOM      8  C   UNL     1       4.580   4.451  17.110  0.00  0.00    +0.000 A 
ATOM      9  C   UNL     1       4.979   5.143  18.259  0.00  0.00    +0.000 A 
ATOM     10  C   UNL     1       4.182   5.140  19.398  0.00  0.00    +0.000 A 
ATOM     11  C   UNL     1       2.979   4.420  19.393  0.00  0.00    +0.000 A 
ATOM     12  C   UNL     1       6.297   5.860  18.062  0.00  0.00    +0.000 C 
ATOM     13  C   UNL     1       7.266   5.610  19.231  0.00  0.00    +0.000 C 
ATOM     14  C   UNL     1       6.061   7.371  17.928  0.00  0.00    +0.000 C 
ATOM     15  C   UNL     1       6.821   5.152  16.763  0.00  0.00    +0.000 C 
ATOM     16  C   UNL     1       7.795   5.983  15.929  0.00  0.00    +0.000 C 
ATOM     17  C   UNL     1       5.573   4.614  15.979  0.00  0.00    +0.000 C 
ATOM     18  C   UNL     1       5.906   3.272  15.304  0.00  0.00    +0.000 C 
ATOM     19  C   UNL     1       5.010   5.574  14.921  0.00  0.00    +0.000 C 
ENDROOT
TORSDOF 0
ENDMDL
MODEL 7
REMARK VINA RESULT:      -6.0      1.497      3.194
REMARK  Name = 
REMARK  6 active torsions:
REMARK  status: ('A' for Active; 'I' for Inactive)
REMARK    1  A    between atoms: C_1  and  C_2
REMARK    2  A    between atoms: C_12  and  C_13
REMARK    3  A    between atoms: C_12  and  C_14
REMARK    4  A    between atoms: C_15  and  C_16
REMARK    5  A    between atoms: C_17  and  C_18
REMARK    6  A    between atoms: C_17  and  C_19
REMARK                            x       y       z     vdW  Elec       q    Type
REMARK                         _______ _______ _______ _____ _____    ______ ____
ROOT
ATOM      1  C   UNL     1       5.406   6.978  15.405  0.00  0.00    +0.000 C 
ATOM      2  C   UNL     1       5.617   7.071  16.919  0.00  0.00    +0.000 C 
ATOM      3  C   UNL     1       7.101   7.255  17.261  0.00  0.00    +0.000 C 
ATOM      4  O   UNL     1       7.830   6.065  16.954  0.00  0.00    +0.000 OA
ATOM      5  C   UNL     1       7.473   4.997  17.837  0.00  0.00    +0.000 C 
ATOM      6  C   UNL     1       5.981   4.812  17.999  0.00  0.00    +0.000 A 
ATOM      7  C   UNL     1       5.490   3.649  18.613  0.00  0.00    +0.000 A 
ATOM      8  C   UNL     1       4.119   3.494  18.788  0.00  0.00    +0.000 A 
ATOM      9  C   UNL     1       3.230   4.491  18.370  0.00  0.00    +0.000 A 
ATOM     10  C   UNL     1       3.702   5.658  17.781  0.00  0.00    +0.000 A 
ATOM     11  C   UNL     1       5.082   5.823  17.592  0.00  0.00    +0.000 A 
ATOM     12  C   UNL     1       1.791   4.130  18.668  0.00  0.00    +0.000 C 
ATOM     13  C   UNL     1       0.877   4.367  17.453  0.00  0.00    +0.000 C 
ATOM     14  C   UNL     1       1.272   4.962  19.849  0.00  0.00    +0.000 C 
ATOM     15  C   UNL     1       1.929   2.592  18.949  0.00  0.00    +0.000 C 
ATOM     16  C   UNL     1       0.843   2.004  19.848  0.00  0.00    +0.000 C 
ATOM     17  C   UNL     1       3.399   2.328  19.431  0.00  0.00    +0.000 C 
ATOM     18  C   UNL     1       3.900   0.975  18.898  0.00  0.00    +0.000 C 
ATOM     19  C   UNL     1       3.597   2.365  20.954  0.00  0.00    +0.000 C 
ENDROOT
TORSDOF 0
ENDMDL
MODEL 8
REMARK VINA RESULT:      -6.0      9.477     11.884
REMARK  Name = 
REMARK  6 active torsions:
REMARK  status: ('A' for Active; 'I' for Inactive)
REMARK    1  A    between atoms: C_1  and  C_2
REMARK    2  A    between atoms: C_12  and  C_13
REMARK    3  A    between atoms: C_12  and  C_14
REMARK    4  A    between atoms: C_15  and  C_16
REMARK    5  A    between atoms: C_17  and  C_18
REMARK    6  A    between atoms: C_17  and  C_19
REMARK                            x       y       z     vdW  Elec       q    Type
REMARK                         _______ _______ _______ _____ _____    ______ ____
ROOT
ATOM      1  C   UNL     1       7.075  15.282  24.081  0.00  0.00    +0.000 C 
ATOM      2  C   UNL     1       6.488  14.067  23.356  0.00  0.00    +0.000 C 
ATOM      3  C   UNL     1       6.091  12.968  24.351  0.00  0.00    +0.000 C 
ATOM      4  O   UNL     1       7.257  12.397  24.947  0.00  0.00    +0.000 OA
ATOM      5  C   UNL     1       8.012  11.645  23.992  0.00  0.00    +0.000 C 
ATOM      6  C   UNL     1       8.250  12.378  22.691  0.00  0.00    +0.000 A 
ATOM      7  C   UNL     1       9.191  11.876  21.778  0.00  0.00    +0.000 A 
ATOM      8  C   UNL     1       9.389  12.535  20.568  0.00  0.00    +0.000 A 
ATOM      9  C   UNL     1       8.649  13.679  20.250  0.00  0.00    +0.000 A 
ATOM     10  C   UNL     1       7.697  14.174  21.135  0.00  0.00    +0.000 A 
ATOM     11  C   UNL     1       7.495  13.524  22.361  0.00  0.00    +0.000 A 
ATOM     12  C   UNL     1       9.006  14.227  18.886  0.00  0.00    +0.000 C 
ATOM     13  C   UNL     1       9.240  15.747  18.922  0.00  0.00    +0.000 C 
ATOM     14  C   UNL     1       7.884  13.921  17.884  0.00  0.00    +0.000 C 
ATOM     15  C   UNL     1      10.359  13.477  18.617  0.00  0.00    +0.000 C 
ATOM     16  C   UNL     1      10.712  13.300  17.141  0.00  0.00    +0.000 C 
ATOM     17  C   UNL     1      10.341  12.151  19.456  0.00  0.00    +0.000 C 
ATOM     18  C   UNL     1      11.751  11.836  19.985  0.00  0.00    +0.000 C 
ATOM     19  C   UNL     1       9.806  10.920  18.708  0.00  0.00    +0.000 C 
ENDROOT
TORSDOF 0
ENDMDL
MODEL 9
REMARK VINA RESULT:      -5.9      2.385      4.866
REMARK  Name = 
REMARK  6 active torsions:
REMARK  status: ('A' for Active; 'I' for Inactive)
REMARK    1  A    between atoms: C_1  and  C_2
REMARK    2  A    between atoms: C_12  and  C_13
REMARK    3  A    between atoms: C_12  and  C_14
REMARK    4  A    between atoms: C_15  and  C_16
REMARK    5  A    between atoms: C_17  and  C_18
REMARK    6  A    between atoms: C_17  and  C_19
REMARK                            x       y       z     vdW  Elec       q    Type
REMARK                         _______ _______ _______ _____ _____    ______ ____
ROOT
ATOM      1  C   UNL     1      -0.427   8.100  21.242  0.00  0.00    +0.000 C 
ATOM      2  C   UNL     1       1.103   8.178  21.213  0.00  0.00    +0.000 C 
ATOM      3  C   UNL     1       1.578   9.550  20.719  0.00  0.00    +0.000 C 
ATOM      4  O   UNL     1       1.267   9.710  19.333  0.00  0.00    +0.000 OA
ATOM      5  C   UNL     1       2.056   8.836  18.521  0.00  0.00    +0.000 C 
ATOM      6  C   UNL     1       2.081   7.406  19.012  0.00  0.00    +0.000 A 
ATOM      7  C   UNL     1       2.587   6.397  18.177  0.00  0.00    +0.000 A 
ATOM      8  C   UNL     1       2.636   5.086  18.640  0.00  0.00    +0.000 A 
ATOM      9  C   UNL     1       2.202   4.770  19.932  0.00  0.00    +0.000 A 
ATOM     10  C   UNL     1       1.720   5.762  20.779  0.00  0.00    +0.000 A 
ATOM     11  C   UNL     1       1.657   7.086  20.320  0.00  0.00    +0.000 A 
ATOM     12  C   UNL     1       2.356   3.297  20.239  0.00  0.00    +0.000 C 
ATOM     13  C   UNL     1       1.083   2.706  20.871  0.00  0.00    +0.000 C 
ATOM     14  C   UNL     1       3.534   3.079  21.200  0.00  0.00    +0.000 C 
ATOM     15  C   UNL     1       2.562   2.719  18.795  0.00  0.00    +0.000 C 
ATOM     16  C   UNL     1       3.332   1.400  18.735  0.00  0.00    +0.000 C 
ATOM     17  C   UNL     1       3.151   3.868  17.903  0.00  0.00    +0.000 C 
ATOM     18  C   UNL     1       2.587   3.776  16.474  0.00  0.00    +0.000 C 
ATOM     19  C   UNL     1       4.684   3.909  17.829  0.00  0.00    +0.000 C 
ENDROOT
TORSDOF 0
ENDMDL
