MODEL 1
REMARK VINA RESULT:      -8.4      0.000      0.000
REMARK  Name = 
REMARK  5 active torsions:
REMARK  status: ('A' for Active; 'I' for Inactive)
REMARK    1  A    between atoms: C_1  and  C_2
REMARK    2  A    between atoms: C_15  and  C_16
REMARK    3  A    between atoms: N_18  and  C_19
REMARK    4  A    between atoms: C_19  and  C_20
REMARK    5  A    between atoms: C_19  and  C_21
REMARK                            x       y       z     vdW  Elec       q    Type
REMARK                         _______ _______ _______ _____ _____    ______ ____
ROOT
ATOM      1  C   UNL     1       3.785   4.907  17.271  0.00  0.00    +0.000 C 
ATOM      2  C   UNL     1       3.108   5.414  18.510  0.00  0.00    +0.000 A 
ATOM      3  C   UNL     1       2.920   4.620  19.575  0.00  0.00    +0.000 A 
ATOM      4  C   UNL     1       2.260   5.060  20.811  0.00  0.00    +0.000 A 
ATOM      5  O   UNL     1       2.121   4.294  21.754  0.00  0.00    +0.000 OA
ATOM      6  O   UNL     1       1.811   6.371  20.841  0.00  0.00    +0.000 OA
ATOM      7  C   UNL     1       1.987   7.249  19.748  0.00  0.00    +0.000 A 
ATOM      8  C   UNL     1       2.630   6.804  18.581  0.00  0.00    +0.000 A 
ATOM      9  C   UNL     1       2.784   7.711  17.523  0.00  0.00    +0.000 A 
ATOM     10  C   UNL     1       2.311   9.020  17.633  0.00  0.00    +0.000 A 
ATOM     11  C   UNL     1       1.677   9.422  18.806  0.00  0.00    +0.000 A 
ATOM     12  O   UNL     1       1.222  10.751  18.856  0.00  0.00    +0.000 OA
ATOM     13  C   UNL     1       0.574  11.237  19.973  0.00  0.00    +0.000 A 
ATOM     14  N   UNL     1       0.212  12.479  19.931  0.00  0.00    +0.000 NA
ATOM     15  C   UNL     1       0.344  10.330  21.115  0.00  0.00    +0.000 A 
ATOM     16  C   UNL     1       0.800   9.065  21.058  0.00  0.00    +0.000 A 
ATOM     17  C   UNL     1       1.496   8.560  19.878  0.00  0.00    +0.000 A 
ATOM     18  H   UNL     1       0.513  12.836  19.014  0.00  0.00    +0.000 HD
ENDROOT
BRANCH  15  19
ATOM     19  C   UNL     1      -0.374  10.750  22.366  0.00  0.00    +0.000 C 
ATOM     20  O   UNL     1      -0.153  10.208  23.446  0.00  0.00    +0.000 OA
ATOM     21  N   UNL     1      -1.275  11.772  22.213  0.00  0.00    +0.000 N 
ATOM     22  H   UNL     1      -1.387  12.174  21.282  0.00  0.00    +0.000 HD
BRANCH  21  23
ATOM     23  C   UNL     1      -2.019  12.358  23.313  0.00  0.00    +0.000 C 
ATOM     24  C   UNL     1      -1.395  13.696  23.720  0.00  0.00    +0.000 C 
BRANCH  23  25
ATOM     25  C   UNL     1      -3.490  12.522  22.967  0.00  0.00    +0.000 A 
ATOM     26  C   UNL     1      -4.427  12.713  23.996  0.00  0.00    +0.000 A 
ATOM     27  C   UNL     1      -5.773  12.945  23.703  0.00  0.00    +0.000 A 
ATOM     28  C   UNL     1      -6.204  12.978  22.380  0.00  0.00    +0.000 A 
ATOM     29  C   UNL     1      -5.294  12.764  21.348  0.00  0.00    +0.000 A 
ATOM     30  C   UNL     1      -3.945  12.533  21.638  0.00  0.00    +0.000 A 
ENDBRANCH  23  25
ENDBRANCH  21  23
ENDBRANCH  15  19
TORSDOF 3
ENDMDL
MODEL 2
REMARK VINA RESULT:      -8.4      2.703      9.128
REMARK  Name = 
REMARK  5 active torsions:
REMARK  status: ('A' for Active; 'I' for Inactive)
REMARK    1  A    between atoms: C_1  and  C_2
REMARK    2  A    between atoms: C_15  and  C_16
REMARK    3  A    between atoms: N_18  and  C_19
REMARK    4  A    between atoms: C_19  and  C_20
REMARK    5  A    between atoms: C_19  and  C_21
REMARK                            x       y       z     vdW  Elec       q    Type
REMARK                         _______ _______ _______ _____ _____    ______ ____
ROOT
ATOM      1  C   UNL     1      -2.385  14.517  22.960  0.00  0.00    +0.000 C 
ATOM      2  C   UNL     1      -1.605  13.945  21.812  0.00  0.00    +0.000 A 
ATOM      3  C   UNL     1      -1.373  14.662  20.702  0.00  0.00    +0.000 A 
ATOM      4  C   UNL     1      -0.622  14.153  19.548  0.00  0.00    +0.000 A 
ATOM      5  O   UNL     1      -0.435  14.854  18.563  0.00  0.00    +0.000 OA
ATOM      6  O   UNL     1      -0.149  12.854  19.640  0.00  0.00    +0.000 OA
ATOM      7  C   UNL     1      -0.363  12.057  20.787  0.00  0.00    +0.000 A 
ATOM      8  C   UNL     1      -1.078  12.573  21.881  0.00  0.00    +0.000 A 
ATOM      9  C   UNL     1      -1.263  11.748  23.000  0.00  0.00    +0.000 A 
ATOM     10  C   UNL     1      -0.748  10.450  23.020  0.00  0.00    +0.000 A 
ATOM     11  C   UNL     1      -0.047   9.975  21.915  0.00  0.00    +0.000 A 
ATOM     12  O   UNL     1       0.446   8.661  21.995  0.00  0.00    +0.000 OA
ATOM     13  C   UNL     1       1.145   8.101  20.945  0.00  0.00    +0.000 A 
ATOM     14  N   UNL     1       1.576   6.894  21.123  0.00  0.00    +0.000 NA
ATOM     15  C   UNL     1       1.351   8.898  19.720  0.00  0.00    +0.000 A 
ATOM     16  C   UNL     1       0.886  10.160  19.664  0.00  0.00    +0.000 A 
ATOM     17  C   UNL     1       0.158  10.752  20.783  0.00  0.00    +0.000 A 
ATOM     18  H   UNL     1       1.278   6.618  22.068  0.00  0.00    +0.000 HD
ENDROOT
BRANCH  15  19
ATOM     19  C   UNL     1       2.073   8.374  18.510  0.00  0.00    +0.000 C 
ATOM     20  O   UNL     1       2.197   9.052  17.494  0.00  0.00    +0.000 OA
ATOM     21  N   UNL     1       2.579   7.106  18.631  0.00  0.00    +0.000 N 
ATOM     22  H   UNL     1       2.441   6.618  19.516  0.00  0.00    +0.000 HD
BRANCH  21  23
ATOM     23  C   UNL     1       3.360   6.452  17.597  0.00  0.00    +0.000 C 
ATOM     24  C   UNL     1       4.842   6.804  17.751  0.00  0.00    +0.000 C 
BRANCH  23  25
ATOM     25  C   UNL     1       3.150   4.946  17.607  0.00  0.00    +0.000 A 
ATOM     26  C   UNL     1       4.212   4.096  17.256  0.00  0.00    +0.000 A 
ATOM     27  C   UNL     1       4.072   2.708  17.333  0.00  0.00    +0.000 A 
ATOM     28  C   UNL     1       2.867   2.150  17.751  0.00  0.00    +0.000 A 
ATOM     29  C   UNL     1       1.796   2.978  18.077  0.00  0.00    +0.000 A 
ATOM     30  C   UNL     1       1.934   4.368  18.003  0.00  0.00    +0.000 A 
ENDBRANCH  23  25
ENDBRANCH  21  23
ENDBRANCH  15  19
TORSDOF 3
ENDMDL
MODEL 3
REMARK VINA RESULT:      -8.3      2.446      3.494
REMARK  Name = 
REMARK  5 active torsions:
REMARK  status: ('A' for Active; 'I' for Inactive)
REMARK    1  A    between atoms: C_1  and  C_2
REMARK    2  A    between atoms: C_15  and  C_16
REMARK    3  A    between atoms: N_18  and  C_19
REMARK    4  A    between atoms: C_19  and  C_20
REMARK    5  A    between atoms: C_19  and  C_21
REMARK                            x       y       z     vdW  Elec       q    Type
REMARK                         _______ _______ _______ _____ _____    ______ ____
ROOT
ATOM      1  C   UNL     1       4.679   2.032  18.942  0.00  0.00    +0.000 C 
ATOM      2  C   UNL     1       3.780   3.013  19.636  0.00  0.00    +0.000 A 
ATOM      3  C   UNL     1       3.136   2.688  20.767  0.00  0.00    +0.000 A 
ATOM      4  C   UNL     1       2.242   3.605  21.485  0.00  0.00    +0.000 A 
ATOM      5  O   UNL     1       1.684   3.257  22.517  0.00  0.00    +0.000 OA
ATOM      6  O   UNL     1       2.070   4.864  20.932  0.00  0.00    +0.000 OA
ATOM      7  C   UNL     1       2.728   5.258  19.745  0.00  0.00    +0.000 A 
ATOM      8  C   UNL     1       3.585   4.363  19.083  0.00  0.00    +0.000 A 
ATOM      9  C   UNL     1       4.219   4.798  17.910  0.00  0.00    +0.000 A 
ATOM     10  C   UNL     1       4.000   6.087  17.419  0.00  0.00    +0.000 A 
ATOM     11  C   UNL     1       3.141   6.943  18.103  0.00  0.00    +0.000 A 
ATOM     12  O   UNL     1       2.961   8.226  17.559  0.00  0.00    +0.000 OA
ATOM     13  C   UNL     1       2.122   9.141  18.162  0.00  0.00    +0.000 A 
ATOM     14  N   UNL     1       2.040  10.302  17.597  0.00  0.00    +0.000 NA
ATOM     15  C   UNL     1       1.394   8.743  19.383  0.00  0.00    +0.000 A 
ATOM     16  C   UNL     1       1.588   7.516  19.900  0.00  0.00    +0.000 A 
ATOM     17  C   UNL     1       2.488   6.556  19.265  0.00  0.00    +0.000 A 
ATOM     18  H   UNL     1       2.661  10.270  16.778  0.00  0.00    +0.000 HD
ENDROOT
BRANCH  15  19
ATOM     19  C   UNL     1       0.436   9.651  20.101  0.00  0.00    +0.000 C 
ATOM     20  O   UNL     1       0.334   9.638  21.325  0.00  0.00    +0.000 OA
ATOM     21  N   UNL     1      -0.297  10.487  19.298  0.00  0.00    +0.000 N 
ATOM     22  H   UNL     1      -0.139  10.442  18.292  0.00  0.00    +0.000 HD
BRANCH  21  23
ATOM     23  C   UNL     1      -1.225  11.479  19.808  0.00  0.00    +0.000 C 
ATOM     24  C   UNL     1      -0.528  12.834  19.951  0.00  0.00    +0.000 C 
BRANCH  23  25
ATOM     25  C   UNL     1      -2.462  11.588  18.931  0.00  0.00    +0.000 A 
ATOM     26  C   UNL     1      -2.416  11.121  17.607  0.00  0.00    +0.000 A 
ATOM     27  C   UNL     1      -3.559  11.135  16.803  0.00  0.00    +0.000 A 
ATOM     28  C   UNL     1      -4.760  11.626  17.307  0.00  0.00    +0.000 A 
ATOM     29  C   UNL     1      -4.817  12.118  18.609  0.00  0.00    +0.000 A 
ATOM     30  C   UNL     1      -3.675  12.102  19.416  0.00  0.00    +0.000 A 
ENDBRANCH  23  25
ENDBRANCH  21  23
ENDBRANCH  15  19
TORSDOF 3
ENDMDL
MODEL 4
REMARK VINA RESULT:      -8.1      0.972      1.106
REMARK  Name = 
REMARK  5 active torsions:
REMARK  status: ('A' for Active; 'I' for Inactive)
REMARK    1  A    between atoms: C_1  and  C_2
REMARK    2  A    between atoms: C_15  and  C_16
REMARK    3  A    between atoms: N_18  and  C_19
REMARK    4  A    between atoms: C_19  and  C_20
REMARK    5  A    between atoms: C_19  and  C_21
REMARK                            x       y       z     vdW  Elec       q    Type
REMARK                         _______ _______ _______ _____ _____    ______ ____
ROOT
ATOM      1  C   UNL     1       4.018   3.532  17.790  0.00  0.00    +0.000 C 
ATOM      2  C   UNL     1       3.316   4.230  18.918  0.00  0.00    +0.000 A 
ATOM      3  C   UNL     1       3.016   3.585  20.056  0.00  0.00    +0.000 A 
ATOM      4  C   UNL     1       2.327   4.215  21.189  0.00  0.00    +0.000 A 
ATOM      5  O   UNL     1       2.084   3.580  22.206  0.00  0.00    +0.000 OA
ATOM      6  O   UNL     1       1.973   5.546  21.037  0.00  0.00    +0.000 OA
ATOM      7  C   UNL     1       2.268   6.272  19.862  0.00  0.00    +0.000 A 
ATOM      8  C   UNL     1       2.937   5.646  18.796  0.00  0.00    +0.000 A 
ATOM      9  C   UNL     1       3.212   6.406  17.650  0.00  0.00    +0.000 A 
ATOM     10  C   UNL     1       2.829   7.747  17.576  0.00  0.00    +0.000 A 
ATOM     11  C   UNL     1       2.166   8.330  18.653  0.00  0.00    +0.000 A 
ATOM     12  O   UNL     1       1.806   9.682  18.519  0.00  0.00    +0.000 OA
ATOM     13  C   UNL     1       1.138  10.342  19.530  0.00  0.00    +0.000 A 
ATOM     14  N   UNL     1       0.870  11.590  19.320  0.00  0.00    +0.000 NA
ATOM     15  C   UNL     1       0.785   9.598  20.755  0.00  0.00    +0.000 A 
ATOM     16  C   UNL     1       1.150   8.308  20.875  0.00  0.00    +0.000 A 
ATOM     17  C   UNL     1       1.868   7.618  19.806  0.00  0.00    +0.000 A 
ATOM     18  H   UNL     1       1.244  11.813  18.388  0.00  0.00    +0.000 HD
ENDROOT
BRANCH  15  19
ATOM     19  C   UNL     1       0.035  10.212  21.902  0.00  0.00    +0.000 C 
ATOM     20  O   UNL     1      -0.107   9.619  22.968  0.00  0.00    +0.000 OA
ATOM     21  N   UNL     1      -0.464  11.469  21.674  0.00  0.00    +0.000 N 
ATOM     22  H   UNL     1      -0.288  11.894  20.763  0.00  0.00    +0.000 HD
BRANCH  21  23
ATOM     23  C   UNL     1      -1.160  12.251  22.679  0.00  0.00    +0.000 C 
ATOM     24  C   UNL     1      -0.477  13.609  22.860  0.00  0.00    +0.000 C 
BRANCH  23  25
ATOM     25  C   UNL     1      -2.631  12.419  22.334  0.00  0.00    +0.000 A 
ATOM     26  C   UNL     1      -3.579  12.516  23.366  0.00  0.00    +0.000 A 
ATOM     27  C   UNL     1      -4.926  12.749  23.081  0.00  0.00    +0.000 A 
ATOM     28  C   UNL     1      -5.348  12.879  21.761  0.00  0.00    +0.000 A 
ATOM     29  C   UNL     1      -4.427  12.760  20.724  0.00  0.00    +0.000 A 
ATOM     30  C   UNL     1      -3.077  12.528  21.007  0.00  0.00    +0.000 A 
ENDBRANCH  23  25
ENDBRANCH  21  23
ENDBRANCH  15  19
TORSDOF 3
ENDMDL
MODEL 5
REMARK VINA RESULT:      -8.0      1.706      2.551
REMARK  Name = 
REMARK  5 active torsions:
REMARK  status: ('A' for Active; 'I' for Inactive)
REMARK    1  A    between atoms: C_1  and  C_2
REMARK    2  A    between atoms: C_15  and  C_16
REMARK    3  A    between atoms: N_18  and  C_19
REMARK    4  A    between atoms: C_19  and  C_20
REMARK    5  A    between atoms: C_19  and  C_21
REMARK                            x       y       z     vdW  Elec       q    Type
REMARK                         _______ _______ _______ _____ _____    ______ ____
ROOT
ATOM      1  C   UNL     1       3.985   1.999  18.306  0.00  0.00    +0.000 C 
ATOM      2  C   UNL     1       3.306   2.964  19.234  0.00  0.00    +0.000 A 
ATOM      3  C   UNL     1       2.849   2.573  20.433  0.00  0.00    +0.000 A 
ATOM      4  C   UNL     1       2.173   3.471  21.377  0.00  0.00    +0.000 A 
ATOM      5  O   UNL     1       1.781   3.061  22.461  0.00  0.00    +0.000 OA
ATOM      6  O   UNL     1       2.008   4.786  20.972  0.00  0.00    +0.000 OA
ATOM      7  C   UNL     1       2.474   5.250  19.722  0.00  0.00    +0.000 A 
ATOM      8  C   UNL     1       3.125   4.370  18.841  0.00  0.00    +0.000 A 
ATOM      9  C   UNL     1       3.574   4.876  17.612  0.00  0.00    +0.000 A 
ATOM     10  C   UNL     1       3.376   6.217  17.280  0.00  0.00    +0.000 A 
ATOM     11  C   UNL     1       2.725   7.057  18.179  0.00  0.00    +0.000 A 
ATOM     12  O   UNL     1       2.556   8.396  17.787  0.00  0.00    +0.000 OA
ATOM     13  C   UNL     1       1.913   9.300  18.609  0.00  0.00    +0.000 A 
ATOM     14  N   UNL     1       1.826  10.513  18.169  0.00  0.00    +0.000 NA
ATOM     15  C   UNL     1       1.384   8.833  19.905  0.00  0.00    +0.000 A 
ATOM     16  C   UNL     1       1.567   7.552  20.274  0.00  0.00    +0.000 A 
ATOM     17  C   UNL     1       2.259   6.602  19.405  0.00  0.00    +0.000 A 
ATOM     18  H   UNL     1       2.288  10.520  17.249  0.00  0.00    +0.000 HD
ENDROOT
BRANCH  15  19
ATOM     19  C   UNL     1       0.645   9.727  20.861  0.00  0.00    +0.000 C 
ATOM     20  O   UNL     1       0.061   9.274  21.842  0.00  0.00    +0.000 OA
ATOM     21  N   UNL     1       0.680  11.064  20.563  0.00  0.00    +0.000 N 
ATOM     22  H   UNL     1       1.201  11.356  19.735  0.00  0.00    +0.000 HD
BRANCH  21  23
ATOM     23  C   UNL     1       0.082  12.089  21.398  0.00  0.00    +0.000 C 
ATOM     24  C   UNL     1       0.815  13.420  21.211  0.00  0.00    +0.000 C 
BRANCH  23  25
ATOM     25  C   UNL     1      -1.405  12.238  21.120  0.00  0.00    +0.000 A 
ATOM     26  C   UNL     1      -2.286  12.502  22.181  0.00  0.00    +0.000 A 
ATOM     27  C   UNL     1      -3.645  12.722  21.945  0.00  0.00    +0.000 A 
ATOM     28  C   UNL     1      -4.145  12.671  20.647  0.00  0.00    +0.000 A 
ATOM     29  C   UNL     1      -3.291  12.385  19.585  0.00  0.00    +0.000 A 
ATOM     30  C   UNL     1      -1.929  12.166  19.819  0.00  0.00    +0.000 A 
ENDBRANCH  23  25
ENDBRANCH  21  23
ENDBRANCH  15  19
TORSDOF 3
ENDMDL
MODEL 6
REMARK VINA RESULT:      -7.9      3.463      8.774
REMARK  Name = 
REMARK  5 active torsions:
REMARK  status: ('A' for Active; 'I' for Inactive)
REMARK    1  A    between atoms: C_1  and  C_2
REMARK    2  A    between atoms: C_15  and  C_16
REMARK    3  A    between atoms: N_18  and  C_19
REMARK    4  A    between atoms: C_19  and  C_20
REMARK    5  A    between atoms: C_19  and  C_21
REMARK                            x       y       z     vdW  Elec       q    Type
REMARK                         _______ _______ _______ _____ _____    ______ ____
ROOT
ATOM      1  C   UNL     1      -5.658  12.595  17.337  0.00  0.00    +0.000 C 
ATOM      2  C   UNL     1      -4.502  11.752  16.884  0.00  0.00    +0.000 A 
ATOM      3  C   UNL     1      -4.453  11.247  15.642  0.00  0.00    +0.000 A 
ATOM      4  C   UNL     1      -3.350  10.414  15.147  0.00  0.00    +0.000 A 
ATOM      5  O   UNL     1      -3.355   9.984  14.001  0.00  0.00    +0.000 OA
ATOM      6  O   UNL     1      -2.325  10.146  16.041  0.00  0.00    +0.000 OA
ATOM      7  C   UNL     1      -2.327  10.656  17.358  0.00  0.00    +0.000 A 
ATOM      8  C   UNL     1      -3.390  11.459  17.803  0.00  0.00    +0.000 A 
ATOM      9  C   UNL     1      -3.348  11.946  19.118  0.00  0.00    +0.000 A 
ATOM     10  C   UNL     1      -2.274  11.637  19.956  0.00  0.00    +0.000 A 
ATOM     11  C   UNL     1      -1.240  10.837  19.478  0.00  0.00    +0.000 A 
ATOM     12  O   UNL     1      -0.189  10.562  20.369  0.00  0.00    +0.000 OA
ATOM     13  C   UNL     1       0.875   9.770  19.988  0.00  0.00    +0.000 A 
ATOM     14  N   UNL     1       1.803   9.593  20.872  0.00  0.00    +0.000 NA
ATOM     15  C   UNL     1       0.884   9.194  18.629  0.00  0.00    +0.000 A 
ATOM     16  C   UNL     1      -0.122   9.479  17.782  0.00  0.00    +0.000 A 
ATOM     17  C   UNL     1      -1.240  10.328  18.187  0.00  0.00    +0.000 A 
ATOM     18  H   UNL     1       1.512  10.120  21.706  0.00  0.00    +0.000 HD
ENDROOT
BRANCH  15  19
ATOM     19  C   UNL     1       1.978   8.297  18.124  0.00  0.00    +0.000 C 
ATOM     20  O   UNL     1       2.804   8.691  17.304  0.00  0.00    +0.000 OA
ATOM     21  N   UNL     1       1.989   7.029  18.645  0.00  0.00    +0.000 N 
ATOM     22  H   UNL     1       1.273   6.789  19.332  0.00  0.00    +0.000 HD
BRANCH  21  23
ATOM     23  C   UNL     1       3.002   6.039  18.330  0.00  0.00    +0.000 C 
ATOM     24  C   UNL     1       4.211   6.206  19.255  0.00  0.00    +0.000 C 
BRANCH  23  25
ATOM     25  C   UNL     1       2.445   4.627  18.403  0.00  0.00    +0.000 A 
ATOM     26  C   UNL     1       2.970   3.629  17.566  0.00  0.00    +0.000 A 
ATOM     27  C   UNL     1       2.533   2.307  17.667  0.00  0.00    +0.000 A 
ATOM     28  C   UNL     1       1.557   1.963  18.599  0.00  0.00    +0.000 A 
ATOM     29  C   UNL     1       1.006   2.945  19.419  0.00  0.00    +0.000 A 
ATOM     30  C   UNL     1       1.444   4.269  19.321  0.00  0.00    +0.000 A 
ENDBRANCH  23  25
ENDBRANCH  21  23
ENDBRANCH  15  19
TORSDOF 3
ENDMDL
MODEL 7
REMARK VINA RESULT:      -7.9      3.315      8.691
REMARK  Name = 
REMARK  5 active torsions:
REMARK  status: ('A' for Active; 'I' for Inactive)
REMARK    1  A    between atoms: C_1  and  C_2
REMARK    2  A    between atoms: C_15  and  C_16
REMARK    3  A    between atoms: N_18  and  C_19
REMARK    4  A    between atoms: C_19  and  C_20
REMARK    5  A    between atoms: C_19  and  C_21
REMARK                            x       y       z     vdW  Elec       q    Type
REMARK                         _______ _______ _______ _____ _____    ______ ____
ROOT
ATOM      1  C   UNL     1       1.089  17.317  20.833  0.00  0.00    +0.000 C 
ATOM      2  C   UNL     1       1.562  16.167  19.991  0.00  0.00    +0.000 A 
ATOM      3  C   UNL     1       2.332  16.366  18.911  0.00  0.00    +0.000 A 
ATOM      4  C   UNL     1       2.819  15.282  18.050  0.00  0.00    +0.000 A 
ATOM      5  O   UNL     1       3.524  15.521  17.079  0.00  0.00    +0.000 OA
ATOM      6  O   UNL     1       2.437  13.996  18.396  0.00  0.00    +0.000 OA
ATOM      7  C   UNL     1       1.630  13.731  19.525  0.00  0.00    +0.000 A 
ATOM      8  C   UNL     1       1.185  14.788  20.337  0.00  0.00    +0.000 A 
ATOM      9  C   UNL     1       0.389  14.478  21.450  0.00  0.00    +0.000 A 
ATOM     10  C   UNL     1       0.053  13.154  21.737  0.00  0.00    +0.000 A 
ATOM     11  C   UNL     1       0.512  12.135  20.906  0.00  0.00    +0.000 A 
ATOM     12  O   UNL     1       0.139  10.823  21.248  0.00  0.00    +0.000 OA
ATOM     13  C   UNL     1       0.539   9.750  20.479  0.00  0.00    +0.000 A 
ATOM     14  N   UNL     1       0.163   8.581  20.887  0.00  0.00    +0.000 NA
ATOM     15  C   UNL     1       1.351  10.000  19.272  0.00  0.00    +0.000 A 
ATOM     16  C   UNL     1       1.714  11.260  18.967  0.00  0.00    +0.000 A 
ATOM     17  C   UNL     1       1.298  12.392  19.792  0.00  0.00    +0.000 A 
ATOM     18  H   UNL     1      -0.380   8.736  21.746  0.00  0.00    +0.000 HD
ENDROOT
BRANCH  15  19
ATOM     19  C   UNL     1       1.815   8.907  18.352  0.00  0.00    +0.000 C 
ATOM     20  O   UNL     1       1.911   9.085  17.140  0.00  0.00    +0.000 OA
ATOM     21  N   UNL     1       2.125   7.718  18.960  0.00  0.00    +0.000 N 
ATOM     22  H   UNL     1       2.029   7.661  19.974  0.00  0.00    +0.000 HD
BRANCH  21  23
ATOM     23  C   UNL     1       2.650   6.566  18.249  0.00  0.00    +0.000 C 
ATOM     24  C   UNL     1       4.181   6.577  18.281  0.00  0.00    +0.000 C 
BRANCH  23  25
ATOM     25  C   UNL     1       2.099   5.266  18.811  0.00  0.00    +0.000 A 
ATOM     26  C   UNL     1       1.879   5.146  20.194  0.00  0.00    +0.000 A 
ATOM     27  C   UNL     1       1.300   3.993  20.728  0.00  0.00    +0.000 A 
ATOM     28  C   UNL     1       0.942   2.939  19.892  0.00  0.00    +0.000 A 
ATOM     29  C   UNL     1       1.177   3.030  18.522  0.00  0.00    +0.000 A 
ATOM     30  C   UNL     1       1.755   4.184  17.984  0.00  0.00    +0.000 A 
ENDBRANCH  23  25
ENDBRANCH  21  23
ENDBRANCH  15  19
TORSDOF 3
ENDMDL
MODEL 8
REMARK VINA RESULT:      -7.9      1.782      2.459
REMARK  Name = 
REMARK  5 active torsions:
REMARK  status: ('A' for Active; 'I' for Inactive)
REMARK    1  A    between atoms: C_1  and  C_2
REMARK    2  A    between atoms: C_15  and  C_16
REMARK    3  A    between atoms: N_18  and  C_19
REMARK    4  A    between atoms: C_19  and  C_20
REMARK    5  A    between atoms: C_19  and  C_21
REMARK                            x       y       z     vdW  Elec       q    Type
REMARK                         _______ _______ _______ _____ _____    ______ ____
ROOT
ATOM      1  C   UNL     1       4.633   3.406  17.800  0.00  0.00    +0.000 C 
ATOM      2  C   UNL     1       3.749   4.202  18.715  0.00  0.00    +0.000 A 
ATOM      3  C   UNL     1       3.233   3.661  19.829  0.00  0.00    +0.000 A 
ATOM      4  C   UNL     1       2.359   4.390  20.757  0.00  0.00    +0.000 A 
ATOM      5  O   UNL     1       1.921   3.848  21.762  0.00  0.00    +0.000 OA
ATOM      6  O   UNL     1       2.065   5.704  20.429  0.00  0.00    +0.000 OA
ATOM      7  C   UNL     1       2.585   6.322  19.270  0.00  0.00    +0.000 A 
ATOM      8  C   UNL     1       3.426   5.604  18.404  0.00  0.00    +0.000 A 
ATOM      9  C   UNL     1       3.922   6.259  17.267  0.00  0.00    +0.000 A 
ATOM     10  C   UNL     1       3.585   7.590  17.010  0.00  0.00    +0.000 A 
ATOM     11  C   UNL     1       2.747   8.267  17.891  0.00  0.00    +0.000 A 
ATOM     12  O   UNL     1       2.445   9.603  17.577  0.00  0.00    +0.000 OA
ATOM     13  C   UNL     1       1.615  10.352  18.387  0.00  0.00    +0.000 A 
ATOM     14  N   UNL     1       1.415  11.578  18.026  0.00  0.00    +0.000 NA
ATOM     15  C   UNL     1       1.028   9.719  19.585  0.00  0.00    +0.000 A 
ATOM     16  C   UNL     1       1.340   8.444  19.881  0.00  0.00    +0.000 A 
ATOM     17  C   UNL     1       2.229   7.660  19.026  0.00  0.00    +0.000 A 
ATOM     18  H   UNL     1       1.958  11.716  17.163  0.00  0.00    +0.000 HD
ENDROOT
BRANCH  15  19
ATOM     19  C   UNL     1       0.092  10.435  20.517  0.00  0.00    +0.000 C 
ATOM     20  O   UNL     1       0.165  10.291  21.735  0.00  0.00    +0.000 OA
ATOM     21  N   UNL     1      -0.828  11.253  19.914  0.00  0.00    +0.000 N 
ATOM     22  H   UNL     1      -0.809  11.324  18.896  0.00  0.00    +0.000 HD
BRANCH  21  23
ATOM     23  C   UNL     1      -1.773  12.075  20.646  0.00  0.00    +0.000 C 
ATOM     24  C   UNL     1      -1.165  13.449  20.939  0.00  0.00    +0.000 C 
BRANCH  23  25
ATOM     25  C   UNL     1      -3.092  12.207  19.901  0.00  0.00    +0.000 A 
ATOM     26  C   UNL     1      -3.206  11.697  18.597  0.00  0.00    +0.000 A 
ATOM     27  C   UNL     1      -4.426  11.733  17.918  0.00  0.00    +0.000 A 
ATOM     28  C   UNL     1      -5.548  12.288  18.529  0.00  0.00    +0.000 A 
ATOM     29  C   UNL     1      -5.447  12.821  19.811  0.00  0.00    +0.000 A 
ATOM     30  C   UNL     1      -4.227  12.785  20.493  0.00  0.00    +0.000 A 
ENDBRANCH  23  25
ENDBRANCH  21  23
ENDBRANCH  15  19
TORSDOF 3
ENDMDL
MODEL 9
REMARK VINA RESULT:      -7.8      3.644      5.742
REMARK  Name = 
REMARK  5 active torsions:
REMARK  status: ('A' for Active; 'I' for Inactive)
REMARK    1  A    between atoms: C_1  and  C_2
REMARK    2  A    between atoms: C_15  and  C_16
REMARK    3  A    between atoms: N_18  and  C_19
REMARK    4  A    between atoms: C_19  and  C_20
REMARK    5  A    between atoms: C_19  and  C_21
REMARK                            x       y       z     vdW  Elec       q    Type
REMARK                         _______ _______ _______ _____ _____    ______ ____
ROOT
ATOM      1  C   UNL     1       1.396   9.219  17.870  0.00  0.00    +0.000 C 
ATOM      2  C   UNL     1       0.495  10.094  18.691  0.00  0.00    +0.000 A 
ATOM      3  C   UNL     1       0.918  10.646  19.839  0.00  0.00    +0.000 A 
ATOM      4  C   UNL     1       0.079  11.505  20.684  0.00  0.00    +0.000 A 
ATOM      5  O   UNL     1       0.519  11.987  21.719  0.00  0.00    +0.000 OA
ATOM      6  O   UNL     1      -1.216  11.730  20.248  0.00  0.00    +0.000 OA
ATOM      7  C   UNL     1      -1.710  11.175  19.046  0.00  0.00    +0.000 A 
ATOM      8  C   UNL     1      -0.883  10.364  18.251  0.00  0.00    +0.000 A 
ATOM      9  C   UNL     1      -1.414   9.837  17.065  0.00  0.00    +0.000 A 
ATOM     10  C   UNL     1      -2.729  10.117  16.689  0.00  0.00    +0.000 A 
ATOM     11  C   UNL     1      -3.518  10.924  17.505  0.00  0.00    +0.000 A 
ATOM     12  O   UNL     1      -4.833  11.168  17.073  0.00  0.00    +0.000 OA
ATOM     13  C   UNL     1      -5.692  11.948  17.820  0.00  0.00    +0.000 A 
ATOM     14  N   UNL     1      -6.874  12.132  17.328  0.00  0.00    +0.000 NA
ATOM     15  C   UNL     1      -5.214  12.510  19.099  0.00  0.00    +0.000 A 
ATOM     16  C   UNL     1      -3.947  12.280  19.491  0.00  0.00    +0.000 A 
ATOM     17  C   UNL     1      -3.039  11.463  18.690  0.00  0.00    +0.000 A 
ATOM     18  H   UNL     1      -6.898  11.620  16.436  0.00  0.00    +0.000 HD
ENDROOT
BRANCH  15  19
ATOM     19  C   UNL     1      -6.075  13.348  20.001  0.00  0.00    +0.000 C 
ATOM     20  O   UNL     1      -6.593  14.390  19.607  0.00  0.00    +0.000 OA
ATOM     21  N   UNL     1      -6.240  12.864  21.273  0.00  0.00    +0.000 N 
ATOM     22  H   UNL     1      -5.783  11.984  21.512  0.00  0.00    +0.000 HD
BRANCH  21  23
ATOM     23  C   UNL     1      -7.085  13.497  22.269  0.00  0.00    +0.000 C 
ATOM     24  C   UNL     1      -7.732  12.438  23.165  0.00  0.00    +0.000 C 
BRANCH  23  25
ATOM     25  C   UNL     1      -6.310  14.513  23.093  0.00  0.00    +0.000 A 
ATOM     26  C   UNL     1      -5.048  14.172  23.607  0.00  0.00    +0.000 A 
ATOM     27  C   UNL     1      -4.280  15.111  24.300  0.00  0.00    +0.000 A 
ATOM     28  C   UNL     1      -4.766  16.400  24.498  0.00  0.00    +0.000 A 
ATOM     29  C   UNL     1      -6.026  16.748  24.018  0.00  0.00    +0.000 A 
ATOM     30  C   UNL     1      -6.796  15.811  23.323  0.00  0.00    +0.000 A 
ENDBRANCH  23  25
ENDBRANCH  21  23
ENDBRANCH  15  19
TORSDOF 3
ENDMDL
