MODEL 1
REMARK VINA RESULT:      -8.8      0.000      0.000
REMARK  Name = 
REMARK  8 active torsions:
REMARK  status: ('A' for Active; 'I' for Inactive)
REMARK    1  A    between atoms: N_1  and  C_2
REMARK    2  A    between atoms: C_3  and  C_4
REMARK    3  A    between atoms: N_6  and  C_7
REMARK    4  A    between atoms: C_7  and  C_8
REMARK    5  A    between atoms: C_8  and  C_9
REMARK    6  A    between atoms: C_9  and  C_10
REMARK    7  A    between atoms: N_26  and  C_27
REMARK    8  A    between atoms: C_27  and  C_28
REMARK                            x       y       z     vdW  Elec       q    Type
REMARK                         _______ _______ _______ _____ _____    ______ ____
ROOT
ATOM      1  C   UNL     1       5.958   4.770  18.376  0.00  0.00    +0.000 A 
ATOM      2  C   UNL     1       5.885   6.048  17.861  0.00  0.00    +0.000 A 
ATOM      3  C   UNL     1       4.590   6.508  18.157  0.00  0.00    +0.000 A 
ATOM      4  N   UNL     1       4.004   7.626  17.693  0.00  0.00    +0.000 NA
ATOM      5  C   UNL     1       2.876   7.951  18.305  0.00  0.00    +0.000 A 
ATOM      6  C   UNL     1       2.265   9.096  17.825  0.00  0.00    +0.000 A 
ATOM      7  C   UNL     1       1.192   9.661  18.492  0.00  0.00    +0.000 A 
ATOM      8  C   UNL     1       0.745   9.058  19.659  0.00  0.00    +0.000 A 
ATOM      9  C   UNL     1       1.315   7.841  20.090  0.00  0.00    +0.000 A 
ATOM     10  C   UNL     1       2.366   7.221  19.408  0.00  0.00    +0.000 A 
ATOM     11  N   UNL     1       2.890   6.008  19.794  0.00  0.00    +0.000 NA
ATOM     12  C   UNL     1       4.018   5.681  19.109  0.00  0.00    +0.000 A 
ATOM     13  N   UNL     1       4.820   4.545  19.150  0.00  0.00    +0.000 N 
ENDROOT
BRANCH   2  14
ATOM     14  C   UNL     1       6.908   6.810  17.160  0.00  0.00    +0.000 C 
ATOM     15  O   UNL     1       7.437   6.437  16.121  0.00  0.00    +0.000 OA
ATOM     16  N   UNL     1       7.267   7.969  17.823  0.00  0.00    +0.000 N 
ATOM     17  H   UNL     1       6.654   8.267  18.580  0.00  0.00    +0.000 HD
BRANCH  16  18
ATOM     18  C   UNL     1       8.229   8.907  17.318  0.00  0.00    +0.000 C 
BRANCH  18  19
ATOM     19  C   UNL     1       8.241  10.175  18.168  0.00  0.00    +0.000 C 
BRANCH  19  20
ATOM     20  C   UNL     1       9.352  10.127  19.215  0.00  0.00    +0.000 C 
BRANCH  20  21
ATOM     21  C   UNL     1      10.417  11.155  18.924  0.00  0.00    +0.000 A 
ATOM     22  C   UNL     1      11.309  11.555  19.927  0.00  0.00    +0.000 A 
ATOM     23  C   UNL     1      12.264  12.539  19.673  0.00  0.00    +0.000 A 
ATOM     24  C   UNL     1      12.333  13.136  18.415  0.00  0.00    +0.000 A 
ATOM     25  C   UNL     1      11.452  12.743  17.410  0.00  0.00    +0.000 A 
ATOM     26  C   UNL     1      10.496  11.758  17.662  0.00  0.00    +0.000 A 
ENDBRANCH  20  21
ENDBRANCH  19  20
ENDBRANCH  18  19
ENDBRANCH  16  18
ENDBRANCH   2  14
BRANCH   1  27
ATOM     27  N   UNL     1       6.929   3.854  18.203  0.00  0.00    +0.000 N 
ATOM     28  H   UNL     1       7.724   3.829  18.846  0.00  0.00    +0.000 HD
ATOM     29  H   UNL     1       6.980   3.167  17.454  0.00  0.00    +0.000 HD
ENDBRANCH   1  27
BRANCH  13  30
ATOM     30  C   UNL     1       4.408   3.237  19.672  0.00  0.00    +0.000 C 
BRANCH  30  31
ATOM     31  C   UNL     1       2.934   2.934  19.493  0.00  0.00    +0.000 A 
ATOM     32  C   UNL     1       2.223   2.675  18.341  0.00  0.00    +0.000 A 
ATOM     33  C   UNL     1       0.824   2.477  18.591  0.00  0.00    +0.000 A 
ATOM     34  C   UNL     1       0.523   2.569  19.930  0.00  0.00    +0.000 A 
ATOM     35  S   UNL     1       1.911   2.881  20.877  0.00  0.00    +0.000 S 
ENDBRANCH  30  31
ENDBRANCH  13  30
TORSDOF 8
ENDMDL
MODEL 2
REMARK VINA RESULT:      -8.6      1.128      1.420
REMARK  Name = 
REMARK  8 active torsions:
REMARK  status: ('A' for Active; 'I' for Inactive)
REMARK    1  A    between atoms: N_1  and  C_2
REMARK    2  A    between atoms: C_3  and  C_4
REMARK    3  A    between atoms: N_6  and  C_7
REMARK    4  A    between atoms: C_7  and  C_8
REMARK    5  A    between atoms: C_8  and  C_9
REMARK    6  A    between atoms: C_9  and  C_10
REMARK    7  A    between atoms: N_26  and  C_27
REMARK    8  A    between atoms: C_27  and  C_28
REMARK                            x       y       z     vdW  Elec       q    Type
REMARK                         _______ _______ _______ _____ _____    ______ ____
ROOT
ATOM      1  C   UNL     1       4.746   4.556  17.268  0.00  0.00    +0.000 A 
ATOM      2  C   UNL     1       5.119   5.876  17.110  0.00  0.00    +0.000 A 
ATOM      3  C   UNL     1       3.991   6.637  17.462  0.00  0.00    +0.000 A 
ATOM      4  N   UNL     1       3.824   7.960  17.288  0.00  0.00    +0.000 NA
ATOM      5  C   UNL     1       2.775   8.469  17.915  0.00  0.00    +0.000 A 
ATOM      6  C   UNL     1       2.594   9.829  17.733  0.00  0.00    +0.000 A 
ATOM      7  C   UNL     1       1.661  10.528  18.479  0.00  0.00    +0.000 A 
ATOM      8  C   UNL     1       0.913   9.836  19.422  0.00  0.00    +0.000 A 
ATOM      9  C   UNL     1       1.041   8.436  19.536  0.00  0.00    +0.000 A 
ATOM     10  C   UNL     1       1.939   7.697  18.759  0.00  0.00    +0.000 A 
ATOM     11  N   UNL     1       2.029   6.325  18.830  0.00  0.00    +0.000 NA
ATOM     12  C   UNL     1       3.086   5.831  18.133  0.00  0.00    +0.000 A 
ATOM     13  N   UNL     1       3.506   4.525  17.904  0.00  0.00    +0.000 N 
ENDROOT
BRANCH   2  14
ATOM     14  C   UNL     1       6.400   6.419  16.683  0.00  0.00    +0.000 C 
ATOM     15  O   UNL     1       7.023   6.001  15.716  0.00  0.00    +0.000 OA
ATOM     16  N   UNL     1       6.872   7.412  17.523  0.00  0.00    +0.000 N 
ATOM     17  H   UNL     1       6.206   7.794  18.191  0.00  0.00    +0.000 HD
BRANCH  16  18
ATOM     18  C   UNL     1       8.096   8.126  17.296  0.00  0.00    +0.000 C 
BRANCH  18  19
ATOM     19  C   UNL     1       8.362   9.109  18.433  0.00  0.00    +0.000 C 
BRANCH  19  20
ATOM     20  C   UNL     1       8.604  10.519  17.898  0.00  0.00    +0.000 C 
BRANCH  20  21
ATOM     21  C   UNL     1       9.819  11.142  18.539  0.00  0.00    +0.000 A 
ATOM     22  C   UNL     1       9.911  11.243  19.933  0.00  0.00    +0.000 A 
ATOM     23  C   UNL     1      11.013  11.861  20.525  0.00  0.00    +0.000 A 
ATOM     24  C   UNL     1      12.029  12.387  19.730  0.00  0.00    +0.000 A 
ATOM     25  C   UNL     1      11.948  12.288  18.343  0.00  0.00    +0.000 A 
ATOM     26  C   UNL     1      10.847  11.670  17.748  0.00  0.00    +0.000 A 
ENDBRANCH  20  21
ENDBRANCH  19  20
ENDBRANCH  18  19
ENDBRANCH  16  18
ENDBRANCH   2  14
BRANCH   1  27
ATOM     27  N   UNL     1       5.418   3.449  16.898  0.00  0.00    +0.000 N 
ATOM     28  H   UNL     1       5.012   2.527  17.075  0.00  0.00    +0.000 HD
ATOM     29  H   UNL     1       6.339   3.422  16.467  0.00  0.00    +0.000 HD
ENDBRANCH   1  27
BRANCH  13  30
ATOM     30  C   UNL     1       2.664   3.331  18.039  0.00  0.00    +0.000 C 
BRANCH  30  31
ATOM     31  C   UNL     1       2.279   3.001  19.466  0.00  0.00    +0.000 A 
ATOM     32  C   UNL     1       1.035   2.980  20.060  0.00  0.00    +0.000 A 
ATOM     33  C   UNL     1       1.097   2.656  21.456  0.00  0.00    +0.000 A 
ATOM     34  C   UNL     1       2.386   2.418  21.872  0.00  0.00    +0.000 A 
ATOM     35  S   UNL     1       3.509   2.574  20.592  0.00  0.00    +0.000 S 
ENDBRANCH  30  31
ENDBRANCH  13  30
TORSDOF 8
ENDMDL
MODEL 3
REMARK VINA RESULT:      -8.5      1.030      1.509
REMARK  Name = 
REMARK  8 active torsions:
REMARK  status: ('A' for Active; 'I' for Inactive)
REMARK    1  A    between atoms: N_1  and  C_2
REMARK    2  A    between atoms: C_3  and  C_4
REMARK    3  A    between atoms: N_6  and  C_7
REMARK    4  A    between atoms: C_7  and  C_8
REMARK    5  A    between atoms: C_8  and  C_9
REMARK    6  A    between atoms: C_9  and  C_10
REMARK    7  A    between atoms: N_26  and  C_27
REMARK    8  A    between atoms: C_27  and  C_28
REMARK                            x       y       z     vdW  Elec       q    Type
REMARK                         _______ _______ _______ _____ _____    ______ ____
ROOT
ATOM      1  C   UNL     1       5.082   4.560  17.317  0.00  0.00    +0.000 A 
ATOM      2  C   UNL     1       5.357   5.901  17.141  0.00  0.00    +0.000 A 
ATOM      3  C   UNL     1       4.181   6.584  17.498  0.00  0.00    +0.000 A 
ATOM      4  N   UNL     1       3.917   7.889  17.312  0.00  0.00    +0.000 NA
ATOM      5  C   UNL     1       2.842   8.329  17.946  0.00  0.00    +0.000 A 
ATOM      6  C   UNL     1       2.561   9.671  17.752  0.00  0.00    +0.000 A 
ATOM      7  C   UNL     1       1.589  10.309  18.502  0.00  0.00    +0.000 A 
ATOM      8  C   UNL     1       0.904   9.576  19.461  0.00  0.00    +0.000 A 
ATOM      9  C   UNL     1       1.134   8.190  19.589  0.00  0.00    +0.000 A 
ATOM     10  C   UNL     1       2.073   7.509  18.809  0.00  0.00    +0.000 A 
ATOM     11  N   UNL     1       2.262   6.147  18.893  0.00  0.00    +0.000 NA
ATOM     12  C   UNL     1       3.345   5.723  18.189  0.00  0.00    +0.000 A 
ATOM     13  N   UNL     1       3.854   4.448  17.968  0.00  0.00    +0.000 N 
ENDROOT
BRANCH   2  14
ATOM     14  C   UNL     1       6.591   6.530  16.692  0.00  0.00    +0.000 C 
ATOM     15  O   UNL     1       7.269   6.104  15.766  0.00  0.00    +0.000 OA
ATOM     16  N   UNL     1       6.953   7.620  17.463  0.00  0.00    +0.000 N 
ATOM     17  H   UNL     1       6.240   7.985  18.093  0.00  0.00    +0.000 HD
BRANCH  16  18
ATOM     18  C   UNL     1       8.109   8.427  17.201  0.00  0.00    +0.000 C 
BRANCH  18  19
ATOM     19  C   UNL     1       8.488   9.240  18.437  0.00  0.00    +0.000 C 
BRANCH  19  20
ATOM     20  C   UNL     1       8.584  10.729  18.111  0.00  0.00    +0.000 C 
BRANCH  20  21
ATOM     21  C   UNL     1       9.882  11.311  18.611  0.00  0.00    +0.000 A 
ATOM     22  C   UNL     1      10.883  11.692  17.708  0.00  0.00    +0.000 A 
ATOM     23  C   UNL     1      12.102  12.188  18.172  0.00  0.00    +0.000 A 
ATOM     24  C   UNL     1      12.333  12.303  19.541  0.00  0.00    +0.000 A 
ATOM     25  C   UNL     1      11.342  11.929  20.448  0.00  0.00    +0.000 A 
ATOM     26  C   UNL     1      10.122  11.434  19.986  0.00  0.00    +0.000 A 
ENDBRANCH  20  21
ENDBRANCH  19  20
ENDBRANCH  18  19
ENDBRANCH  16  18
ENDBRANCH   2  14
BRANCH   1  27
ATOM     27  N   UNL     1       5.827   3.500  16.951  0.00  0.00    +0.000 N 
ATOM     28  H   UNL     1       5.693   2.601  17.419  0.00  0.00    +0.000 HD
ATOM     29  H   UNL     1       6.562   3.497  16.247  0.00  0.00    +0.000 HD
ENDBRANCH   1  27
BRANCH  13  30
ATOM     30  C   UNL     1       3.102   3.198  18.126  0.00  0.00    +0.000 C 
BRANCH  30  31
ATOM     31  C   UNL     1       2.617   2.939  19.538  0.00  0.00    +0.000 A 
ATOM     32  C   UNL     1       3.340   2.671  20.681  0.00  0.00    +0.000 A 
ATOM     33  C   UNL     1       2.500   2.441  21.821  0.00  0.00    +0.000 A 
ATOM     34  C   UNL     1       1.166   2.565  21.511  0.00  0.00    +0.000 A 
ATOM     35  S   UNL     1       0.928   2.964  19.866  0.00  0.00    +0.000 S 
ENDBRANCH  30  31
ENDBRANCH  13  30
TORSDOF 8
ENDMDL
MODEL 4
REMARK VINA RESULT:      -8.4      0.872      1.288
REMARK  Name = 
REMARK  8 active torsions:
REMARK  status: ('A' for Active; 'I' for Inactive)
REMARK    1  A    between atoms: N_1  and  C_2
REMARK    2  A    between atoms: C_3  and  C_4
REMARK    3  A    between atoms: N_6  and  C_7
REMARK    4  A    between atoms: C_7  and  C_8
REMARK    5  A    between atoms: C_8  and  C_9
REMARK    6  A    between atoms: C_9  and  C_10
REMARK    7  A    between atoms: N_26  and  C_27
REMARK    8  A    between atoms: C_27  and  C_28
REMARK                            x       y       z     vdW  Elec       q    Type
REMARK                         _______ _______ _______ _____ _____    ______ ____
ROOT
ATOM      1  C   UNL     1       5.295   5.014  18.698  0.00  0.00    +0.000 A 
ATOM      2  C   UNL     1       5.240   6.228  18.044  0.00  0.00    +0.000 A 
ATOM      3  C   UNL     1       3.988   6.780  18.364  0.00  0.00    +0.000 A 
ATOM      4  N   UNL     1       3.419   7.865  17.810  0.00  0.00    +0.000 NA
ATOM      5  C   UNL     1       2.348   8.312  18.449  0.00  0.00    +0.000 A 
ATOM      6  C   UNL     1       1.754   9.424  17.878  0.00  0.00    +0.000 A 
ATOM      7  C   UNL     1       0.752  10.112  18.540  0.00  0.00    +0.000 A 
ATOM      8  C   UNL     1       0.360   9.667  19.794  0.00  0.00    +0.000 A 
ATOM      9  C   UNL     1       0.907   8.481  20.327  0.00  0.00    +0.000 A 
ATOM     10  C   UNL     1       1.884   7.738  19.658  0.00  0.00    +0.000 A 
ATOM     11  N   UNL     1       2.382   6.552  20.149  0.00  0.00    +0.000 NA
ATOM     12  C   UNL     1       3.447   6.095  19.439  0.00  0.00    +0.000 A 
ATOM     13  N   UNL     1       4.203   4.934  19.562  0.00  0.00    +0.000 N 
ENDROOT
BRANCH   2  14
ATOM     14  C   UNL     1       6.244   6.855  17.197  0.00  0.00    +0.000 C 
ATOM     15  O   UNL     1       6.281   6.723  15.981  0.00  0.00    +0.000 OA
ATOM     16  N   UNL     1       7.191   7.562  17.915  0.00  0.00    +0.000 N 
ATOM     17  H   UNL     1       6.973   7.746  18.893  0.00  0.00    +0.000 HD
BRANCH  16  18
ATOM     18  C   UNL     1       8.263   8.296  17.306  0.00  0.00    +0.000 C 
BRANCH  18  19
ATOM     19  C   UNL     1       8.240   9.754  17.760  0.00  0.00    +0.000 C 
BRANCH  19  20
ATOM     20  C   UNL     1       9.114   9.962  18.995  0.00  0.00    +0.000 C 
BRANCH  20  21
ATOM     21  C   UNL     1      10.010  11.164  18.830  0.00  0.00    +0.000 A 
ATOM     22  C   UNL     1       9.815  12.051  17.764  0.00  0.00    +0.000 A 
ATOM     23  C   UNL     1      10.671  13.138  17.583  0.00  0.00    +0.000 A 
ATOM     24  C   UNL     1      11.731  13.345  18.464  0.00  0.00    +0.000 A 
ATOM     25  C   UNL     1      11.932  12.469  19.530  0.00  0.00    +0.000 A 
ATOM     26  C   UNL     1      11.076  11.383  19.712  0.00  0.00    +0.000 A 
ENDBRANCH  20  21
ENDBRANCH  19  20
ENDBRANCH  18  19
ENDBRANCH  16  18
ENDBRANCH   2  14
BRANCH   1  27
ATOM     27  N   UNL     1       6.214   4.038  18.573  0.00  0.00    +0.000 N 
ATOM     28  H   UNL     1       6.540   3.765  17.643  0.00  0.00    +0.000 HD
ATOM     29  H   UNL     1       6.622   3.497  19.332  0.00  0.00    +0.000 HD
ENDBRANCH   1  27
BRANCH  13  30
ATOM     30  C   UNL     1       3.773   3.715  20.257  0.00  0.00    +0.000 C 
BRANCH  30  31
ATOM     31  C   UNL     1       2.475   3.130  19.739  0.00  0.00    +0.000 A 
ATOM     32  C   UNL     1       1.212   3.163  20.292  0.00  0.00    +0.000 A 
ATOM     33  C   UNL     1       0.249   2.448  19.505  0.00  0.00    +0.000 A 
ATOM     34  C   UNL     1       0.808   1.915  18.367  0.00  0.00    +0.000 A 
ATOM     35  S   UNL     1       2.473   2.280  18.242  0.00  0.00    +0.000 S 
ENDBRANCH  30  31
ENDBRANCH  13  30
TORSDOF 8
ENDMDL
MODEL 5
REMARK VINA RESULT:      -8.4      1.009      1.209
REMARK  Name = 
REMARK  8 active torsions:
REMARK  status: ('A' for Active; 'I' for Inactive)
REMARK    1  A    between atoms: N_1  and  C_2
REMARK    2  A    between atoms: C_3  and  C_4
REMARK    3  A    between atoms: N_6  and  C_7
REMARK    4  A    between atoms: C_7  and  C_8
REMARK    5  A    between atoms: C_8  and  C_9
REMARK    6  A    between atoms: C_9  and  C_10
REMARK    7  A    between atoms: N_26  and  C_27
REMARK    8  A    between atoms: C_27  and  C_28
REMARK                            x       y       z     vdW  Elec       q    Type
REMARK                         _______ _______ _______ _____ _____    ______ ____
ROOT
ATOM      1  C   UNL     1       5.945   4.835  18.425  0.00  0.00    +0.000 A 
ATOM      2  C   UNL     1       5.863   6.114  17.913  0.00  0.00    +0.000 A 
ATOM      3  C   UNL     1       4.558   6.556  18.193  0.00  0.00    +0.000 A 
ATOM      4  N   UNL     1       3.964   7.668  17.725  0.00  0.00    +0.000 NA
ATOM      5  C   UNL     1       2.824   7.976  18.322  0.00  0.00    +0.000 A 
ATOM      6  C   UNL     1       2.204   9.116  17.838  0.00  0.00    +0.000 A 
ATOM      7  C   UNL     1       1.115   9.664  18.493  0.00  0.00    +0.000 A 
ATOM      8  C   UNL     1       0.660   9.052  19.652  0.00  0.00    +0.000 A 
ATOM      9  C   UNL     1       1.241   7.841  20.086  0.00  0.00    +0.000 A 
ATOM     10  C   UNL     1       2.308   7.237  19.416  0.00  0.00    +0.000 A 
ATOM     11  N   UNL     1       2.843   6.029  19.805  0.00  0.00    +0.000 NA
ATOM     12  C   UNL     1       3.984   5.719  19.136  0.00  0.00    +0.000 A 
ATOM     13  N   UNL     1       4.800   4.593  19.184  0.00  0.00    +0.000 N 
ENDROOT
BRANCH   2  14
ATOM     14  C   UNL     1       6.884   6.891  17.228  0.00  0.00    +0.000 C 
ATOM     15  O   UNL     1       7.461   6.509  16.218  0.00  0.00    +0.000 OA
ATOM     16  N   UNL     1       7.183   8.078  17.873  0.00  0.00    +0.000 N 
ATOM     17  H   UNL     1       6.534   8.374  18.600  0.00  0.00    +0.000 HD
BRANCH  16  18
ATOM     18  C   UNL     1       8.132   9.033  17.376  0.00  0.00    +0.000 C 
BRANCH  18  19
ATOM     19  C   UNL     1       8.857   9.720  18.531  0.00  0.00    +0.000 C 
BRANCH  19  20
ATOM     20  C   UNL     1       9.540  11.005  18.068  0.00  0.00    +0.000 C 
BRANCH  20  21
ATOM     21  C   UNL     1       9.756  11.951  19.222  0.00  0.00    +0.000 A 
ATOM     22  C   UNL     1       9.584  11.511  20.541  0.00  0.00    +0.000 A 
ATOM     23  C   UNL     1       9.737  12.397  21.607  0.00  0.00    +0.000 A 
ATOM     24  C   UNL     1      10.059  13.731  21.366  0.00  0.00    +0.000 A 
ATOM     25  C   UNL     1      10.235  14.178  20.057  0.00  0.00    +0.000 A 
ATOM     26  C   UNL     1      10.083  13.293  18.989  0.00  0.00    +0.000 A 
ENDBRANCH  20  21
ENDBRANCH  19  20
ENDBRANCH  18  19
ENDBRANCH  16  18
ENDBRANCH   2  14
BRANCH   1  27
ATOM     27  N   UNL     1       6.930   3.932  18.262  0.00  0.00    +0.000 N 
ATOM     28  H   UNL     1       7.700   3.895  18.934  0.00  0.00    +0.000 HD
ATOM     29  H   UNL     1       7.015   3.267  17.496  0.00  0.00    +0.000 HD
ENDBRANCH   1  27
BRANCH  13  30
ATOM     30  C   UNL     1       4.397   3.279  19.696  0.00  0.00    +0.000 C 
BRANCH  30  31
ATOM     31  C   UNL     1       2.936   2.946  19.473  0.00  0.00    +0.000 A 
ATOM     32  C   UNL     1       2.250   2.745  18.294  0.00  0.00    +0.000 A 
ATOM     33  C   UNL     1       0.855   2.491  18.506  0.00  0.00    +0.000 A 
ATOM     34  C   UNL     1       0.531   2.483  19.843  0.00  0.00    +0.000 A 
ATOM     35  S   UNL     1       1.895   2.770  20.832  0.00  0.00    +0.000 S 
ENDBRANCH  30  31
ENDBRANCH  13  30
TORSDOF 8
ENDMDL
MODEL 6
REMARK VINA RESULT:      -8.3      0.814      1.027
REMARK  Name = 
REMARK  8 active torsions:
REMARK  status: ('A' for Active; 'I' for Inactive)
REMARK    1  A    between atoms: N_1  and  C_2
REMARK    2  A    between atoms: C_3  and  C_4
REMARK    3  A    between atoms: N_6  and  C_7
REMARK    4  A    between atoms: C_7  and  C_8
REMARK    5  A    between atoms: C_8  and  C_9
REMARK    6  A    between atoms: C_9  and  C_10
REMARK    7  A    between atoms: N_26  and  C_27
REMARK    8  A    between atoms: C_27  and  C_28
REMARK                            x       y       z     vdW  Elec       q    Type
REMARK                         _______ _______ _______ _____ _____    ______ ____
ROOT
ATOM      1  C   UNL     1       5.993   4.913  18.367  0.00  0.00    +0.000 A 
ATOM      2  C   UNL     1       5.909   6.189  17.846  0.00  0.00    +0.000 A 
ATOM      3  C   UNL     1       4.607   6.634  18.130  0.00  0.00    +0.000 A 
ATOM      4  N   UNL     1       4.011   7.743  17.657  0.00  0.00    +0.000 NA
ATOM      5  C   UNL     1       2.875   8.057  18.259  0.00  0.00    +0.000 A 
ATOM      6  C   UNL     1       2.254   9.194  17.771  0.00  0.00    +0.000 A 
ATOM      7  C   UNL     1       1.169   9.748  18.427  0.00  0.00    +0.000 A 
ATOM      8  C   UNL     1       0.720   9.144  19.593  0.00  0.00    +0.000 A 
ATOM      9  C   UNL     1       1.301   7.936  20.032  0.00  0.00    +0.000 A 
ATOM     10  C   UNL     1       2.364   7.326  19.361  0.00  0.00    +0.000 A 
ATOM     11  N   UNL     1       2.900   6.120  19.756  0.00  0.00    +0.000 NA
ATOM     12  C   UNL     1       4.037   5.804  19.082  0.00  0.00    +0.000 A 
ATOM     13  N   UNL     1       4.852   4.678  19.133  0.00  0.00    +0.000 N 
ENDROOT
BRANCH   2  14
ATOM     14  C   UNL     1       6.928   6.960  17.150  0.00  0.00    +0.000 C 
ATOM     15  O   UNL     1       7.423   6.620  16.083  0.00  0.00    +0.000 OA
ATOM     16  N   UNL     1       7.328   8.084  17.851  0.00  0.00    +0.000 N 
ATOM     17  H   UNL     1       6.740   8.361  18.635  0.00  0.00    +0.000 HD
BRANCH  16  18
ATOM     18  C   UNL     1       8.294   9.023  17.359  0.00  0.00    +0.000 C 
BRANCH  18  19
ATOM     19  C   UNL     1       8.628  10.060  18.428  0.00  0.00    +0.000 C 
BRANCH  19  20
ATOM     20  C   UNL     1       8.655  11.470  17.842  0.00  0.00    +0.000 C 
BRANCH  20  21
ATOM     21  C   UNL     1       9.952  12.168  18.167  0.00  0.00    +0.000 A 
ATOM     22  C   UNL     1      11.069  11.431  18.581  0.00  0.00    +0.000 A 
ATOM     23  C   UNL     1      12.255  12.079  18.927  0.00  0.00    +0.000 A 
ATOM     24  C   UNL     1      12.333  13.469  18.867  0.00  0.00    +0.000 A 
ATOM     25  C   UNL     1      11.228  14.211  18.454  0.00  0.00    +0.000 A 
ATOM     26  C   UNL     1      10.042  13.564  18.106  0.00  0.00    +0.000 A 
ENDBRANCH  20  21
ENDBRANCH  19  20
ENDBRANCH  18  19
ENDBRANCH  16  18
ENDBRANCH   2  14
BRANCH   1  27
ATOM     27  N   UNL     1       6.976   4.008  18.204  0.00  0.00    +0.000 N 
ATOM     28  H   UNL     1       7.127   3.582  17.287  0.00  0.00    +0.000 HD
ATOM     29  H   UNL     1       7.600   3.662  18.930  0.00  0.00    +0.000 HD
ENDBRANCH   1  27
BRANCH  13  30
ATOM     30  C   UNL     1       4.451   3.367  19.657  0.00  0.00    +0.000 C 
BRANCH  30  31
ATOM     31  C   UNL     1       2.974   3.065  19.509  0.00  0.00    +0.000 A 
ATOM     32  C   UNL     1       1.989   2.997  20.471  0.00  0.00    +0.000 A 
ATOM     33  C   UNL     1       0.712   2.638  19.926  0.00  0.00    +0.000 A 
ATOM     34  C   UNL     1       0.763   2.468  18.562  0.00  0.00    +0.000 A 
ATOM     35  S   UNL     1       2.332   2.748  17.943  0.00  0.00    +0.000 S 
ENDBRANCH  30  31
ENDBRANCH  13  30
TORSDOF 8
ENDMDL
MODEL 7
REMARK VINA RESULT:      -8.3      2.544      4.344
REMARK  Name = 
REMARK  8 active torsions:
REMARK  status: ('A' for Active; 'I' for Inactive)
REMARK    1  A    between atoms: N_1  and  C_2
REMARK    2  A    between atoms: C_3  and  C_4
REMARK    3  A    between atoms: N_6  and  C_7
REMARK    4  A    between atoms: C_7  and  C_8
REMARK    5  A    between atoms: C_8  and  C_9
REMARK    6  A    between atoms: C_9  and  C_10
REMARK    7  A    between atoms: N_26  and  C_27
REMARK    8  A    between atoms: C_27  and  C_28
REMARK                            x       y       z     vdW  Elec       q    Type
REMARK                         _______ _______ _______ _____ _____    ______ ____
ROOT
ATOM      1  C   UNL     1       5.926   4.889  18.565  0.00  0.00    +0.000 A 
ATOM      2  C   UNL     1       6.736   5.660  17.757  0.00  0.00    +0.000 A 
ATOM      3  C   UNL     1       6.696   5.058  16.487  0.00  0.00    +0.000 A 
ATOM      4  N   UNL     1       7.472   5.352  15.429  0.00  0.00    +0.000 NA
ATOM      5  C   UNL     1       7.078   4.808  14.289  0.00  0.00    +0.000 A 
ATOM      6  C   UNL     1       7.878   5.102  13.198  0.00  0.00    +0.000 A 
ATOM      7  C   UNL     1       7.482   4.766  11.916  0.00  0.00    +0.000 A 
ATOM      8  C   UNL     1       6.258   4.133  11.744  0.00  0.00    +0.000 A 
ATOM      9  C   UNL     1       5.493   3.758  12.868  0.00  0.00    +0.000 A 
ATOM     10  C   UNL     1       5.893   4.039  14.177  0.00  0.00    +0.000 A 
ATOM     11  N   UNL     1       5.175   3.628  15.279  0.00  0.00    +0.000 NA
ATOM     12  C   UNL     1       5.639   4.164  16.438  0.00  0.00    +0.000 A 
ATOM     13  N   UNL     1       5.245   3.977  17.759  0.00  0.00    +0.000 N 
ENDROOT
BRANCH   2  14
ATOM     14  C   UNL     1       7.488   6.860  18.095  0.00  0.00    +0.000 C 
ATOM     15  O   UNL     1       8.355   6.894  18.958  0.00  0.00    +0.000 OA
ATOM     16  N   UNL     1       7.074   7.973  17.386  0.00  0.00    +0.000 N 
ATOM     17  H   UNL     1       6.471   7.801  16.584  0.00  0.00    +0.000 HD
BRANCH  16  18
ATOM     18  C   UNL     1       7.682   9.267  17.516  0.00  0.00    +0.000 C 
BRANCH  18  19
ATOM     19  C   UNL     1       8.995   9.168  18.289  0.00  0.00    +0.000 C 
BRANCH  19  20
ATOM     20  C   UNL     1       9.071  10.227  19.387  0.00  0.00    +0.000 C 
BRANCH  20  21
ATOM     21  C   UNL     1      10.189  11.204  19.123  0.00  0.00    +0.000 A 
ATOM     22  C   UNL     1      10.573  11.503  17.809  0.00  0.00    +0.000 A 
ATOM     23  C   UNL     1      11.637  12.371  17.564  0.00  0.00    +0.000 A 
ATOM     24  C   UNL     1      12.330  12.943  18.628  0.00  0.00    +0.000 A 
ATOM     25  C   UNL     1      11.954  12.654  19.939  0.00  0.00    +0.000 A 
ATOM     26  C   UNL     1      10.889  11.787  20.186  0.00  0.00    +0.000 A 
ENDBRANCH  20  21
ENDBRANCH  19  20
ENDBRANCH  18  19
ENDBRANCH  16  18
ENDBRANCH   2  14
BRANCH   1  27
ATOM     27  N   UNL     1       5.773   4.955  19.901  0.00  0.00    +0.000 N 
ATOM     28  H   UNL     1       4.878   5.254  20.295  0.00  0.00    +0.000 HD
ATOM     29  H   UNL     1       6.488   4.759  20.598  0.00  0.00    +0.000 HD
ENDBRANCH   1  27
BRANCH  13  30
ATOM     30  C   UNL     1       4.472   2.833  18.257  0.00  0.00    +0.000 C 
BRANCH  30  31
ATOM     31  C   UNL     1       3.190   3.213  18.968  0.00  0.00    +0.000 A 
ATOM     32  C   UNL     1       2.118   3.952  18.515  0.00  0.00    +0.000 A 
ATOM     33  C   UNL     1       1.108   4.126  19.518  0.00  0.00    +0.000 A 
ATOM     34  C   UNL     1       1.435   3.492  20.694  0.00  0.00    +0.000 A 
ATOM     35  S   UNL     1       2.939   2.688  20.588  0.00  0.00    +0.000 S 
ENDBRANCH  30  31
ENDBRANCH  13  30
TORSDOF 8
ENDMDL
MODEL 8
REMARK VINA RESULT:      -8.2      1.239      1.585
REMARK  Name = 
REMARK  8 active torsions:
REMARK  status: ('A' for Active; 'I' for Inactive)
REMARK    1  A    between atoms: N_1  and  C_2
REMARK    2  A    between atoms: C_3  and  C_4
REMARK    3  A    between atoms: N_6  and  C_7
REMARK    4  A    between atoms: C_7  and  C_8
REMARK    5  A    between atoms: C_8  and  C_9
REMARK    6  A    between atoms: C_9  and  C_10
REMARK    7  A    between atoms: N_26  and  C_27
REMARK    8  A    between atoms: C_27  and  C_28
REMARK                            x       y       z     vdW  Elec       q    Type
REMARK                         _______ _______ _______ _____ _____    ______ ____
ROOT
ATOM      1  C   UNL     1       6.083   4.820  18.325  0.00  0.00    +0.000 A 
ATOM      2  C   UNL     1       5.980   6.117  17.863  0.00  0.00    +0.000 A 
ATOM      3  C   UNL     1       4.669   6.526  18.160  0.00  0.00    +0.000 A 
ATOM      4  N   UNL     1       4.056   7.646  17.735  0.00  0.00    +0.000 NA
ATOM      5  C   UNL     1       2.912   7.913  18.345  0.00  0.00    +0.000 A 
ATOM      6  C   UNL     1       2.274   9.060  17.906  0.00  0.00    +0.000 A 
ATOM      7  C   UNL     1       1.177   9.565  18.581  0.00  0.00    +0.000 A 
ATOM      8  C   UNL     1       0.733   8.901  19.715  0.00  0.00    +0.000 A 
ATOM      9  C   UNL     1       1.333   7.684  20.102  0.00  0.00    +0.000 A 
ATOM     10  C   UNL     1       2.409   7.123  19.409  0.00  0.00    +0.000 A 
ATOM     11  N   UNL     1       2.964   5.910  19.751  0.00  0.00    +0.000 NA
ATOM     12  C   UNL     1       4.109   5.644  19.069  0.00  0.00    +0.000 A 
ATOM     13  N   UNL     1       4.943   4.531  19.073  0.00  0.00    +0.000 N 
ENDROOT
BRANCH   2  14
ATOM     14  C   UNL     1       6.989   6.936  17.208  0.00  0.00    +0.000 C 
ATOM     15  O   UNL     1       7.616   6.576  16.220  0.00  0.00    +0.000 OA
ATOM     16  N   UNL     1       7.212   8.138  17.856  0.00  0.00    +0.000 N 
ATOM     17  H   UNL     1       6.526   8.407  18.559  0.00  0.00    +0.000 HD
BRANCH  16  18
ATOM     18  C   UNL     1       8.133   9.133  17.386  0.00  0.00    +0.000 C 
BRANCH  18  19
ATOM     19  C   UNL     1       8.854   9.793  18.559  0.00  0.00    +0.000 C 
BRANCH  19  20
ATOM     20  C   UNL     1       9.820  10.872  18.076  0.00  0.00    +0.000 C 
BRANCH  20  21
ATOM     21  C   UNL     1       9.725  12.109  18.933  0.00  0.00    +0.000 A 
ATOM     22  C   UNL     1       8.972  13.211  18.506  0.00  0.00    +0.000 A 
ATOM     23  C   UNL     1       8.921  14.374  19.276  0.00  0.00    +0.000 A 
ATOM     24  C   UNL     1       9.625  14.447  20.477  0.00  0.00    +0.000 A 
ATOM     25  C   UNL     1      10.374  13.355  20.911  0.00  0.00    +0.000 A 
ATOM     26  C   UNL     1      10.426  12.192  20.143  0.00  0.00    +0.000 A 
ENDBRANCH  20  21
ENDBRANCH  19  20
ENDBRANCH  18  19
ENDBRANCH  16  18
ENDBRANCH   2  14
BRANCH   1  27
ATOM     27  N   UNL     1       7.083   3.940  18.126  0.00  0.00    +0.000 N 
ATOM     28  H   UNL     1       7.719   3.715  18.894  0.00  0.00    +0.000 HD
ATOM     29  H   UNL     1       7.304   3.471  17.251  0.00  0.00    +0.000 HD
ENDBRANCH   1  27
BRANCH  13  30
ATOM     30  C   UNL     1       4.562   3.191  19.535  0.00  0.00    +0.000 C 
BRANCH  30  31
ATOM     31  C   UNL     1       3.077   2.903  19.446  0.00  0.00    +0.000 A 
ATOM     32  C   UNL     1       2.128   2.864  20.445  0.00  0.00    +0.000 A 
ATOM     33  C   UNL     1       0.828   2.509  19.954  0.00  0.00    +0.000 A 
ATOM     34  C   UNL     1       0.827   2.313  18.593  0.00  0.00    +0.000 A 
ATOM     35  S   UNL     1       2.375   2.563  17.912  0.00  0.00    +0.000 S 
ENDBRANCH  30  31
ENDBRANCH  13  30
TORSDOF 8
ENDMDL
MODEL 9
REMARK VINA RESULT:      -8.2      1.549      1.865
REMARK  Name = 
REMARK  8 active torsions:
REMARK  status: ('A' for Active; 'I' for Inactive)
REMARK    1  A    between atoms: N_1  and  C_2
REMARK    2  A    between atoms: C_3  and  C_4
REMARK    3  A    between atoms: N_6  and  C_7
REMARK    4  A    between atoms: C_7  and  C_8
REMARK    5  A    between atoms: C_8  and  C_9
REMARK    6  A    between atoms: C_9  and  C_10
REMARK    7  A    between atoms: N_26  and  C_27
REMARK    8  A    between atoms: C_27  and  C_28
REMARK                            x       y       z     vdW  Elec       q    Type
REMARK                         _______ _______ _______ _____ _____    ______ ____
ROOT
ATOM      1  C   UNL     1       3.892   5.144  17.304  0.00  0.00    +0.000 A 
ATOM      2  C   UNL     1       4.370   6.427  17.135  0.00  0.00    +0.000 A 
ATOM      3  C   UNL     1       3.351   7.280  17.594  0.00  0.00    +0.000 A 
ATOM      4  N   UNL     1       3.293   8.616  17.455  0.00  0.00    +0.000 NA
ATOM      5  C   UNL     1       2.352   9.204  18.178  0.00  0.00    +0.000 A 
ATOM      6  C   UNL     1       2.283  10.579  18.033  0.00  0.00    +0.000 A 
ATOM      7  C   UNL     1       1.486  11.342  18.868  0.00  0.00    +0.000 A 
ATOM      8  C   UNL     1       0.760  10.699  19.860  0.00  0.00    +0.000 A 
ATOM      9  C   UNL     1       0.767   9.291  19.942  0.00  0.00    +0.000 A 
ATOM     10  C   UNL     1       1.523   8.492  19.080  0.00  0.00    +0.000 A 
ATOM     11  N   UNL     1       1.492   7.116  19.122  0.00  0.00    +0.000 NA
ATOM     12  C   UNL     1       2.436   6.544  18.329  0.00  0.00    +0.000 A 
ATOM     13  N   UNL     1       2.712   5.211  18.045  0.00  0.00    +0.000 N 
ENDROOT
BRANCH   2  14
ATOM     14  C   UNL     1       5.655   6.861  16.607  0.00  0.00    +0.000 C 
ATOM     15  O   UNL     1       5.955   6.798  15.422  0.00  0.00    +0.000 OA
ATOM     16  N   UNL     1       6.526   7.290  17.592  0.00  0.00    +0.000 N 
ATOM     17  H   UNL     1       6.122   7.460  18.512  0.00  0.00    +0.000 HD
BRANCH  16  18
ATOM     18  C   UNL     1       7.840   7.799  17.321  0.00  0.00    +0.000 C 
BRANCH  18  19
ATOM     19  C   UNL     1       7.955   9.255  17.766  0.00  0.00    +0.000 C 
BRANCH  19  20
ATOM     20  C   UNL     1       8.920   9.399  18.941  0.00  0.00    +0.000 C 
BRANCH  20  21
ATOM     21  C   UNL     1       9.489  10.795  19.008  0.00  0.00    +0.000 A 
ATOM     22  C   UNL     1      10.197  11.217  20.140  0.00  0.00    +0.000 A 
ATOM     23  C   UNL     1      10.683  12.522  20.223  0.00  0.00    +0.000 A 
ATOM     24  C   UNL     1      10.462  13.417  19.178  0.00  0.00    +0.000 A 
ATOM     25  C   UNL     1       9.761  13.005  18.046  0.00  0.00    +0.000 A 
ATOM     26  C   UNL     1       9.274  11.701  17.961  0.00  0.00    +0.000 A 
ENDBRANCH  20  21
ENDBRANCH  19  20
ENDBRANCH  18  19
ENDBRANCH  16  18
ENDBRANCH   2  14
BRANCH   1  27
ATOM     27  N   UNL     1       4.424   3.989  16.862  0.00  0.00    +0.000 N 
ATOM     28  H   UNL     1       4.003   3.098  17.137  0.00  0.00    +0.000 HD
ATOM     29  H   UNL     1       5.252   3.894  16.278  0.00  0.00    +0.000 HD
ENDBRANCH   1  27
BRANCH  13  30
ATOM     30  C   UNL     1       1.777   4.095  18.234  0.00  0.00    +0.000 C 
BRANCH  30  31
ATOM     31  C   UNL     1       1.840   3.460  19.607  0.00  0.00    +0.000 A 
ATOM     32  C   UNL     1       0.864   3.359  20.575  0.00  0.00    +0.000 A 
ATOM     33  C   UNL     1       1.336   2.716  21.767  0.00  0.00    +0.000 A 
ATOM     34  C   UNL     1       2.651   2.328  21.657  0.00  0.00    +0.000 A 
ATOM     35  S   UNL     1       3.307   2.725  20.129  0.00  0.00    +0.000 S 
ENDBRANCH  30  31
ENDBRANCH  13  30
TORSDOF 8
ENDMDL
