MODEL 1
REMARK VINA RESULT:      -7.4      0.000      0.000
REMARK  Name = 
REMARK  10 active torsions:
REMARK  status: ('A' for Active; 'I' for Inactive)
REMARK    1  A    between atoms: C_2  and  C_3
REMARK    2  A    between atoms: C_2  and  C_13
REMARK    3  A    between atoms: C_3  and  C_4
REMARK    4  A    between atoms: C_4  and  O_5
REMARK    5  A    between atoms: O_5  and  C_6
REMARK    6  A    between atoms: C_9  and  O_10
REMARK    7  A    between atoms: C_16  and  C_17
REMARK    8  A    between atoms: C_17  and  O_18
REMARK    9  A    between atoms: O_18  and  C_19
REMARK   10  A    between atoms: C_19  and  C_20
REMARK                            x       y       z     vdW  Elec       q    Type
REMARK                         _______ _______ _______ _____ _____    ______ ____
ROOT
ATOM      1  C   UNL     1       5.373   4.475  18.815  0.00  0.00    +0.000 A 
ATOM      2  N   UNL     1       5.994   4.719  19.952  0.00  0.00    +0.000 NA
ATOM      3  N   UNL     1       6.958   5.665  19.676  0.00  0.00    +0.000 NA
ATOM      4  C   UNL     1       6.856   5.940  18.390  0.00  0.00    +0.000 A 
ATOM      5  O   UNL     1       5.885   5.198  17.766  0.00  0.00    +0.000 OA
ENDROOT
BRANCH   1   7
ATOM      6  O   UNL     1       4.067   2.933  17.586  0.00  0.00    +0.000 OA
ATOM      7  C   UNL     1       4.259   3.571  18.623  0.00  0.00    +0.000 C 
BRANCH   7   8
ATOM      8  C   UNL     1       3.312   3.453  19.805  0.00  0.00    +0.000 C 
BRANCH   8   9
ATOM      9  C   UNL     1       2.114   4.386  19.680  0.00  0.00    +0.000 C 
BRANCH   9  10
ATOM     10  O   UNL     1       2.468   5.630  20.295  0.00  0.00    +0.000 OA
BRANCH  10  11
ATOM     11  C   UNL     1       2.287   6.759  19.543  0.00  0.00    +0.000 A 
ATOM     12  C   UNL     1       1.723   7.841  20.224  0.00  0.00    +0.000 A 
ATOM     13  C   UNL     1       1.499   9.059  19.574  0.00  0.00    +0.000 A 
ATOM     14  C   UNL     1       1.863   9.192  18.240  0.00  0.00    +0.000 A 
ATOM     15  C   UNL     1       2.448   8.133  17.556  0.00  0.00    +0.000 A 
ATOM     16  C   UNL     1       2.659   6.911  18.207  0.00  0.00    +0.000 A 
BRANCH  14  17
ATOM     17  O   UNL     1       1.666  10.357  17.561  0.00  0.00    +0.000 OA
ATOM     18  H   UNL     1       1.137  10.169  16.769  0.00  0.00    +0.000 HD
ENDBRANCH  14  17
ENDBRANCH  10  11
ENDBRANCH   9  10
ENDBRANCH   8   9
ENDBRANCH   7   8
ENDBRANCH   1   7
BRANCH   4  19
ATOM     19  C   UNL     1       7.660   6.884  17.573  0.00  0.00    +0.000 C 
BRANCH  19  20
ATOM     20  O   UNL     1       8.289   7.823  18.448  0.00  0.00    +0.000 OA
BRANCH  20  21
ATOM     21  C   UNL     1       8.092   9.165  17.994  0.00  0.00    +0.000 C 
BRANCH  21  22
ATOM     22  C   UNL     1       9.077  10.111  18.638  0.00  0.00    +0.000 A 
ATOM     23  C   UNL     1      10.014  10.791  17.842  0.00  0.00    +0.000 A 
ATOM     24  C   UNL     1      10.924  11.683  18.416  0.00  0.00    +0.000 A 
ATOM     25  C   UNL     1      10.900  11.914  19.789  0.00  0.00    +0.000 A 
ATOM     26  C   UNL     1       9.958  11.265  20.587  0.00  0.00    +0.000 A 
ATOM     27  C   UNL     1       9.048  10.374  20.015  0.00  0.00    +0.000 A 
ENDBRANCH  21  22
ENDBRANCH  20  21
ENDBRANCH  19  20
ENDBRANCH   4  19
TORSDOF 10
ENDMDL
MODEL 2
REMARK VINA RESULT:      -7.3      3.976      5.382
REMARK  Name = 
REMARK  10 active torsions:
REMARK  status: ('A' for Active; 'I' for Inactive)
REMARK    1  A    between atoms: C_2  and  C_3
REMARK    2  A    between atoms: C_2  and  C_13
REMARK    3  A    between atoms: C_3  and  C_4
REMARK    4  A    between atoms: C_4  and  O_5
REMARK    5  A    between atoms: O_5  and  C_6
REMARK    6  A    between atoms: C_9  and  O_10
REMARK    7  A    between atoms: C_16  and  C_17
REMARK    8  A    between atoms: C_17  and  O_18
REMARK    9  A    between atoms: O_18  and  C_19
REMARK   10  A    between atoms: C_19  and  C_20
REMARK                            x       y       z     vdW  Elec       q    Type
REMARK                         _______ _______ _______ _____ _____    ______ ____
ROOT
ATOM      1  C   UNL     1       4.985   3.609  18.886  0.00  0.00    +0.000 A 
ATOM      2  N   UNL     1       5.492   4.531  19.681  0.00  0.00    +0.000 NA
ATOM      3  N   UNL     1       5.745   5.632  18.892  0.00  0.00    +0.000 NA
ATOM      4  C   UNL     1       5.368   5.312  17.669  0.00  0.00    +0.000 A 
ATOM      5  O   UNL     1       4.899   4.026  17.580  0.00  0.00    +0.000 OA
ENDROOT
BRANCH   1   7
ATOM      6  O   UNL     1       4.989   1.669  20.238  0.00  0.00    +0.000 OA
ATOM      7  C   UNL     1       4.533   2.292  19.278  0.00  0.00    +0.000 C 
BRANCH   7   8
ATOM      8  C   UNL     1       3.432   1.702  18.411  0.00  0.00    +0.000 C 
BRANCH   8   9
ATOM      9  C   UNL     1       2.064   1.790  19.076  0.00  0.00    +0.000 C 
BRANCH   9  10
ATOM     10  O   UNL     1       1.326   2.823  18.414  0.00  0.00    +0.000 OA
BRANCH  10  11
ATOM     11  C   UNL     1       1.547   4.104  18.841  0.00  0.00    +0.000 A 
ATOM     12  C   UNL     1       1.467   4.290  20.225  0.00  0.00    +0.000 A 
ATOM     13  C   UNL     1       1.688   5.548  20.793  0.00  0.00    +0.000 A 
ATOM     14  C   UNL     1       2.008   6.619  19.966  0.00  0.00    +0.000 A 
ATOM     15  C   UNL     1       2.115   6.445  18.592  0.00  0.00    +0.000 A 
ATOM     16  C   UNL     1       1.882   5.186  18.025  0.00  0.00    +0.000 A 
BRANCH  14  17
ATOM     17  O   UNL     1       2.231   7.865  20.470  0.00  0.00    +0.000 OA
ATOM     18  H   UNL     1       1.532   8.459  20.150  0.00  0.00    +0.000 HD
ENDBRANCH  14  17
ENDBRANCH  10  11
ENDBRANCH   9  10
ENDBRANCH   8   9
ENDBRANCH   7   8
ENDBRANCH   1   7
BRANCH   4  19
ATOM     19  C   UNL     1       5.430   6.131  16.432  0.00  0.00    +0.000 C 
BRANCH  19  20
ATOM     20  O   UNL     1       6.803   6.363  16.107  0.00  0.00    +0.000 OA
BRANCH  20  21
ATOM     21  C   UNL     1       7.468   5.142  15.773  0.00  0.00    +0.000 C 
BRANCH  21  22
ATOM     22  C   UNL     1       7.112   4.689  14.377  0.00  0.00    +0.000 A 
ATOM     23  C   UNL     1       6.063   3.774  14.187  0.00  0.00    +0.000 A 
ATOM     24  C   UNL     1       5.706   3.355  12.903  0.00  0.00    +0.000 A 
ATOM     25  C   UNL     1       6.385   3.854  11.794  0.00  0.00    +0.000 A 
ATOM     26  C   UNL     1       7.412   4.782  11.967  0.00  0.00    +0.000 A 
ATOM     27  C   UNL     1       7.768   5.203  13.250  0.00  0.00    +0.000 A 
ENDBRANCH  21  22
ENDBRANCH  20  21
ENDBRANCH  19  20
ENDBRANCH   4  19
TORSDOF 10
ENDMDL
MODEL 3
REMARK VINA RESULT:      -7.2      2.945      3.908
REMARK  Name = 
REMARK  10 active torsions:
REMARK  status: ('A' for Active; 'I' for Inactive)
REMARK    1  A    between atoms: C_2  and  C_3
REMARK    2  A    between atoms: C_2  and  C_13
REMARK    3  A    between atoms: C_3  and  C_4
REMARK    4  A    between atoms: C_4  and  O_5
REMARK    5  A    between atoms: O_5  and  C_6
REMARK    6  A    between atoms: C_9  and  O_10
REMARK    7  A    between atoms: C_16  and  C_17
REMARK    8  A    between atoms: C_17  and  O_18
REMARK    9  A    between atoms: O_18  and  C_19
REMARK   10  A    between atoms: C_19  and  C_20
REMARK                            x       y       z     vdW  Elec       q    Type
REMARK                         _______ _______ _______ _____ _____    ______ ____
ROOT
ATOM      1  C   UNL     1       6.437   5.717  16.089  0.00  0.00    +0.000 A 
ATOM      2  N   UNL     1       5.637   6.765  16.061  0.00  0.00    +0.000 NA
ATOM      3  N   UNL     1       6.206   7.713  16.884  0.00  0.00    +0.000 NA
ATOM      4  C   UNL     1       7.320   7.184  17.352  0.00  0.00    +0.000 A 
ATOM      5  O   UNL     1       7.521   5.899  16.912  0.00  0.00    +0.000 OA
ENDROOT
BRANCH   1   7
ATOM      6  O   UNL     1       6.919   4.193  14.345  0.00  0.00    +0.000 OA
ATOM      7  C   UNL     1       6.265   4.486  15.348  0.00  0.00    +0.000 C 
BRANCH   7   8
ATOM      8  C   UNL     1       5.198   3.550  15.890  0.00  0.00    +0.000 C 
BRANCH   8   9
ATOM      9  C   UNL     1       4.754   3.932  17.297  0.00  0.00    +0.000 C 
BRANCH   9  10
ATOM     10  O   UNL     1       3.324   3.877  17.330  0.00  0.00    +0.000 OA
BRANCH  10  11
ATOM     11  C   UNL     1       2.751   3.562  18.532  0.00  0.00    +0.000 A 
ATOM     12  C   UNL     1       3.616   2.987  19.469  0.00  0.00    +0.000 A 
ATOM     13  C   UNL     1       3.159   2.632  20.742  0.00  0.00    +0.000 A 
ATOM     14  C   UNL     1       1.833   2.875  21.079  0.00  0.00    +0.000 A 
ATOM     15  C   UNL     1       0.968   3.468  20.168  0.00  0.00    +0.000 A 
ATOM     16  C   UNL     1       1.425   3.811  18.889  0.00  0.00    +0.000 A 
BRANCH  14  17
ATOM     17  O   UNL     1       1.339   2.547  22.306  0.00  0.00    +0.000 OA
ATOM     18  H   UNL     1       1.457   3.305  22.901  0.00  0.00    +0.000 HD
ENDBRANCH  14  17
ENDBRANCH  10  11
ENDBRANCH   9  10
ENDBRANCH   8   9
ENDBRANCH   7   8
ENDBRANCH   1   7
BRANCH   4  19
ATOM     19  C   UNL     1       8.310   7.774  18.288  0.00  0.00    +0.000 C 
BRANCH  19  20
ATOM     20  O   UNL     1       7.968   9.144  18.509  0.00  0.00    +0.000 OA
BRANCH  20  21
ATOM     21  C   UNL     1       8.778  10.014  17.715  0.00  0.00    +0.000 C 
BRANCH  21  22
ATOM     22  C   UNL     1       9.725  10.817  18.575  0.00  0.00    +0.000 A 
ATOM     23  C   UNL     1      10.825  11.463  17.987  0.00  0.00    +0.000 A 
ATOM     24  C   UNL     1      11.704  12.225  18.761  0.00  0.00    +0.000 A 
ATOM     25  C   UNL     1      11.486  12.359  20.130  0.00  0.00    +0.000 A 
ATOM     26  C   UNL     1      10.383  11.744  20.723  0.00  0.00    +0.000 A 
ATOM     27  C   UNL     1       9.504  10.984  19.949  0.00  0.00    +0.000 A 
ENDBRANCH  21  22
ENDBRANCH  20  21
ENDBRANCH  19  20
ENDBRANCH   4  19
TORSDOF 10
ENDMDL
MODEL 4
REMARK VINA RESULT:      -7.1      2.673      8.674
REMARK  Name = 
REMARK  10 active torsions:
REMARK  status: ('A' for Active; 'I' for Inactive)
REMARK    1  A    between atoms: C_2  and  C_3
REMARK    2  A    between atoms: C_2  and  C_13
REMARK    3  A    between atoms: C_3  and  C_4
REMARK    4  A    between atoms: C_4  and  O_5
REMARK    5  A    between atoms: O_5  and  C_6
REMARK    6  A    between atoms: C_9  and  O_10
REMARK    7  A    between atoms: C_16  and  C_17
REMARK    8  A    between atoms: C_17  and  O_18
REMARK    9  A    between atoms: O_18  and  C_19
REMARK   10  A    between atoms: C_19  and  C_20
REMARK                            x       y       z     vdW  Elec       q    Type
REMARK                         _______ _______ _______ _____ _____    ______ ____
ROOT
ATOM      1  C   UNL     1       8.049   8.668  17.932  0.00  0.00    +0.000 A 
ATOM      2  N   UNL     1       7.181   8.388  16.980  0.00  0.00    +0.000 NA
ATOM      3  N   UNL     1       6.927   7.036  17.067  0.00  0.00    +0.000 NA
ATOM      4  C   UNL     1       7.649   6.582  18.073  0.00  0.00    +0.000 A 
ATOM      5  O   UNL     1       8.416   7.560  18.657  0.00  0.00    +0.000 OA
ENDROOT
BRANCH   1   7
ATOM      6  O   UNL     1       8.261  11.007  17.660  0.00  0.00    +0.000 OA
ATOM      7  C   UNL     1       8.585   9.974  18.248  0.00  0.00    +0.000 C 
BRANCH   7   8
ATOM      8  C   UNL     1       9.603   9.999  19.376  0.00  0.00    +0.000 C 
BRANCH   8   9
ATOM      9  C   UNL     1       9.341  11.130  20.364  0.00  0.00    +0.000 C 
BRANCH   9  10
ATOM     10  O   UNL     1      10.487  11.989  20.353  0.00  0.00    +0.000 OA
BRANCH  10  11
ATOM     11  C   UNL     1      10.571  12.884  19.321  0.00  0.00    +0.000 A 
ATOM     12  C   UNL     1      11.623  12.661  18.427  0.00  0.00    +0.000 A 
ATOM     13  C   UNL     1      11.811  13.495  17.320  0.00  0.00    +0.000 A 
ATOM     14  C   UNL     1      10.927  14.544  17.104  0.00  0.00    +0.000 A 
ATOM     15  C   UNL     1       9.862  14.764  17.970  0.00  0.00    +0.000 A 
ATOM     16  C   UNL     1       9.684  13.934  19.083  0.00  0.00    +0.000 A 
BRANCH  14  17
ATOM     17  O   UNL     1      11.068  15.386  16.041  0.00  0.00    +0.000 OA
ATOM     18  H   UNL     1      11.103  14.855  15.228  0.00  0.00    +0.000 HD
ENDBRANCH  14  17
ENDBRANCH  10  11
ENDBRANCH   9  10
ENDBRANCH   8   9
ENDBRANCH   7   8
ENDBRANCH   1   7
BRANCH   4  19
ATOM     19  C   UNL     1       7.756   5.195  18.592  0.00  0.00    +0.000 C 
BRANCH  19  20
ATOM     20  O   UNL     1       6.554   4.493  18.266  0.00  0.00    +0.000 OA
BRANCH  20  21
ATOM     21  C   UNL     1       5.591   4.601  19.317  0.00  0.00    +0.000 C 
BRANCH  21  22
ATOM     22  C   UNL     1       4.191   4.359  18.803  0.00  0.00    +0.000 A 
ATOM     23  C   UNL     1       3.400   5.446  18.397  0.00  0.00    +0.000 A 
ATOM     24  C   UNL     1       2.109   5.243  17.902  0.00  0.00    +0.000 A 
ATOM     25  C   UNL     1       1.599   3.952  17.798  0.00  0.00    +0.000 A 
ATOM     26  C   UNL     1       2.384   2.862  18.175  0.00  0.00    +0.000 A 
ATOM     27  C   UNL     1       3.674   3.063  18.667  0.00  0.00    +0.000 A 
ENDBRANCH  21  22
ENDBRANCH  20  21
ENDBRANCH  19  20
ENDBRANCH   4  19
TORSDOF 10
ENDMDL
MODEL 5
REMARK VINA RESULT:      -7.1      2.637      8.274
REMARK  Name = 
REMARK  10 active torsions:
REMARK  status: ('A' for Active; 'I' for Inactive)
REMARK    1  A    between atoms: C_2  and  C_3
REMARK    2  A    between atoms: C_2  and  C_13
REMARK    3  A    between atoms: C_3  and  C_4
REMARK    4  A    between atoms: C_4  and  O_5
REMARK    5  A    between atoms: O_5  and  C_6
REMARK    6  A    between atoms: C_9  and  O_10
REMARK    7  A    between atoms: C_16  and  C_17
REMARK    8  A    between atoms: C_17  and  O_18
REMARK    9  A    between atoms: O_18  and  C_19
REMARK   10  A    between atoms: C_19  and  C_20
REMARK                            x       y       z     vdW  Elec       q    Type
REMARK                         _______ _______ _______ _____ _____    ______ ____
ROOT
ATOM      1  C   UNL     1       7.012   5.941  17.267  0.00  0.00    +0.000 A 
ATOM      2  N   UNL     1       7.271   5.606  16.018  0.00  0.00    +0.000 NA
ATOM      3  N   UNL     1       6.262   4.752  15.627  0.00  0.00    +0.000 NA
ATOM      4  C   UNL     1       5.451   4.630  16.659  0.00  0.00    +0.000 A 
ATOM      5  O   UNL     1       5.880   5.337  17.755  0.00  0.00    +0.000 OA
ENDROOT
BRANCH   1   7
ATOM      6  O   UNL     1       8.361   6.517  19.123  0.00  0.00    +0.000 OA
ATOM      7  C   UNL     1       7.782   6.851  18.088  0.00  0.00    +0.000 C 
BRANCH   7   8
ATOM      8  C   UNL     1       7.835   8.285  17.588  0.00  0.00    +0.000 C 
BRANCH   8   9
ATOM      9  C   UNL     1       8.486   9.225  18.596  0.00  0.00    +0.000 C 
BRANCH   9  10
ATOM     10  O   UNL     1       9.094  10.293  17.862  0.00  0.00    +0.000 OA
BRANCH  10  11
ATOM     11  C   UNL     1       9.492  11.384  18.586  0.00  0.00    +0.000 A 
ATOM     12  C   UNL     1       9.875  11.115  19.903  0.00  0.00    +0.000 A 
ATOM     13  C   UNL     1      10.317  12.140  20.745  0.00  0.00    +0.000 A 
ATOM     14  C   UNL     1      10.391  13.437  20.252  0.00  0.00    +0.000 A 
ATOM     15  C   UNL     1      10.038  13.717  18.937  0.00  0.00    +0.000 A 
ATOM     16  C   UNL     1       9.584  12.690  18.101  0.00  0.00    +0.000 A 
BRANCH  14  17
ATOM     17  O   UNL     1      10.815  14.472  21.032  0.00  0.00    +0.000 OA
ATOM     18  H   UNL     1      10.379  15.285  20.731  0.00  0.00    +0.000 HD
ENDBRANCH  14  17
ENDBRANCH  10  11
ENDBRANCH   9  10
ENDBRANCH   8   9
ENDBRANCH   7   8
ENDBRANCH   1   7
BRANCH   4  19
ATOM     19  C   UNL     1       4.212   3.821  16.779  0.00  0.00    +0.000 C 
BRANCH  19  20
ATOM     20  O   UNL     1       3.119   4.699  17.059  0.00  0.00    +0.000 OA
BRANCH  20  21
ATOM     21  C   UNL     1       1.966   3.970  17.486  0.00  0.00    +0.000 C 
BRANCH  21  22
ATOM     22  C   UNL     1       1.970   3.768  18.983  0.00  0.00    +0.000 A 
ATOM     23  C   UNL     1       2.273   4.846  19.831  0.00  0.00    +0.000 A 
ATOM     24  C   UNL     1       2.266   4.685  21.219  0.00  0.00    +0.000 A 
ATOM     25  C   UNL     1       1.945   3.449  21.775  0.00  0.00    +0.000 A 
ATOM     26  C   UNL     1       1.618   2.377  20.944  0.00  0.00    +0.000 A 
ATOM     27  C   UNL     1       1.623   2.537  19.557  0.00  0.00    +0.000 A 
ENDBRANCH  21  22
ENDBRANCH  20  21
ENDBRANCH  19  20
ENDBRANCH   4  19
TORSDOF 10
ENDMDL
MODEL 6
REMARK VINA RESULT:      -7.0      3.909      6.022
REMARK  Name = 
REMARK  10 active torsions:
REMARK  status: ('A' for Active; 'I' for Inactive)
REMARK    1  A    between atoms: C_2  and  C_3
REMARK    2  A    between atoms: C_2  and  C_13
REMARK    3  A    between atoms: C_3  and  C_4
REMARK    4  A    between atoms: C_4  and  O_5
REMARK    5  A    between atoms: O_5  and  C_6
REMARK    6  A    between atoms: C_9  and  O_10
REMARK    7  A    between atoms: C_16  and  C_17
REMARK    8  A    between atoms: C_17  and  O_18
REMARK    9  A    between atoms: O_18  and  C_19
REMARK   10  A    between atoms: C_19  and  C_20
REMARK                            x       y       z     vdW  Elec       q    Type
REMARK                         _______ _______ _______ _____ _____    ______ ____
ROOT
ATOM      1  C   UNL     1       5.242   3.742  18.830  0.00  0.00    +0.000 A 
ATOM      2  N   UNL     1       5.668   4.738  19.582  0.00  0.00    +0.000 NA
ATOM      3  N   UNL     1       6.243   5.655  18.727  0.00  0.00    +0.000 NA
ATOM      4  C   UNL     1       6.121   5.161  17.510  0.00  0.00    +0.000 A 
ATOM      5  O   UNL     1       5.519   3.928  17.497  0.00  0.00    +0.000 OA
ENDROOT
BRANCH   1   7
ATOM      6  O   UNL     1       4.676   2.076  20.410  0.00  0.00    +0.000 OA
ATOM      7  C   UNL     1       4.540   2.562  19.286  0.00  0.00    +0.000 C 
BRANCH   7   8
ATOM      8  C   UNL     1       3.600   1.936  18.270  0.00  0.00    +0.000 C 
BRANCH   8   9
ATOM      9  C   UNL     1       2.159   2.397  18.456  0.00  0.00    +0.000 C 
BRANCH   9  10
ATOM     10  O   UNL     1       2.006   3.636  17.755  0.00  0.00    +0.000 OA
BRANCH  10  11
ATOM     11  C   UNL     1       2.014   4.774  18.514  0.00  0.00    +0.000 A 
ATOM     12  C   UNL     1       1.565   4.613  19.829  0.00  0.00    +0.000 A 
ATOM     13  C   UNL     1       1.537   5.696  20.713  0.00  0.00    +0.000 A 
ATOM     14  C   UNL     1       1.981   6.939  20.279  0.00  0.00    +0.000 A 
ATOM     15  C   UNL     1       2.453   7.109  18.983  0.00  0.00    +0.000 A 
ATOM     16  C   UNL     1       2.468   6.026  18.096  0.00  0.00    +0.000 A 
BRANCH  14  17
ATOM     17  O   UNL     1       1.973   8.025  21.102  0.00  0.00    +0.000 OA
ATOM     18  H   UNL     1       1.825   8.820  20.565  0.00  0.00    +0.000 HD
ENDBRANCH  14  17
ENDBRANCH  10  11
ENDBRANCH   9  10
ENDBRANCH   8   9
ENDBRANCH   7   8
ENDBRANCH   1   7
BRANCH   4  19
ATOM     19  C   UNL     1       6.578   5.739  16.221  0.00  0.00    +0.000 C 
BRANCH  19  20
ATOM     20  O   UNL     1       7.183   4.703  15.445  0.00  0.00    +0.000 OA
BRANCH  20  21
ATOM     21  C   UNL     1       7.338   5.102  14.081  0.00  0.00    +0.000 C 
BRANCH  21  22
ATOM     22  C   UNL     1       6.623   4.151  13.149  0.00  0.00    +0.000 A 
ATOM     23  C   UNL     1       5.221   4.074  13.173  0.00  0.00    +0.000 A 
ATOM     24  C   UNL     1       4.539   3.214  12.308  0.00  0.00    +0.000 A 
ATOM     25  C   UNL     1       5.250   2.431  11.402  0.00  0.00    +0.000 A 
ATOM     26  C   UNL     1       6.642   2.517  11.351  0.00  0.00    +0.000 A 
ATOM     27  C   UNL     1       7.324   3.377  12.214  0.00  0.00    +0.000 A 
ENDBRANCH  21  22
ENDBRANCH  20  21
ENDBRANCH  19  20
ENDBRANCH   4  19
TORSDOF 10
ENDMDL
MODEL 7
REMARK VINA RESULT:      -7.0      2.531      3.911
REMARK  Name = 
REMARK  10 active torsions:
REMARK  status: ('A' for Active; 'I' for Inactive)
REMARK    1  A    between atoms: C_2  and  C_3
REMARK    2  A    between atoms: C_2  and  C_13
REMARK    3  A    between atoms: C_3  and  C_4
REMARK    4  A    between atoms: C_4  and  O_5
REMARK    5  A    between atoms: O_5  and  C_6
REMARK    6  A    between atoms: C_9  and  O_10
REMARK    7  A    between atoms: C_16  and  C_17
REMARK    8  A    between atoms: C_17  and  O_18
REMARK    9  A    between atoms: O_18  and  C_19
REMARK   10  A    between atoms: C_19  and  C_20
REMARK                            x       y       z     vdW  Elec       q    Type
REMARK                         _______ _______ _______ _____ _____    ______ ____
ROOT
ATOM      1  C   UNL     1       7.323   6.432  17.501  0.00  0.00    +0.000 A 
ATOM      2  N   UNL     1       6.673   7.327  16.784  0.00  0.00    +0.000 NA
ATOM      3  N   UNL     1       7.144   8.561  17.177  0.00  0.00    +0.000 NA
ATOM      4  C   UNL     1       8.056   8.337  18.102  0.00  0.00    +0.000 A 
ATOM      5  O   UNL     1       8.206   7.002  18.385  0.00  0.00    +0.000 OA
ENDROOT
BRANCH   1   7
ATOM      6  O   UNL     1       7.982   4.268  16.814  0.00  0.00    +0.000 OA
ATOM      7  C   UNL     1       7.185   4.995  17.410  0.00  0.00    +0.000 C 
BRANCH   7   8
ATOM      8  C   UNL     1       5.966   4.417  18.109  0.00  0.00    +0.000 C 
BRANCH   8   9
ATOM      9  C   UNL     1       5.697   5.089  19.450  0.00  0.00    +0.000 C 
BRANCH   9  10
ATOM     10  O   UNL     1       4.402   5.695  19.378  0.00  0.00    +0.000 OA
BRANCH  10  11
ATOM     11  C   UNL     1       3.353   4.867  19.083  0.00  0.00    +0.000 A 
ATOM     12  C   UNL     1       3.129   3.841  20.007  0.00  0.00    +0.000 A 
ATOM     13  C   UNL     1       2.079   2.935  19.830  0.00  0.00    +0.000 A 
ATOM     14  C   UNL     1       1.241   3.074  18.730  0.00  0.00    +0.000 A 
ATOM     15  C   UNL     1       1.436   4.103  17.816  0.00  0.00    +0.000 A 
ATOM     16  C   UNL     1       2.496   5.001  17.990  0.00  0.00    +0.000 A 
BRANCH  14  17
ATOM     17  O   UNL     1       0.205   2.216  18.512  0.00  0.00    +0.000 OA
ATOM     18  H   UNL     1       0.331   1.789  17.649  0.00  0.00    +0.000 HD
ENDBRANCH  14  17
ENDBRANCH  10  11
ENDBRANCH   9  10
ENDBRANCH   8   9
ENDBRANCH   7   8
ENDBRANCH   1   7
BRANCH   4  19
ATOM     19  C   UNL     1       8.869   9.318  18.866  0.00  0.00    +0.000 C 
BRANCH  19  20
ATOM     20  O   UNL     1       9.113  10.454  18.033  0.00  0.00    +0.000 OA
BRANCH  20  21
ATOM     21  C   UNL     1      10.178  11.255  18.551  0.00  0.00    +0.000 C 
BRANCH  21  22
ATOM     22  C   UNL     1       9.666  12.270  19.545  0.00  0.00    +0.000 A 
ATOM     23  C   UNL     1      10.020  12.160  20.900  0.00  0.00    +0.000 A 
ATOM     24  C   UNL     1       9.571  13.098  21.834  0.00  0.00    +0.000 A 
ATOM     25  C   UNL     1       8.773  14.162  21.422  0.00  0.00    +0.000 A 
ATOM     26  C   UNL     1       8.434  14.297  20.075  0.00  0.00    +0.000 A 
ATOM     27  C   UNL     1       8.883  13.361  19.142  0.00  0.00    +0.000 A 
ENDBRANCH  21  22
ENDBRANCH  20  21
ENDBRANCH  19  20
ENDBRANCH   4  19
TORSDOF 10
ENDMDL
MODEL 8
REMARK VINA RESULT:      -7.0      2.633      4.419
REMARK  Name = 
REMARK  10 active torsions:
REMARK  status: ('A' for Active; 'I' for Inactive)
REMARK    1  A    between atoms: C_2  and  C_3
REMARK    2  A    between atoms: C_2  and  C_13
REMARK    3  A    between atoms: C_3  and  C_4
REMARK    4  A    between atoms: C_4  and  O_5
REMARK    5  A    between atoms: O_5  and  C_6
REMARK    6  A    between atoms: C_9  and  O_10
REMARK    7  A    between atoms: C_16  and  C_17
REMARK    8  A    between atoms: C_17  and  O_18
REMARK    9  A    between atoms: O_18  and  C_19
REMARK   10  A    between atoms: C_19  and  C_20
REMARK                            x       y       z     vdW  Elec       q    Type
REMARK                         _______ _______ _______ _____ _____    ______ ____
ROOT
ATOM      1  C   UNL     1       7.649   6.888  18.004  0.00  0.00    +0.000 A 
ATOM      2  N   UNL     1       7.066   7.612  17.069  0.00  0.00    +0.000 NA
ATOM      3  N   UNL     1       7.522   8.902  17.232  0.00  0.00    +0.000 NA
ATOM      4  C   UNL     1       8.360   8.879  18.251  0.00  0.00    +0.000 A 
ATOM      5  O   UNL     1       8.471   7.632  18.815  0.00  0.00    +0.000 OA
ENDROOT
BRANCH   1   7
ATOM      6  O   UNL     1       7.707   4.896  19.277  0.00  0.00    +0.000 OA
ATOM      7  C   UNL     1       7.499   5.463  18.203  0.00  0.00    +0.000 C 
BRANCH   7   8
ATOM      8  C   UNL     1       7.061   4.681  16.975  0.00  0.00    +0.000 C 
BRANCH   8   9
ATOM      9  C   UNL     1       5.610   4.226  17.068  0.00  0.00    +0.000 C 
BRANCH   9  10
ATOM     10  O   UNL     1       4.905   5.186  17.863  0.00  0.00    +0.000 OA
BRANCH  10  11
ATOM     11  C   UNL     1       3.768   4.748  18.487  0.00  0.00    +0.000 A 
ATOM     12  C   UNL     1       3.008   3.829  17.758  0.00  0.00    +0.000 A 
ATOM     13  C   UNL     1       1.831   3.293  18.288  0.00  0.00    +0.000 A 
ATOM     14  C   UNL     1       1.429   3.668  19.564  0.00  0.00    +0.000 A 
ATOM     15  C   UNL     1       2.187   4.562  20.311  0.00  0.00    +0.000 A 
ATOM     16  C   UNL     1       3.359   5.107  19.772  0.00  0.00    +0.000 A 
BRANCH  14  17
ATOM     17  O   UNL     1       0.289   3.175  20.125  0.00  0.00    +0.000 OA
ATOM     18  H   UNL     1       0.424   2.234  20.323  0.00  0.00    +0.000 HD
ENDBRANCH  14  17
ENDBRANCH  10  11
ENDBRANCH   9  10
ENDBRANCH   8   9
ENDBRANCH   7   8
ENDBRANCH   1   7
BRANCH   4  19
ATOM     19  C   UNL     1       9.126   9.999  18.853  0.00  0.00    +0.000 C 
BRANCH  19  20
ATOM     20  O   UNL     1       8.876  11.183  18.093  0.00  0.00    +0.000 OA
BRANCH  20  21
ATOM     21  C   UNL     1      10.023  12.037  18.075  0.00  0.00    +0.000 C 
BRANCH  21  22
ATOM     22  C   UNL     1       9.621  13.489  17.966  0.00  0.00    +0.000 A 
ATOM     23  C   UNL     1       8.260  13.839  17.969  0.00  0.00    +0.000 A 
ATOM     24  C   UNL     1       7.867  15.177  17.886  0.00  0.00    +0.000 A 
ATOM     25  C   UNL     1       8.829  16.181  17.810  0.00  0.00    +0.000 A 
ATOM     26  C   UNL     1      10.184  15.849  17.831  0.00  0.00    +0.000 A 
ATOM     27  C   UNL     1      10.578  14.513  17.915  0.00  0.00    +0.000 A 
ENDBRANCH  21  22
ENDBRANCH  20  21
ENDBRANCH  19  20
ENDBRANCH   4  19
TORSDOF 10
ENDMDL
MODEL 9
REMARK VINA RESULT:      -6.9      2.569      8.555
REMARK  Name = 
REMARK  10 active torsions:
REMARK  status: ('A' for Active; 'I' for Inactive)
REMARK    1  A    between atoms: C_2  and  C_3
REMARK    2  A    between atoms: C_2  and  C_13
REMARK    3  A    between atoms: C_3  and  C_4
REMARK    4  A    between atoms: C_4  and  O_5
REMARK    5  A    between atoms: O_5  and  C_6
REMARK    6  A    between atoms: C_9  and  O_10
REMARK    7  A    between atoms: C_16  and  C_17
REMARK    8  A    between atoms: C_17  and  O_18
REMARK    9  A    between atoms: O_18  and  C_19
REMARK   10  A    between atoms: C_19  and  C_20
REMARK                            x       y       z     vdW  Elec       q    Type
REMARK                         _______ _______ _______ _____ _____    ______ ____
ROOT
ATOM      1  C   UNL     1       8.007   8.263  18.012  0.00  0.00    +0.000 A 
ATOM      2  N   UNL     1       8.297   7.242  18.795  0.00  0.00    +0.000 NA
ATOM      3  N   UNL     1       7.700   6.135  18.231  0.00  0.00    +0.000 NA
ATOM      4  C   UNL     1       7.093   6.551  17.137  0.00  0.00    +0.000 A 
ATOM      5  O   UNL     1       7.219   7.905  16.946  0.00  0.00    +0.000 OA
ENDROOT
BRANCH   1   7
ATOM      6  O   UNL     1       7.975  10.585  17.569  0.00  0.00    +0.000 OA
ATOM      7  C   UNL     1       8.448   9.629  18.186  0.00  0.00    +0.000 C 
BRANCH   7   8
ATOM      8  C   UNL     1       9.561   9.825  19.201  0.00  0.00    +0.000 C 
BRANCH   8   9
ATOM      9  C   UNL     1       9.225  10.900  20.228  0.00  0.00    +0.000 C 
BRANCH   9  10
ATOM     10  O   UNL     1      10.348  11.784  20.313  0.00  0.00    +0.000 OA
BRANCH  10  11
ATOM     11  C   UNL     1      10.489  12.695  19.302  0.00  0.00    +0.000 A 
ATOM     12  C   UNL     1      11.699  12.625  18.605  0.00  0.00    +0.000 A 
ATOM     13  C   UNL     1      11.963  13.490  17.539  0.00  0.00    +0.000 A 
ATOM     14  C   UNL     1      10.997  14.416  17.162  0.00  0.00    +0.000 A 
ATOM     15  C   UNL     1       9.780  14.481  17.830  0.00  0.00    +0.000 A 
ATOM     16  C   UNL     1       9.524  13.622  18.905  0.00  0.00    +0.000 A 
BRANCH  14  17
ATOM     17  O   UNL     1      11.206  15.282  16.131  0.00  0.00    +0.000 OA
ATOM     18  H   UNL     1      10.763  14.934  15.340  0.00  0.00    +0.000 HD
ENDBRANCH  14  17
ENDBRANCH  10  11
ENDBRANCH   9  10
ENDBRANCH   8   9
ENDBRANCH   7   8
ENDBRANCH   1   7
BRANCH   4  19
ATOM     19  C   UNL     1       6.293   5.770  16.161  0.00  0.00    +0.000 C 
BRANCH  19  20
ATOM     20  O   UNL     1       4.923   5.797  16.568  0.00  0.00    +0.000 OA
BRANCH  20  21
ATOM     21  C   UNL     1       4.443   4.480  16.851  0.00  0.00    +0.000 C 
BRANCH  21  22
ATOM     22  C   UNL     1       3.435   4.496  17.976  0.00  0.00    +0.000 A 
ATOM     23  C   UNL     1       3.683   5.267  19.124  0.00  0.00    +0.000 A 
ATOM     24  C   UNL     1       2.757   5.310  20.169  0.00  0.00    +0.000 A 
ATOM     25  C   UNL     1       1.569   4.591  20.075  0.00  0.00    +0.000 A 
ATOM     26  C   UNL     1       1.299   3.840  18.930  0.00  0.00    +0.000 A 
ATOM     27  C   UNL     1       2.223   3.798  17.885  0.00  0.00    +0.000 A 
ENDBRANCH  21  22
ENDBRANCH  20  21
ENDBRANCH  19  20
ENDBRANCH   4  19
TORSDOF 10
ENDMDL
