MODEL 1
REMARK VINA RESULT:      -7.1      0.000      0.000
REMARK  Name = 
REMARK  3 active torsions:
REMARK  status: ('A' for Active; 'I' for Inactive)
REMARK    1  A    between atoms: C_1  and  C_2
REMARK    2  A    between atoms: C_5  and  C_6
REMARK    3  A    between atoms: C_8  and  C_9
REMARK                            x       y       z     vdW  Elec       q    Type
REMARK                         _______ _______ _______ _____ _____    ______ ____
ROOT
ATOM      1  C   UNL     1      -1.494  11.591  19.199  0.00  0.00    +0.000 A 
ATOM      2  C   UNL     1      -1.671  12.210  20.373  0.00  0.00    +0.000 A 
ATOM      3  C   UNL     1      -2.972  12.698  20.808  0.00  0.00    +0.000 A 
ATOM      4  C   UNL     1      -4.026  12.616  19.950  0.00  0.00    +0.000 A 
ATOM      5  N   UNL     1      -3.862  11.985  18.697  0.00  0.00    +0.000 N 
ATOM      6  C   UNL     1      -2.660  11.393  18.293  0.00  0.00    +0.000 A 
ATOM      7  O   UNL     1      -2.541  10.741  17.255  0.00  0.00    +0.000 OA
ATOM      8  C   UNL     1      -4.997  11.880  17.775  0.00  0.00    +0.000 C 
ATOM      9  C   UNL     1      -6.028  10.829  18.201  0.00  0.00    +0.000 C 
ATOM     10  C   UNL     1      -6.404  10.861  19.686  0.00  0.00    +0.000 C 
ATOM     11  C   UNL     1      -6.529  12.268  20.214  0.00  0.00    +0.000 A 
ATOM     12  C   UNL     1      -7.788  12.776  20.562  0.00  0.00    +0.000 A 
ATOM     13  C   UNL     1      -7.886  14.095  20.972  0.00  0.00    +0.000 A 
ATOM     14  N   UNL     1      -6.840  14.939  21.024  0.00  0.00    +0.000 NA
ATOM     15  C   UNL     1      -5.632  14.426  20.681  0.00  0.00    +0.000 A 
ATOM     16  C   UNL     1      -5.396  13.102  20.308  0.00  0.00    +0.000 A 
ENDROOT
BRANCH   1  21
ATOM     17  C   UNL     1       2.094   8.559  17.830  0.00  0.00    +0.000 C 
ATOM     18  C   UNL     1       1.501   9.883  18.149  0.00  0.00    +0.000 A 
ATOM     19  C   UNL     1       2.158  11.095  18.198  0.00  0.00    +0.000 A 
ATOM     20  S   UNL     1       1.076  12.334  18.672  0.00  0.00    +0.000 S 
ATOM     21  C   UNL     1      -0.202  11.171  18.790  0.00  0.00    +0.000 A 
ATOM     22  N   UNL     1       0.150   9.946  18.444  0.00  0.00    +0.000 NA
ENDBRANCH   1  21
BRANCH   3  23
ATOM     23  C   UNL     1      -3.097  13.249  22.179  0.00  0.00    +0.000 A 
ATOM     24  C   UNL     1      -3.677  12.481  23.197  0.00  0.00    +0.000 A 
ATOM     25  C   UNL     1      -3.810  13.004  24.485  0.00  0.00    +0.000 A 
ATOM     26  C   UNL     1      -3.369  14.298  24.762  0.00  0.00    +0.000 A 
ATOM     27  C   UNL     1      -2.770  15.060  23.761  0.00  0.00    +0.000 A 
ATOM     28  C   UNL     1      -2.612  14.529  22.480  0.00  0.00    +0.000 A 
ENDBRANCH   3  23
TORSDOF 2
ENDMDL
MODEL 2
REMARK VINA RESULT:      -7.0      2.125      4.285
REMARK  Name = 
REMARK  3 active torsions:
REMARK  status: ('A' for Active; 'I' for Inactive)
REMARK    1  A    between atoms: C_1  and  C_2
REMARK    2  A    between atoms: C_5  and  C_6
REMARK    3  A    between atoms: C_8  and  C_9
REMARK                            x       y       z     vdW  Elec       q    Type
REMARK                         _______ _______ _______ _____ _____    ______ ____
ROOT
ATOM      1  C   UNL     1      -1.866  12.152  20.325  0.00  0.00    +0.000 A 
ATOM      2  C   UNL     1      -2.999  12.337  19.635  0.00  0.00    +0.000 A 
ATOM      3  C   UNL     1      -4.257  12.681  20.281  0.00  0.00    +0.000 A 
ATOM      4  C   UNL     1      -4.310  12.716  21.641  0.00  0.00    +0.000 A 
ATOM      5  N   UNL     1      -3.134  12.506  22.394  0.00  0.00    +0.000 N 
ATOM      6  C   UNL     1      -1.881  12.295  21.808  0.00  0.00    +0.000 A 
ATOM      7  O   UNL     1      -0.834  12.227  22.453  0.00  0.00    +0.000 OA
ATOM      8  C   UNL     1      -3.182  12.558  23.858  0.00  0.00    +0.000 C 
ATOM      9  C   UNL     1      -3.315  13.981  24.410  0.00  0.00    +0.000 C 
ATOM     10  C   UNL     1      -4.355  14.852  23.700  0.00  0.00    +0.000 C 
ATOM     11  C   UNL     1      -5.603  14.082  23.350  0.00  0.00    +0.000 A 
ATOM     12  C   UNL     1      -6.803  14.352  24.021  0.00  0.00    +0.000 A 
ATOM     13  C   UNL     1      -7.916  13.579  23.735  0.00  0.00    +0.000 A 
ATOM     14  N   UNL     1      -7.907  12.551  22.868  0.00  0.00    +0.000 NA
ATOM     15  C   UNL     1      -6.734  12.308  22.230  0.00  0.00    +0.000 A 
ATOM     16  C   UNL     1      -5.563  13.050  22.390  0.00  0.00    +0.000 A 
ENDROOT
BRANCH   1  21
ATOM     17  C   UNL     1       1.445   9.236  18.210  0.00  0.00    +0.000 C 
ATOM     18  C   UNL     1       0.900  10.538  18.671  0.00  0.00    +0.000 A 
ATOM     19  C   UNL     1       1.531  11.764  18.623  0.00  0.00    +0.000 A 
ATOM     20  S   UNL     1       0.538  12.967  19.329  0.00  0.00    +0.000 S 
ATOM     21  C   UNL     1      -0.670  11.771  19.663  0.00  0.00    +0.000 A 
ATOM     22  N   UNL     1      -0.369  10.562  19.224  0.00  0.00    +0.000 NA
ENDBRANCH   1  21
BRANCH   3  23
ATOM     23  C   UNL     1      -5.426  12.998  19.426  0.00  0.00    +0.000 A 
ATOM     24  C   UNL     1      -5.928  14.305  19.375  0.00  0.00    +0.000 A 
ATOM     25  C   UNL     1      -7.039  14.602  18.582  0.00  0.00    +0.000 A 
ATOM     26  C   UNL     1      -7.657  13.596  17.840  0.00  0.00    +0.000 A 
ATOM     27  C   UNL     1      -7.149  12.298  17.867  0.00  0.00    +0.000 A 
ATOM     28  C   UNL     1      -6.024  12.005  18.638  0.00  0.00    +0.000 A 
ENDBRANCH   3  23
TORSDOF 2
ENDMDL
MODEL 3
REMARK VINA RESULT:      -6.8      2.297      4.476
REMARK  Name = 
REMARK  3 active torsions:
REMARK  status: ('A' for Active; 'I' for Inactive)
REMARK    1  A    between atoms: C_1  and  C_2
REMARK    2  A    between atoms: C_5  and  C_6
REMARK    3  A    between atoms: C_8  and  C_9
REMARK                            x       y       z     vdW  Elec       q    Type
REMARK                         _______ _______ _______ _____ _____    ______ ____
ROOT
ATOM      1  C   UNL     1      -1.827  12.325  20.397  0.00  0.00    +0.000 A 
ATOM      2  C   UNL     1      -2.978  12.398  19.716  0.00  0.00    +0.000 A 
ATOM      3  C   UNL     1      -4.248  12.691  20.364  0.00  0.00    +0.000 A 
ATOM      4  C   UNL     1      -4.287  12.794  21.721  0.00  0.00    +0.000 A 
ATOM      5  N   UNL     1      -3.090  12.703  22.465  0.00  0.00    +0.000 N 
ATOM      6  C   UNL     1      -1.833  12.545  21.871  0.00  0.00    +0.000 A 
ATOM      7  O   UNL     1      -0.775  12.581  22.502  0.00  0.00    +0.000 OA
ATOM      8  C   UNL     1      -3.123  12.827  23.925  0.00  0.00    +0.000 C 
ATOM      9  C   UNL     1      -3.344  14.266  24.405  0.00  0.00    +0.000 C 
ATOM     10  C   UNL     1      -4.450  15.027  23.668  0.00  0.00    +0.000 C 
ATOM     11  C   UNL     1      -5.647  14.159  23.378  0.00  0.00    +0.000 A 
ATOM     12  C   UNL     1      -6.854  14.382  24.053  0.00  0.00    +0.000 A 
ATOM     13  C   UNL     1      -7.916  13.523  23.825  0.00  0.00    +0.000 A 
ATOM     14  N   UNL     1      -7.848  12.454  23.012  0.00  0.00    +0.000 NA
ATOM     15  C   UNL     1      -6.670  12.257  22.369  0.00  0.00    +0.000 A 
ATOM     16  C   UNL     1      -5.550  13.082  22.472  0.00  0.00    +0.000 A 
ENDROOT
BRANCH   1  21
ATOM     17  C   UNL     1       2.446  12.977  18.105  0.00  0.00    +0.000 C 
ATOM     18  C   UNL     1       1.346  12.172  18.694  0.00  0.00    +0.000 A 
ATOM     19  C   UNL     1       1.210  10.800  18.655  0.00  0.00    +0.000 A 
ATOM     20  S   UNL     1      -0.251  10.330  19.411  0.00  0.00    +0.000 S 
ATOM     21  C   UNL     1      -0.616  11.991  19.737  0.00  0.00    +0.000 A 
ATOM     22  N   UNL     1       0.324  12.836  19.351  0.00  0.00    +0.000 NA
ENDBRANCH   1  21
BRANCH   3  23
ATOM     23  C   UNL     1      -5.447  12.884  19.513  0.00  0.00    +0.000 A 
ATOM     24  C   UNL     1      -5.998  14.162  19.351  0.00  0.00    +0.000 A 
ATOM     25  C   UNL     1      -7.136  14.343  18.562  0.00  0.00    +0.000 A 
ATOM     26  C   UNL     1      -7.732  13.250  17.934  0.00  0.00    +0.000 A 
ATOM     27  C   UNL     1      -7.176  11.979  18.070  0.00  0.00    +0.000 A 
ATOM     28  C   UNL     1      -6.024  11.800  18.836  0.00  0.00    +0.000 A 
ENDBRANCH   3  23
TORSDOF 2
ENDMDL
MODEL 4
REMARK VINA RESULT:      -6.6      5.184     11.115
REMARK  Name = 
REMARK  3 active torsions:
REMARK  status: ('A' for Active; 'I' for Inactive)
REMARK    1  A    between atoms: C_1  and  C_2
REMARK    2  A    between atoms: C_5  and  C_6
REMARK    3  A    between atoms: C_8  and  C_9
REMARK                            x       y       z     vdW  Elec       q    Type
REMARK                         _______ _______ _______ _____ _____    ______ ____
ROOT
ATOM      1  C   UNL     1       2.049   7.822  19.342  0.00  0.00    +0.000 A 
ATOM      2  C   UNL     1       3.099   7.496  18.578  0.00  0.00    +0.000 A 
ATOM      3  C   UNL     1       3.591   6.129  18.475  0.00  0.00    +0.000 A 
ATOM      4  C   UNL     1       3.032   5.168  19.260  0.00  0.00    +0.000 A 
ATOM      5  N   UNL     1       1.935   5.489  20.089  0.00  0.00    +0.000 N 
ATOM      6  C   UNL     1       1.353   6.762  20.124  0.00  0.00    +0.000 A 
ATOM      7  O   UNL     1       0.328   7.021  20.754  0.00  0.00    +0.000 OA
ATOM      8  C   UNL     1       1.319   4.455  20.925  0.00  0.00    +0.000 C 
ATOM      9  C   UNL     1       0.463   3.464  20.129  0.00  0.00    +0.000 C 
ATOM     10  C   UNL     1       1.105   2.951  18.837  0.00  0.00    +0.000 C 
ATOM     11  C   UNL     1       2.580   2.680  18.999  0.00  0.00    +0.000 A 
ATOM     12  C   UNL     1       3.056   1.363  18.980  0.00  0.00    +0.000 A 
ATOM     13  C   UNL     1       4.403   1.136  19.207  0.00  0.00    +0.000 A 
ATOM     14  N   UNL     1       5.287   2.112  19.483  0.00  0.00    +0.000 NA
ATOM     15  C   UNL     1       4.803   3.379  19.497  0.00  0.00    +0.000 A 
ATOM     16  C   UNL     1       3.482   3.740  19.228  0.00  0.00    +0.000 A 
ENDROOT
BRANCH   1  21
ATOM     17  C   UNL     1       0.152  11.856  21.360  0.00  0.00    +0.000 C 
ATOM     18  C   UNL     1       0.795  11.070  20.276  0.00  0.00    +0.000 A 
ATOM     19  C   UNL     1       1.077  11.500  18.996  0.00  0.00    +0.000 A 
ATOM     20  S   UNL     1       1.760  10.224  18.082  0.00  0.00    +0.000 S 
ATOM     21  C   UNL     1       1.628   9.173  19.453  0.00  0.00    +0.000 A 
ATOM     22  N   UNL     1       1.153   9.759  20.538  0.00  0.00    +0.000 NA
ENDBRANCH   1  21
BRANCH   3  23
ATOM     23  C   UNL     1       4.672   5.840  17.502  0.00  0.00    +0.000 A 
ATOM     24  C   UNL     1       4.415   5.045  16.378  0.00  0.00    +0.000 A 
ATOM     25  C   UNL     1       5.436   4.759  15.470  0.00  0.00    +0.000 A 
ATOM     26  C   UNL     1       6.720   5.261  15.680  0.00  0.00    +0.000 A 
ATOM     27  C   UNL     1       6.979   6.073  16.783  0.00  0.00    +0.000 A 
ATOM     28  C   UNL     1       5.954   6.382  17.678  0.00  0.00    +0.000 A 
ENDBRANCH   3  23
TORSDOF 2
ENDMDL
MODEL 5
REMARK VINA RESULT:      -6.6      2.889      7.605
REMARK  Name = 
REMARK  3 active torsions:
REMARK  status: ('A' for Active; 'I' for Inactive)
REMARK    1  A    between atoms: C_1  and  C_2
REMARK    2  A    between atoms: C_5  and  C_6
REMARK    3  A    between atoms: C_8  and  C_9
REMARK                            x       y       z     vdW  Elec       q    Type
REMARK                         _______ _______ _______ _____ _____    ______ ____
ROOT
ATOM      1  C   UNL     1      -2.646  12.328  21.610  0.00  0.00    +0.000 A 
ATOM      2  C   UNL     1      -2.837  12.036  20.317  0.00  0.00    +0.000 A 
ATOM      3  C   UNL     1      -1.884  11.250  19.547  0.00  0.00    +0.000 A 
ATOM      4  C   UNL     1      -0.709  10.885  20.130  0.00  0.00    +0.000 A 
ATOM      5  N   UNL     1      -0.473  11.197  21.487  0.00  0.00    +0.000 N 
ATOM      6  C   UNL     1      -1.415  11.842  22.296  0.00  0.00    +0.000 A 
ATOM      7  O   UNL     1      -1.266  12.014  23.507  0.00  0.00    +0.000 OA
ATOM      8  C   UNL     1       0.784  10.794  22.124  0.00  0.00    +0.000 C 
ATOM      9  C   UNL     1       0.855   9.293  22.427  0.00  0.00    +0.000 C 
ATOM     10  C   UNL     1       0.390   8.383  21.287  0.00  0.00    +0.000 C 
ATOM     11  C   UNL     1       0.842   8.881  19.937  0.00  0.00    +0.000 A 
ATOM     12  C   UNL     1       1.817   8.174  19.221  0.00  0.00    +0.000 A 
ATOM     13  C   UNL     1       2.270   8.693  18.020  0.00  0.00    +0.000 A 
ATOM     14  N   UNL     1       1.852   9.865  17.509  0.00  0.00    +0.000 NA
ATOM     15  C   UNL     1       0.908  10.532  18.220  0.00  0.00    +0.000 A 
ATOM     16  C   UNL     1       0.334  10.087  19.411  0.00  0.00    +0.000 A 
ENDROOT
BRANCH   1  21
ATOM     17  C   UNL     1      -6.721  13.530  24.036  0.00  0.00    +0.000 C 
ATOM     18  C   UNL     1      -5.386  13.789  23.438  0.00  0.00    +0.000 A 
ATOM     19  C   UNL     1      -4.735  15.003  23.361  0.00  0.00    +0.000 A 
ATOM     20  S   UNL     1      -3.250  14.824  22.528  0.00  0.00    +0.000 S 
ATOM     21  C   UNL     1      -3.576  13.136  22.314  0.00  0.00    +0.000 A 
ATOM     22  N   UNL     1      -4.698  12.727  22.879  0.00  0.00    +0.000 NA
ENDBRANCH   1  21
BRANCH   3  23
ATOM     23  C   UNL     1      -2.244  10.863  18.162  0.00  0.00    +0.000 A 
ATOM     24  C   UNL     1      -2.684   9.562  17.885  0.00  0.00    +0.000 A 
ATOM     25  C   UNL     1      -3.008   9.192  16.578  0.00  0.00    +0.000 A 
ATOM     26  C   UNL     1      -2.891  10.116  15.540  0.00  0.00    +0.000 A 
ATOM     27  C   UNL     1      -2.478  11.420  15.811  0.00  0.00    +0.000 A 
ATOM     28  C   UNL     1      -2.179  11.799  17.120  0.00  0.00    +0.000 A 
ENDBRANCH   3  23
TORSDOF 2
ENDMDL
MODEL 6
REMARK VINA RESULT:      -6.6      5.860     10.909
REMARK  Name = 
REMARK  3 active torsions:
REMARK  status: ('A' for Active; 'I' for Inactive)
REMARK    1  A    between atoms: C_1  and  C_2
REMARK    2  A    between atoms: C_5  and  C_6
REMARK    3  A    between atoms: C_8  and  C_9
REMARK                            x       y       z     vdW  Elec       q    Type
REMARK                         _______ _______ _______ _____ _____    ______ ____
ROOT
ATOM      1  C   UNL     1       2.217   8.480  18.651  0.00  0.00    +0.000 A 
ATOM      2  C   UNL     1       3.199   7.982  17.889  0.00  0.00    +0.000 A 
ATOM      3  C   UNL     1       3.678   6.614  18.034  0.00  0.00    +0.000 A 
ATOM      4  C   UNL     1       3.184   5.847  19.044  0.00  0.00    +0.000 A 
ATOM      5  N   UNL     1       2.161   6.355  19.874  0.00  0.00    +0.000 N 
ATOM      6  C   UNL     1       1.587   7.619  19.690  0.00  0.00    +0.000 A 
ATOM      7  O   UNL     1       0.618   8.023  20.334  0.00  0.00    +0.000 OA
ATOM      8  C   UNL     1       1.614   5.529  20.954  0.00  0.00    +0.000 C 
ATOM      9  C   UNL     1       0.692   4.412  20.454  0.00  0.00    +0.000 C 
ATOM     10  C   UNL     1       1.223   3.630  19.249  0.00  0.00    +0.000 C 
ATOM     11  C   UNL     1       2.705   3.369  19.344  0.00  0.00    +0.000 A 
ATOM     12  C   UNL     1       3.176   2.068  19.561  0.00  0.00    +0.000 A 
ATOM     13  C   UNL     1       4.536   1.866  19.721  0.00  0.00    +0.000 A 
ATOM     14  N   UNL     1       5.442   2.861  19.715  0.00  0.00    +0.000 NA
ATOM     15  C   UNL     1       4.964   4.113  19.504  0.00  0.00    +0.000 A 
ATOM     16  C   UNL     1       3.627   4.436  19.274  0.00  0.00    +0.000 A 
ENDROOT
BRANCH   1  21
ATOM     17  C   UNL     1       2.610  13.329  18.127  0.00  0.00    +0.000 C 
ATOM     18  C   UNL     1       1.872  12.047  18.263  0.00  0.00    +0.000 A 
ATOM     19  C   UNL     1       0.507  11.884  18.373  0.00  0.00    +0.000 A 
ATOM     20  S   UNL     1       0.125  10.228  18.574  0.00  0.00    +0.000 S 
ATOM     21  C   UNL     1       1.810   9.833  18.511  0.00  0.00    +0.000 A 
ATOM     22  N   UNL     1       2.600  10.870  18.299  0.00  0.00    +0.000 NA
ENDBRANCH   1  21
BRANCH   3  23
ATOM     23  C   UNL     1       4.674   6.109  17.058  0.00  0.00    +0.000 A 
ATOM     24  C   UNL     1       4.323   5.099  16.152  0.00  0.00    +0.000 A 
ATOM     25  C   UNL     1       5.264   4.611  15.243  0.00  0.00    +0.000 A 
ATOM     26  C   UNL     1       6.561   5.124  15.236  0.00  0.00    +0.000 A 
ATOM     27  C   UNL     1       6.911   6.145  16.118  0.00  0.00    +0.000 A 
ATOM     28  C   UNL     1       5.965   6.653  17.009  0.00  0.00    +0.000 A 
ENDBRANCH   3  23
TORSDOF 2
ENDMDL
MODEL 7
REMARK VINA RESULT:      -6.5     10.437     12.736
REMARK  Name = 
REMARK  3 active torsions:
REMARK  status: ('A' for Active; 'I' for Inactive)
REMARK    1  A    between atoms: C_1  and  C_2
REMARK    2  A    between atoms: C_5  and  C_6
REMARK    3  A    between atoms: C_8  and  C_9
REMARK                            x       y       z     vdW  Elec       q    Type
REMARK                         _______ _______ _______ _____ _____    ______ ____
ROOT
ATOM      1  C   UNL     1       6.763  12.905  23.912  0.00  0.00    +0.000 A 
ATOM      2  C   UNL     1       7.680  12.419  23.065  0.00  0.00    +0.000 A 
ATOM      3  C   UNL     1       8.069  13.125  21.852  0.00  0.00    +0.000 A 
ATOM      4  C   UNL     1       7.409  14.266  21.514  0.00  0.00    +0.000 A 
ATOM      5  N   UNL     1       6.425  14.790  22.381  0.00  0.00    +0.000 N 
ATOM      6  C   UNL     1       6.108  14.209  23.614  0.00  0.00    +0.000 A 
ATOM      7  O   UNL     1       5.337  14.721  24.427  0.00  0.00    +0.000 OA
ATOM      8  C   UNL     1       5.720  16.026  22.029  0.00  0.00    +0.000 C 
ATOM      9  C   UNL     1       6.580  17.283  22.201  0.00  0.00    +0.000 C 
ATOM     10  C   UNL     1       8.003  17.170  21.644  0.00  0.00    +0.000 C 
ATOM     11  C   UNL     1       8.047  16.425  20.334  0.00  0.00    +0.000 A 
ATOM     12  C   UNL     1       8.345  17.109  19.149  0.00  0.00    +0.000 A 
ATOM     13  C   UNL     1       8.304  16.417  17.950  0.00  0.00    +0.000 A 
ATOM     14  N   UNL     1       7.959  15.121  17.849  0.00  0.00    +0.000 NA
ATOM     15  C   UNL     1       7.674  14.479  19.009  0.00  0.00    +0.000 A 
ATOM     16  C   UNL     1       7.734  15.050  20.281  0.00  0.00    +0.000 A 
ENDROOT
BRANCH   1  21
ATOM     17  C   UNL     1       4.040  10.010  26.766  0.00  0.00    +0.000 C 
ATOM     18  C   UNL     1       5.221  10.849  26.440  0.00  0.00    +0.000 A 
ATOM     19  C   UNL     1       6.257  11.187  27.286  0.00  0.00    +0.000 A 
ATOM     20  S   UNL     1       7.358  12.226  26.486  0.00  0.00    +0.000 S 
ATOM     21  C   UNL     1       6.376  12.165  25.060  0.00  0.00    +0.000 A 
ATOM     22  N   UNL     1       5.323  11.374  25.163  0.00  0.00    +0.000 NA
ENDBRANCH   1  21
BRANCH   3  23
ATOM     23  C   UNL     1       9.187  12.578  21.045  0.00  0.00    +0.000 A 
ATOM     24  C   UNL     1      10.403  13.268  20.967  0.00  0.00    +0.000 A 
ATOM     25  C   UNL     1      11.451  12.761  20.195  0.00  0.00    +0.000 A 
ATOM     26  C   UNL     1      11.289  11.567  19.494  0.00  0.00    +0.000 A 
ATOM     27  C   UNL     1      10.090  10.861  19.586  0.00  0.00    +0.000 A 
ATOM     28  C   UNL     1       9.051  11.352  20.378  0.00  0.00    +0.000 A 
ENDBRANCH   3  23
TORSDOF 2
ENDMDL
MODEL 8
REMARK VINA RESULT:      -6.4     11.469     14.634
REMARK  Name = 
REMARK  3 active torsions:
REMARK  status: ('A' for Active; 'I' for Inactive)
REMARK    1  A    between atoms: C_1  and  C_2
REMARK    2  A    between atoms: C_5  and  C_6
REMARK    3  A    between atoms: C_8  and  C_9
REMARK                            x       y       z     vdW  Elec       q    Type
REMARK                         _______ _______ _______ _____ _____    ______ ____
ROOT
ATOM      1  C   UNL     1       8.304  13.353  23.543  0.00  0.00    +0.000 A 
ATOM      2  C   UNL     1       8.783  12.770  22.437  0.00  0.00    +0.000 A 
ATOM      3  C   UNL     1       9.531  13.508  21.429  0.00  0.00    +0.000 A 
ATOM      4  C   UNL     1       9.662  14.856  21.563  0.00  0.00    +0.000 A 
ATOM      5  N   UNL     1       9.150  15.500  22.711  0.00  0.00    +0.000 N 
ATOM      6  C   UNL     1       8.533  14.809  23.761  0.00  0.00    +0.000 A 
ATOM      7  O   UNL     1       8.189  15.345  24.815  0.00  0.00    +0.000 OA
ATOM      8  C   UNL     1       9.301  16.949  22.868  0.00  0.00    +0.000 C 
ATOM      9  C   UNL     1      10.727  17.374  23.232  0.00  0.00    +0.000 C 
ATOM     10  C   UNL     1      11.829  16.695  22.413  0.00  0.00    +0.000 C 
ATOM     11  C   UNL     1      11.455  16.552  20.959  0.00  0.00    +0.000 A 
ATOM     12  C   UNL     1      12.116  17.316  19.987  0.00  0.00    +0.000 A 
ATOM     13  C   UNL     1      11.702  17.223  18.669  0.00  0.00    +0.000 A 
ATOM     14  N   UNL     1      10.670  16.461  18.265  0.00  0.00    +0.000 NA
ATOM     15  C   UNL     1      10.045  15.731  19.222  0.00  0.00    +0.000 A 
ATOM     16  C   UNL     1      10.404  15.697  20.570  0.00  0.00    +0.000 A 
ENDROOT
BRANCH   1  21
ATOM     17  C   UNL     1       7.012  11.377  27.828  0.00  0.00    +0.000 C 
ATOM     18  C   UNL     1       6.852  11.672  26.381  0.00  0.00    +0.000 A 
ATOM     19  C   UNL     1       5.880  11.177  25.537  0.00  0.00    +0.000 A 
ATOM     20  S   UNL     1       6.138  11.745  23.943  0.00  0.00    +0.000 S 
ATOM     21  C   UNL     1       7.540  12.610  24.479  0.00  0.00    +0.000 A 
ATOM     22  N   UNL     1       7.765  12.521  25.778  0.00  0.00    +0.000 NA
ENDBRANCH   1  21
BRANCH   3  23
ATOM     23  C   UNL     1      10.136  12.753  20.306  0.00  0.00    +0.000 A 
ATOM     24  C   UNL     1      11.494  12.408  20.338  0.00  0.00    +0.000 A 
ATOM     25  C   UNL     1      12.069  11.711  19.274  0.00  0.00    +0.000 A 
ATOM     26  C   UNL     1      11.294  11.358  18.170  0.00  0.00    +0.000 A 
ATOM     27  C   UNL     1       9.937  11.675  18.140  0.00  0.00    +0.000 A 
ATOM     28  C   UNL     1       9.354  12.348  19.214  0.00  0.00    +0.000 A 
ENDBRANCH   3  23
TORSDOF 2
ENDMDL
MODEL 9
REMARK VINA RESULT:      -6.3      3.115      7.685
REMARK  Name = 
REMARK  3 active torsions:
REMARK  status: ('A' for Active; 'I' for Inactive)
REMARK    1  A    between atoms: C_1  and  C_2
REMARK    2  A    between atoms: C_5  and  C_6
REMARK    3  A    between atoms: C_8  and  C_9
REMARK                            x       y       z     vdW  Elec       q    Type
REMARK                         _______ _______ _______ _____ _____    ______ ____
ROOT
ATOM      1  C   UNL     1      -2.220  12.611  21.546  0.00  0.00    +0.000 A 
ATOM      2  C   UNL     1      -2.499  12.254  20.285  0.00  0.00    +0.000 A 
ATOM      3  C   UNL     1      -1.649  11.346  19.528  0.00  0.00    +0.000 A 
ATOM      4  C   UNL     1      -0.479  10.925  20.081  0.00  0.00    +0.000 A 
ATOM      5  N   UNL     1      -0.151  11.302  21.402  0.00  0.00    +0.000 N 
ATOM      6  C   UNL     1      -0.998  12.072  22.207  0.00  0.00    +0.000 A 
ATOM      7  O   UNL     1      -0.776  12.308  23.395  0.00  0.00    +0.000 OA
ATOM      8  C   UNL     1       1.100  10.840  22.008  0.00  0.00    +0.000 C 
ATOM      9  C   UNL     1       1.070   9.361  22.408  0.00  0.00    +0.000 C 
ATOM     10  C   UNL     1       0.478   8.421  21.354  0.00  0.00    +0.000 C 
ATOM     11  C   UNL     1       0.899   8.793  19.955  0.00  0.00    +0.000 A 
ATOM     12  C   UNL     1       1.779   7.965  19.245  0.00  0.00    +0.000 A 
ATOM     13  C   UNL     1       2.211   8.368  17.992  0.00  0.00    +0.000 A 
ATOM     14  N   UNL     1       1.860   9.535  17.423  0.00  0.00    +0.000 NA
ATOM     15  C   UNL     1       1.008  10.320  18.128  0.00  0.00    +0.000 A 
ATOM     16  C   UNL     1       0.461  10.000  19.371  0.00  0.00    +0.000 A 
ENDROOT
BRANCH   1  21
ATOM     17  C   UNL     1      -3.844  16.915  23.212  0.00  0.00    +0.000 C 
ATOM     18  C   UNL     1      -3.880  15.441  23.038  0.00  0.00    +0.000 A 
ATOM     19  C   UNL     1      -4.762  14.559  23.627  0.00  0.00    +0.000 A 
ATOM     20  S   UNL     1      -4.376  12.952  23.181  0.00  0.00    +0.000 S 
ATOM     21  C   UNL     1      -3.048  13.535  22.235  0.00  0.00    +0.000 A 
ATOM     22  N   UNL     1      -2.938  14.852  22.213  0.00  0.00    +0.000 NA
ENDBRANCH   1  21
BRANCH   3  23
ATOM     23  C   UNL     1      -2.107  10.902  18.190  0.00  0.00    +0.000 A 
ATOM     24  C   UNL     1      -2.035  11.773  17.095  0.00  0.00    +0.000 A 
ATOM     25  C   UNL     1      -2.481  11.362  15.837  0.00  0.00    +0.000 A 
ATOM     26  C   UNL     1      -3.005  10.081  15.666  0.00  0.00    +0.000 A 
ATOM     27  C   UNL     1      -3.058   9.199  16.744  0.00  0.00    +0.000 A 
ATOM     28  C   UNL     1      -2.589   9.599  17.996  0.00  0.00    +0.000 A 
ENDBRANCH   3  23
TORSDOF 2
ENDMDL
