MODEL 1
REMARK VINA RESULT:      -8.8      0.000      0.000
REMARK  Name = 
REMARK  3 active torsions:
REMARK  status: ('A' for Active; 'I' for Inactive)
REMARK    1  A    between atoms: C_1  and  C_2
REMARK    2  A    between atoms: C_7  and  C_8
REMARK    3  A    between atoms: C_20  and  C_21
REMARK                            x       y       z     vdW  Elec       q    Type
REMARK                         _______ _______ _______ _____ _____    ______ ____
ROOT
ATOM      1  C   UNL     1       1.715   7.499  20.107  0.00  0.00    +0.000 A 
ATOM      2  C   UNL     1       2.511   7.393  18.959  0.00  0.00    +0.000 A 
ATOM      3  C   UNL     1       2.934   6.163  18.453  0.00  0.00    +0.000 A 
ATOM      4  F   UNL     1       3.545   6.204  17.269  0.00  0.00    +0.000 F 
ATOM      5  C   UNL     1       2.669   4.981  19.128  0.00  0.00    +0.000 A 
ATOM      6  C   UNL     1       1.945   5.052  20.338  0.00  0.00    +0.000 A 
ATOM      7  C   UNL     1       1.468   6.297  20.800  0.00  0.00    +0.000 A 
ATOM      8  C   UNL     1       1.757   3.818  21.198  0.00  0.00    +0.000 C 
ATOM      9  C   UNL     1       1.586   2.566  20.346  0.00  0.00    +0.000 C 
ATOM     10  C   UNL     1       2.594   2.534  19.258  0.00  0.00    +0.000 A 
ATOM     11  N   UNL     1       3.101   1.480  18.674  0.00  0.00    +0.000 NA
ATOM     12  N   UNL     1       3.928   1.919  17.684  0.00  0.00    +0.000 NA
ATOM     13  C   UNL     1       3.914   3.242  17.672  0.00  0.00    +0.000 A 
ATOM     14  C   UNL     1       4.735   4.042  16.739  0.00  0.00    +0.000 C 
ATOM     15  N   UNL     1       3.069   3.695  18.674  0.00  0.00    +0.000 N 
ENDROOT
BRANCH   1  22
ATOM     16  C   UNL     1       0.564   9.702  18.219  0.00  0.00    +0.000 C 
ATOM     17  C   UNL     1       0.642   9.811  19.721  0.00  0.00    +0.000 A 
ATOM     18  C   UNL     1       0.158  11.005  20.287  0.00  0.00    +0.000 A 
ATOM     19  C   UNL     1       0.170  11.163  21.659  0.00  0.00    +0.000 A 
ATOM     20  N   UNL     1       0.645  10.235  22.505  0.00  0.00    +0.000 NA
ATOM     21  C   UNL     1       1.133   9.101  21.942  0.00  0.00    +0.000 A 
ATOM     22  C   UNL     1       1.170   8.805  20.569  0.00  0.00    +0.000 A 
ENDBRANCH   1  22
TORSDOF 1
ENDMDL
MODEL 2
REMARK VINA RESULT:      -8.6      1.147      1.289
REMARK  Name = 
REMARK  3 active torsions:
REMARK  status: ('A' for Active; 'I' for Inactive)
REMARK    1  A    between atoms: C_1  and  C_2
REMARK    2  A    between atoms: C_7  and  C_8
REMARK    3  A    between atoms: C_20  and  C_21
REMARK                            x       y       z     vdW  Elec       q    Type
REMARK                         _______ _______ _______ _____ _____    ______ ____
ROOT
ATOM      1  C   UNL     1       1.349   8.114  20.438  0.00  0.00    +0.000 A 
ATOM      2  C   UNL     1       2.085   8.371  19.276  0.00  0.00    +0.000 A 
ATOM      3  C   UNL     1       2.710   7.359  18.546  0.00  0.00    +0.000 A 
ATOM      4  F   UNL     1       3.236   7.727  17.377  0.00  0.00    +0.000 F 
ATOM      5  C   UNL     1       2.716   6.048  19.000  0.00  0.00    +0.000 A 
ATOM      6  C   UNL     1       2.060   5.760  20.216  0.00  0.00    +0.000 A 
ATOM      7  C   UNL     1       1.377   6.785  20.907  0.00  0.00    +0.000 A 
ATOM      8  C   UNL     1       2.162   4.383  20.841  0.00  0.00    +0.000 C 
ATOM      9  C   UNL     1       2.189   3.290  19.779  0.00  0.00    +0.000 C 
ATOM     10  C   UNL     1       3.123   3.651  18.684  0.00  0.00    +0.000 A 
ATOM     11  N   UNL     1       3.791   2.838  17.908  0.00  0.00    +0.000 NA
ATOM     12  N   UNL     1       4.462   3.600  16.999  0.00  0.00    +0.000 NA
ATOM     13  C   UNL     1       4.191   4.875  17.228  0.00  0.00    +0.000 A 
ATOM     14  C   UNL     1       4.790   5.973  16.441  0.00  0.00    +0.000 C 
ATOM     15  N   UNL     1       3.332   4.968  18.312  0.00  0.00    +0.000 N 
ENDROOT
BRANCH   1  22
ATOM     16  C   UNL     1      -0.486  10.203  19.019  0.00  0.00    +0.000 C 
ATOM     17  C   UNL     1      -0.251  10.135  20.506  0.00  0.00    +0.000 A 
ATOM     18  C   UNL     1      -0.916  11.098  21.289  0.00  0.00    +0.000 A 
ATOM     19  C   UNL     1      -0.771  11.078  22.662  0.00  0.00    +0.000 A 
ATOM     20  N   UNL     1      -0.001  10.190  23.311  0.00  0.00    +0.000 NA
ATOM     21  C   UNL     1       0.654   9.286  22.541  0.00  0.00    +0.000 A 
ATOM     22  C   UNL     1       0.587   9.183  21.141  0.00  0.00    +0.000 A 
ENDBRANCH   1  22
TORSDOF 1
ENDMDL
MODEL 3
REMARK VINA RESULT:      -8.4      2.436      7.316
REMARK  Name = 
REMARK  3 active torsions:
REMARK  status: ('A' for Active; 'I' for Inactive)
REMARK    1  A    between atoms: C_1  and  C_2
REMARK    2  A    between atoms: C_7  and  C_8
REMARK    3  A    between atoms: C_20  and  C_21
REMARK                            x       y       z     vdW  Elec       q    Type
REMARK                         _______ _______ _______ _____ _____    ______ ____
ROOT
ATOM      1  C   UNL     1       2.617   7.129  18.644  0.00  0.00    +0.000 A 
ATOM      2  C   UNL     1       2.311   6.995  20.004  0.00  0.00    +0.000 A 
ATOM      3  C   UNL     1       1.483   7.895  20.677  0.00  0.00    +0.000 A 
ATOM      4  F   UNL     1       1.149   7.555  21.922  0.00  0.00    +0.000 F 
ATOM      5  C   UNL     1       1.000   9.033  20.048  0.00  0.00    +0.000 A 
ATOM      6  C   UNL     1       1.358   9.252  18.700  0.00  0.00    +0.000 A 
ATOM      7  C   UNL     1       2.142   8.298  18.015  0.00  0.00    +0.000 A 
ATOM      8  C   UNL     1       0.991  10.548  18.006  0.00  0.00    +0.000 C 
ATOM      9  C   UNL     1      -0.367  11.063  18.467  0.00  0.00    +0.000 C 
ATOM     10  C   UNL     1      -0.479  10.985  19.944  0.00  0.00    +0.000 A 
ATOM     11  N   UNL     1      -1.199  11.744  20.729  0.00  0.00    +0.000 NA
ATOM     12  N   UNL     1      -1.059  11.268  21.998  0.00  0.00    +0.000 NA
ATOM     13  C   UNL     1      -0.255  10.218  21.974  0.00  0.00    +0.000 A 
ATOM     14  C   UNL     1       0.138   9.485  23.195  0.00  0.00    +0.000 C 
ATOM     15  N   UNL     1       0.155   9.991  20.669  0.00  0.00    +0.000 N 
ENDROOT
BRANCH   1  22
ATOM     16  C   UNL     1       1.607   4.240  18.029  0.00  0.00    +0.000 C 
ATOM     17  C   UNL     1       2.952   4.786  17.621  0.00  0.00    +0.000 A 
ATOM     18  C   UNL     1       3.795   3.907  16.917  0.00  0.00    +0.000 A 
ATOM     19  C   UNL     1       5.031   4.348  16.485  0.00  0.00    +0.000 A 
ATOM     20  N   UNL     1       5.496   5.585  16.719  0.00  0.00    +0.000 NA
ATOM     21  C   UNL     1       4.682   6.411  17.422  0.00  0.00    +0.000 A 
ATOM     22  C   UNL     1       3.401   6.100  17.908  0.00  0.00    +0.000 A 
ENDBRANCH   1  22
TORSDOF 1
ENDMDL
MODEL 4
REMARK VINA RESULT:      -8.3      1.563      2.777
REMARK  Name = 
REMARK  3 active torsions:
REMARK  status: ('A' for Active; 'I' for Inactive)
REMARK    1  A    between atoms: C_1  and  C_2
REMARK    2  A    between atoms: C_7  and  C_8
REMARK    3  A    between atoms: C_20  and  C_21
REMARK                            x       y       z     vdW  Elec       q    Type
REMARK                         _______ _______ _______ _____ _____    ______ ____
ROOT
ATOM      1  C   UNL     1       1.152   8.050  20.576  0.00  0.00    +0.000 A 
ATOM      2  C   UNL     1       1.084   6.727  21.032  0.00  0.00    +0.000 A 
ATOM      3  C   UNL     1       1.822   5.696  20.451  0.00  0.00    +0.000 A 
ATOM      4  F   UNL     1       1.784   4.526  21.088  0.00  0.00    +0.000 F 
ATOM      5  C   UNL     1       2.589   5.915  19.316  0.00  0.00    +0.000 A 
ATOM      6  C   UNL     1       2.615   7.217  18.770  0.00  0.00    +0.000 A 
ATOM      7  C   UNL     1       1.915   8.263  19.410  0.00  0.00    +0.000 A 
ATOM      8  C   UNL     1       3.307   7.486  17.449  0.00  0.00    +0.000 C 
ATOM      9  C   UNL     1       4.559   6.630  17.291  0.00  0.00    +0.000 C 
ATOM     10  C   UNL     1       4.282   5.226  17.682  0.00  0.00    +0.000 A 
ATOM     11  N   UNL     1       4.871   4.146  17.239  0.00  0.00    +0.000 NA
ATOM     12  N   UNL     1       4.355   3.088  17.926  0.00  0.00    +0.000 NA
ATOM     13  C   UNL     1       3.456   3.536  18.787  0.00  0.00    +0.000 A 
ATOM     14  C   UNL     1       2.676   2.641  19.667  0.00  0.00    +0.000 C 
ATOM     15  N   UNL     1       3.364   4.915  18.670  0.00  0.00    +0.000 N 
ENDROOT
BRANCH   1  22
ATOM     16  C   UNL     1      -0.544  10.252  19.155  0.00  0.00    +0.000 C 
ATOM     17  C   UNL     1      -0.320  10.165  20.643  0.00  0.00    +0.000 A 
ATOM     18  C   UNL     1      -0.929  11.165  21.425  0.00  0.00    +0.000 A 
ATOM     19  C   UNL     1      -0.792  11.132  22.799  0.00  0.00    +0.000 A 
ATOM     20  N   UNL     1      -0.082  10.196  23.449  0.00  0.00    +0.000 NA
ATOM     21  C   UNL     1       0.520   9.256  22.679  0.00  0.00    +0.000 A 
ATOM     22  C   UNL     1       0.454   9.162  21.278  0.00  0.00    +0.000 A 
ENDBRANCH   1  22
TORSDOF 1
ENDMDL
MODEL 5
REMARK VINA RESULT:      -8.3      2.281      7.029
REMARK  Name = 
REMARK  3 active torsions:
REMARK  status: ('A' for Active; 'I' for Inactive)
REMARK    1  A    between atoms: C_1  and  C_2
REMARK    2  A    between atoms: C_7  and  C_8
REMARK    3  A    between atoms: C_20  and  C_21
REMARK                            x       y       z     vdW  Elec       q    Type
REMARK                         _______ _______ _______ _____ _____    ______ ____
ROOT
ATOM      1  C   UNL     1       2.649   7.085  18.553  0.00  0.00    +0.000 A 
ATOM      2  C   UNL     1       2.354   8.245  17.825  0.00  0.00    +0.000 A 
ATOM      3  C   UNL     1       1.723   9.349  18.399  0.00  0.00    +0.000 A 
ATOM      4  F   UNL     1       1.653  10.439  17.635  0.00  0.00    +0.000 F 
ATOM      5  C   UNL     1       1.260   9.310  19.706  0.00  0.00    +0.000 A 
ATOM      6  C   UNL     1       1.458   8.125  20.449  0.00  0.00    +0.000 A 
ATOM      7  C   UNL     1       2.158   7.043  19.873  0.00  0.00    +0.000 A 
ATOM      8  C   UNL     1       0.843   7.965  21.824  0.00  0.00    +0.000 C 
ATOM      9  C   UNL     1       0.837   9.284  22.589  0.00  0.00    +0.000 C 
ATOM     10  C   UNL     1       0.366  10.389  21.718  0.00  0.00    +0.000 A 
ATOM     11  N   UNL     1      -0.242  11.487  22.084  0.00  0.00    +0.000 NA
ATOM     12  N   UNL     1      -0.419  12.248  20.968  0.00  0.00    +0.000 NA
ATOM     13  C   UNL     1       0.089  11.606  19.929  0.00  0.00    +0.000 A 
ATOM     14  C   UNL     1       0.030  12.140  18.552  0.00  0.00    +0.000 C 
ATOM     15  N   UNL     1       0.609  10.393  20.356  0.00  0.00    +0.000 N 
ENDROOT
BRANCH   1  22
ATOM     16  C   UNL     1       1.458   4.293  17.825  0.00  0.00    +0.000 C 
ATOM     17  C   UNL     1       2.899   4.692  17.626  0.00  0.00    +0.000 A 
ATOM     18  C   UNL     1       3.747   3.714  17.075  0.00  0.00    +0.000 A 
ATOM     19  C   UNL     1       5.073   4.019  16.837  0.00  0.00    +0.000 A 
ATOM     20  N   UNL     1       5.620   5.211  17.124  0.00  0.00    +0.000 NA
ATOM     21  C   UNL     1       4.796   6.133  17.680  0.00  0.00    +0.000 A 
ATOM     22  C   UNL     1       3.430   5.963  17.963  0.00  0.00    +0.000 A 
ENDBRANCH   1  22
TORSDOF 1
ENDMDL
MODEL 6
REMARK VINA RESULT:      -8.1      1.307      1.629
REMARK  Name = 
REMARK  3 active torsions:
REMARK  status: ('A' for Active; 'I' for Inactive)
REMARK    1  A    between atoms: C_1  and  C_2
REMARK    2  A    between atoms: C_7  and  C_8
REMARK    3  A    between atoms: C_20  and  C_21
REMARK                            x       y       z     vdW  Elec       q    Type
REMARK                         _______ _______ _______ _____ _____    ______ ____
ROOT
ATOM      1  C   UNL     1       1.369   8.786  19.637  0.00  0.00    +0.000 A 
ATOM      2  C   UNL     1       2.157   8.822  18.480  0.00  0.00    +0.000 A 
ATOM      3  C   UNL     1       2.818   7.696  17.988  0.00  0.00    +0.000 A 
ATOM      4  F   UNL     1       3.395   7.838  16.795  0.00  0.00    +0.000 F 
ATOM      5  C   UNL     1       2.808   6.498  18.687  0.00  0.00    +0.000 A 
ATOM      6  C   UNL     1       2.097   6.442  19.905  0.00  0.00    +0.000 A 
ATOM      7  C   UNL     1       1.380   7.572  20.354  0.00  0.00    +0.000 A 
ATOM      8  C   UNL     1       2.175   5.213  20.788  0.00  0.00    +0.000 C 
ATOM      9  C   UNL     1       2.255   3.936  19.960  0.00  0.00    +0.000 C 
ATOM     10  C   UNL     1       3.236   4.090  18.859  0.00  0.00    +0.000 A 
ATOM     11  N   UNL     1       3.942   3.150  18.285  0.00  0.00    +0.000 NA
ATOM     12  N   UNL     1       4.651   3.731  17.276  0.00  0.00    +0.000 NA
ATOM     13  C   UNL     1       4.366   5.022  17.243  0.00  0.00    +0.000 A 
ATOM     14  C   UNL     1       4.996   5.955  16.285  0.00  0.00    +0.000 C 
ATOM     15  N   UNL     1       3.457   5.312  18.249  0.00  0.00    +0.000 N 
ENDROOT
BRANCH   1  22
ATOM     16  C   UNL     1      -0.997  10.036  18.029  0.00  0.00    +0.000 C 
ATOM     17  C   UNL     1      -0.505  10.535  19.364  0.00  0.00    +0.000 A 
ATOM     18  C   UNL     1      -1.177  11.650  19.900  0.00  0.00    +0.000 A 
ATOM     19  C   UNL     1      -0.801  12.144  21.133  0.00  0.00    +0.000 A 
ATOM     20  N   UNL     1       0.203  11.628  21.861  0.00  0.00    +0.000 NA
ATOM     21  C   UNL     1       0.857  10.571  21.318  0.00  0.00    +0.000 A 
ATOM     22  C   UNL     1       0.573   9.961  20.084  0.00  0.00    +0.000 A 
ENDBRANCH   1  22
TORSDOF 1
ENDMDL
MODEL 7
REMARK VINA RESULT:      -8.0      2.157      3.600
REMARK  Name = 
REMARK  3 active torsions:
REMARK  status: ('A' for Active; 'I' for Inactive)
REMARK    1  A    between atoms: C_1  and  C_2
REMARK    2  A    between atoms: C_7  and  C_8
REMARK    3  A    between atoms: C_20  and  C_21
REMARK                            x       y       z     vdW  Elec       q    Type
REMARK                         _______ _______ _______ _____ _____    ______ ____
ROOT
ATOM      1  C   UNL     1       1.371   9.564  18.901  0.00  0.00    +0.000 A 
ATOM      2  C   UNL     1       1.078   8.699  19.962  0.00  0.00    +0.000 A 
ATOM      3  C   UNL     1       1.713   7.466  20.120  0.00  0.00    +0.000 A 
ATOM      4  F   UNL     1       1.455   6.823  21.259  0.00  0.00    +0.000 F 
ATOM      5  C   UNL     1       2.598   6.989  19.165  0.00  0.00    +0.000 A 
ATOM      6  C   UNL     1       2.855   7.793  18.032  0.00  0.00    +0.000 A 
ATOM      7  C   UNL     1       2.255   9.066  17.923  0.00  0.00    +0.000 A 
ATOM      8  C   UNL     1       3.690   7.263  16.884  0.00  0.00    +0.000 C 
ATOM      9  C   UNL     1       4.818   6.367  17.382  0.00  0.00    +0.000 C 
ATOM     10  C   UNL     1       4.314   5.413  18.401  0.00  0.00    +0.000 A 
ATOM     11  N   UNL     1       4.782   4.224  18.677  0.00  0.00    +0.000 NA
ATOM     12  N   UNL     1       4.064   3.737  19.728  0.00  0.00    +0.000 NA
ATOM     13  C   UNL     1       3.166   4.639  20.086  0.00  0.00    +0.000 A 
ATOM     14  C   UNL     1       2.195   4.412  21.177  0.00  0.00    +0.000 C 
ATOM     15  N   UNL     1       3.279   5.745  19.257  0.00  0.00    +0.000 N 
ENDROOT
BRANCH   1  22
ATOM     16  C   UNL     1      -1.537  10.167  17.938  0.00  0.00    +0.000 C 
ATOM     17  C   UNL     1      -0.542  11.212  18.377  0.00  0.00    +0.000 A 
ATOM     18  C   UNL     1      -0.980  12.548  18.335  0.00  0.00    +0.000 A 
ATOM     19  C   UNL     1      -0.133  13.557  18.751  0.00  0.00    +0.000 A 
ATOM     20  N   UNL     1       1.120  13.338  19.182  0.00  0.00    +0.000 NA
ATOM     21  C   UNL     1       1.536  12.047  19.190  0.00  0.00    +0.000 A 
ATOM     22  C   UNL     1       0.778  10.927  18.810  0.00  0.00    +0.000 A 
ENDBRANCH   1  22
TORSDOF 1
ENDMDL
MODEL 8
REMARK VINA RESULT:      -8.0      0.968      1.558
REMARK  Name = 
REMARK  3 active torsions:
REMARK  status: ('A' for Active; 'I' for Inactive)
REMARK    1  A    between atoms: C_1  and  C_2
REMARK    2  A    between atoms: C_7  and  C_8
REMARK    3  A    between atoms: C_20  and  C_21
REMARK                            x       y       z     vdW  Elec       q    Type
REMARK                         _______ _______ _______ _____ _____    ______ ____
ROOT
ATOM      1  C   UNL     1       1.752   7.906  19.592  0.00  0.00    +0.000 A 
ATOM      2  C   UNL     1       2.564   7.650  18.480  0.00  0.00    +0.000 A 
ATOM      3  C   UNL     1       2.983   6.363  18.140  0.00  0.00    +0.000 A 
ATOM      4  F   UNL     1       3.613   6.249  16.971  0.00  0.00    +0.000 F 
ATOM      5  C   UNL     1       2.695   5.277  18.954  0.00  0.00    +0.000 A 
ATOM      6  C   UNL     1       1.952   5.506  20.133  0.00  0.00    +0.000 A 
ATOM      7  C   UNL     1       1.480   6.804  20.427  0.00  0.00    +0.000 A 
ATOM      8  C   UNL     1       1.738   4.392  21.138  0.00  0.00    +0.000 C 
ATOM      9  C   UNL     1       1.567   3.044  20.448  0.00  0.00    +0.000 C 
ATOM     10  C   UNL     1       2.592   2.867  19.390  0.00  0.00    +0.000 A 
ATOM     11  N   UNL     1       3.097   1.743  18.951  0.00  0.00    +0.000 NA
ATOM     12  N   UNL     1       3.944   2.048  17.928  0.00  0.00    +0.000 NA
ATOM     13  C   UNL     1       3.944   3.358  17.750  0.00  0.00    +0.000 A 
ATOM     14  C   UNL     1       4.788   4.027  16.738  0.00  0.00    +0.000 C 
ATOM     15  N   UNL     1       3.088   3.941  18.672  0.00  0.00    +0.000 N 
ENDROOT
BRANCH   1  22
ATOM     16  C   UNL     1       1.224   9.037  22.453  0.00  0.00    +0.000 C 
ATOM     17  C   UNL     1       0.972   9.789  21.171  0.00  0.00    +0.000 A 
ATOM     18  C   UNL     1       0.457  11.092  21.303  0.00  0.00    +0.000 A 
ATOM     19  C   UNL     1       0.230  11.852  20.172  0.00  0.00    +0.000 A 
ATOM     20  N   UNL     1       0.455  11.407  18.925  0.00  0.00    +0.000 NA
ATOM     21  C   UNL     1       0.925  10.140  18.815  0.00  0.00    +0.000 A 
ATOM     22  C   UNL     1       1.213   9.265  19.876  0.00  0.00    +0.000 A 
ENDBRANCH   1  22
TORSDOF 1
ENDMDL
MODEL 9
REMARK VINA RESULT:      -7.9      2.981      7.085
REMARK  Name = 
REMARK  3 active torsions:
REMARK  status: ('A' for Active; 'I' for Inactive)
REMARK    1  A    between atoms: C_1  and  C_2
REMARK    2  A    between atoms: C_7  and  C_8
REMARK    3  A    between atoms: C_20  and  C_21
REMARK                            x       y       z     vdW  Elec       q    Type
REMARK                         _______ _______ _______ _____ _____    ______ ____
ROOT
ATOM      1  C   UNL     1       5.397   4.778  15.642  0.00  0.00    +0.000 A 
ATOM      2  C   UNL     1       4.938   5.959  16.240  0.00  0.00    +0.000 A 
ATOM      3  C   UNL     1       4.205   5.960  17.428  0.00  0.00    +0.000 A 
ATOM      4  F   UNL     1       3.976   7.158  17.966  0.00  0.00    +0.000 F 
ATOM      5  C   UNL     1       3.804   4.773  18.023  0.00  0.00    +0.000 A 
ATOM      6  C   UNL     1       4.170   3.559  17.403  0.00  0.00    +0.000 A 
ATOM      7  C   UNL     1       4.968   3.576  16.239  0.00  0.00    +0.000 A 
ATOM      8  C   UNL     1       3.634   2.238  17.918  0.00  0.00    +0.000 C 
ATOM      9  C   UNL     1       3.505   2.243  19.436  0.00  0.00    +0.000 C 
ATOM     10  C   UNL     1       2.873   3.502  19.901  0.00  0.00    +0.000 A 
ATOM     11  N   UNL     1       2.155   3.681  20.979  0.00  0.00    +0.000 NA
ATOM     12  N   UNL     1       1.844   5.006  21.048  0.00  0.00    +0.000 NA
ATOM     13  C   UNL     1       2.382   5.624  20.009  0.00  0.00    +0.000 A 
ATOM     14  C   UNL     1       2.204   7.070  19.760  0.00  0.00    +0.000 C 
ATOM     15  N   UNL     1       3.057   4.698  19.230  0.00  0.00    +0.000 N 
ENDROOT
BRANCH   1  22
ATOM     16  C   UNL     1       4.773   3.296  12.966  0.00  0.00    +0.000 C 
ATOM     17  C   UNL     1       6.004   4.128  13.222  0.00  0.00    +0.000 A 
ATOM     18  C   UNL     1       6.925   4.223  12.162  0.00  0.00    +0.000 A 
ATOM     19  C   UNL     1       8.062   4.993  12.314  0.00  0.00    +0.000 A 
ATOM     20  N   UNL     1       8.360   5.654  13.443  0.00  0.00    +0.000 NA
ATOM     21  C   UNL     1       7.476   5.531  14.464  0.00  0.00    +0.000 A 
ATOM     22  C   UNL     1       6.279   4.795  14.443  0.00  0.00    +0.000 A 
ENDBRANCH   1  22
TORSDOF 1
ENDMDL
