MODEL 1
REMARK VINA RESULT:      -7.4      0.000      0.000
REMARK  Name = 
REMARK  4 active torsions:
REMARK  status: ('A' for Active; 'I' for Inactive)
REMARK    1  A    between atoms: C_1  and  S_2
REMARK    2  A    between atoms: S_2  and  C_3
REMARK    3  A    between atoms: C_7  and  N_8
REMARK    4  A    between atoms: C_11  and  C_12
REMARK                            x       y       z     vdW  Elec       q    Type
REMARK                         _______ _______ _______ _____ _____    ______ ____
ROOT
ATOM      1  N   UNL     1       2.528   6.118  20.330  0.00  0.00    +0.000 N 
ATOM      2  C   UNL     1       3.310   5.265  19.619  0.00  0.00    +0.000 A 
ATOM      3  N   UNL     1       4.073   5.562  18.591  0.00  0.00    +0.000 NA
ATOM      4  C   UNL     1       4.617   4.429  18.024  0.00  0.00    +0.000 A 
ATOM      5  C   UNL     1       4.292   3.251  18.662  0.00  0.00    +0.000 A 
ATOM      6  S   UNL     1       3.309   3.584  20.026  0.00  0.00    +0.000 S 
ATOM      7  H   UNL     1       1.954   5.693  21.047  0.00  0.00    +0.000 HD
ENDROOT
BRANCH   1  12
ATOM      8  C   UNL     1       0.970   9.535  20.228  0.00  0.00    +0.000 A 
ATOM      9  C   UNL     1       1.219   9.879  18.899  0.00  0.00    +0.000 A 
ATOM     10  C   UNL     1       1.855   8.973  18.054  0.00  0.00    +0.000 A 
ATOM     11  C   UNL     1       2.259   7.726  18.535  0.00  0.00    +0.000 A 
ATOM     12  C   UNL     1       2.034   7.361  19.872  0.00  0.00    +0.000 A 
ATOM     13  C   UNL     1       1.353   8.272  20.692  0.00  0.00    +0.000 A 
BRANCH   8  15
ATOM     14  C   UNL     1      -0.270   9.610  22.682  0.00  0.00    +0.000 C 
ATOM     15  S   UNL     1       0.162  10.709  21.303  0.00  0.00    +0.000 S 
ENDBRANCH   8  15
ENDBRANCH   1  12
BRANCH   4  16
ATOM     16  C   UNL     1       5.464   4.537  16.793  0.00  0.00    +0.000 A 
ATOM     17  C   UNL     1       5.103   3.969  15.587  0.00  0.00    +0.000 A 
ATOM     18  C   UNL     1       6.084   4.180  14.581  0.00  0.00    +0.000 A 
ATOM     19 CL   UNL     1       5.921   3.588  12.988  0.00  0.00    +0.000 Cl
ATOM     20  C   UNL     1       7.157   4.903  15.047  0.00  0.00    +0.000 A 
ATOM     21  S   UNL     1       6.968   5.338  16.692  0.00  0.00    +0.000 S 
ENDBRANCH   4  16
TORSDOF 3
ENDMDL
MODEL 2
REMARK VINA RESULT:      -7.0      3.861      7.643
REMARK  Name = 
REMARK  4 active torsions:
REMARK  status: ('A' for Active; 'I' for Inactive)
REMARK    1  A    between atoms: C_1  and  S_2
REMARK    2  A    between atoms: S_2  and  C_3
REMARK    3  A    between atoms: C_7  and  N_8
REMARK    4  A    between atoms: C_11  and  C_12
REMARK                            x       y       z     vdW  Elec       q    Type
REMARK                         _______ _______ _______ _____ _____    ______ ____
ROOT
ATOM      1  N   UNL     1       1.633   7.983  21.022  0.00  0.00    +0.000 N 
ATOM      2  C   UNL     1       0.811   9.021  20.721  0.00  0.00    +0.000 A 
ATOM      3  N   UNL     1      -0.095   9.063  19.770  0.00  0.00    +0.000 NA
ATOM      4  C   UNL     1      -0.649  10.321  19.657  0.00  0.00    +0.000 A 
ATOM      5  C   UNL     1      -0.182  11.242  20.571  0.00  0.00    +0.000 A 
ATOM      6  S   UNL     1       0.953  10.494  21.616  0.00  0.00    +0.000 S 
ATOM      7  H   UNL     1       2.317   8.161  21.745  0.00  0.00    +0.000 HD
ENDROOT
BRANCH   1  12
ATOM      8  C   UNL     1       2.019   4.589  19.459  0.00  0.00    +0.000 A 
ATOM      9  C   UNL     1       2.630   4.940  18.256  0.00  0.00    +0.000 A 
ATOM     10  C   UNL     1       2.939   6.274  17.996  0.00  0.00    +0.000 A 
ATOM     11  C   UNL     1       2.626   7.262  18.930  0.00  0.00    +0.000 A 
ATOM     12  C   UNL     1       1.997   6.938  20.143  0.00  0.00    +0.000 A 
ATOM     13  C   UNL     1       1.736   5.584  20.401  0.00  0.00    +0.000 A 
BRANCH   8  15
ATOM     14  C   UNL     1       1.625   2.896  21.591  0.00  0.00    +0.000 C 
ATOM     15  S   UNL     1       1.622   2.877  19.775  0.00  0.00    +0.000 S 
ENDBRANCH   8  15
ENDBRANCH   1  12
BRANCH   4  16
ATOM     16  C   UNL     1      -1.654  10.605  18.584  0.00  0.00    +0.000 A 
ATOM     17  C   UNL     1      -1.598  10.020  17.334  0.00  0.00    +0.000 A 
ATOM     18  C   UNL     1      -2.640  10.475  16.482  0.00  0.00    +0.000 A 
ATOM     19 CL   UNL     1      -2.824   9.936  14.872  0.00  0.00    +0.000 Cl
ATOM     20  C   UNL     1      -3.460  11.386  17.107  0.00  0.00    +0.000 A 
ATOM     21  S   UNL     1      -2.976  11.676  18.723  0.00  0.00    +0.000 S 
ENDBRANCH   4  16
TORSDOF 3
ENDMDL
MODEL 3
REMARK VINA RESULT:      -7.0      3.242      7.368
REMARK  Name = 
REMARK  4 active torsions:
REMARK  status: ('A' for Active; 'I' for Inactive)
REMARK    1  A    between atoms: C_1  and  S_2
REMARK    2  A    between atoms: S_2  and  C_3
REMARK    3  A    between atoms: C_7  and  N_8
REMARK    4  A    between atoms: C_11  and  C_12
REMARK                            x       y       z     vdW  Elec       q    Type
REMARK                         _______ _______ _______ _____ _____    ______ ____
ROOT
ATOM      1  N   UNL     1       3.947   3.843  18.909  0.00  0.00    +0.000 N 
ATOM      2  C   UNL     1       3.107   4.785  19.408  0.00  0.00    +0.000 A 
ATOM      3  N   UNL     1       2.882   5.984  18.919  0.00  0.00    +0.000 NA
ATOM      4  C   UNL     1       2.078   6.728  19.756  0.00  0.00    +0.000 A 
ATOM      5  C   UNL     1       1.650   6.064  20.886  0.00  0.00    +0.000 A 
ATOM      6  S   UNL     1       2.246   4.456  20.872  0.00  0.00    +0.000 S 
ATOM      7  H   UNL     1       4.043   3.003  19.464  0.00  0.00    +0.000 HD
ENDROOT
BRANCH   1  12
ATOM      8  C   UNL     1       6.094   4.221  15.849  0.00  0.00    +0.000 A 
ATOM      9  C   UNL     1       7.251   4.748  16.424  0.00  0.00    +0.000 A 
ATOM     10  C   UNL     1       7.320   4.932  17.804  0.00  0.00    +0.000 A 
ATOM     11  C   UNL     1       6.230   4.604  18.612  0.00  0.00    +0.000 A 
ATOM     12  C   UNL     1       5.048   4.088  18.057  0.00  0.00    +0.000 A 
ATOM     13  C   UNL     1       5.018   3.870  16.673  0.00  0.00    +0.000 A 
BRANCH   8  15
ATOM     14  C   UNL     1       7.443   5.005  13.585  0.00  0.00    +0.000 C 
ATOM     15  S   UNL     1       6.015   3.999  14.080  0.00  0.00    +0.000 S 
ENDBRANCH   8  15
ENDBRANCH   1  12
BRANCH   4  16
ATOM     16  C   UNL     1       1.756   8.152  19.420  0.00  0.00    +0.000 A 
ATOM     17  C   UNL     1       1.126   9.004  20.306  0.00  0.00    +0.000 A 
ATOM     18  C   UNL     1       0.900  10.290  19.744  0.00  0.00    +0.000 A 
ATOM     19 CL   UNL     1       0.133  11.553  20.598  0.00  0.00    +0.000 Cl
ATOM     20  C   UNL     1       1.367  10.380  18.453  0.00  0.00    +0.000 A 
ATOM     21  S   UNL     1       2.089   8.918  17.932  0.00  0.00    +0.000 S 
ENDBRANCH   4  16
TORSDOF 3
ENDMDL
MODEL 4
REMARK VINA RESULT:      -6.8      4.165      8.203
REMARK  Name = 
REMARK  4 active torsions:
REMARK  status: ('A' for Active; 'I' for Inactive)
REMARK    1  A    between atoms: C_1  and  S_2
REMARK    2  A    between atoms: S_2  and  C_3
REMARK    3  A    between atoms: C_7  and  N_8
REMARK    4  A    between atoms: C_11  and  C_12
REMARK                            x       y       z     vdW  Elec       q    Type
REMARK                         _______ _______ _______ _____ _____    ______ ____
ROOT
ATOM      1  N   UNL     1       1.019   9.476  20.716  0.00  0.00    +0.000 N 
ATOM      2  C   UNL     1       0.003  10.276  20.303  0.00  0.00    +0.000 A 
ATOM      3  N   UNL     1      -0.855  10.032  19.338  0.00  0.00    +0.000 NA
ATOM      4  C   UNL     1      -1.664  11.121  19.095  0.00  0.00    +0.000 A 
ATOM      5  C   UNL     1      -1.442  12.201  19.923  0.00  0.00    +0.000 A 
ATOM      6  S   UNL     1      -0.211  11.820  21.054  0.00  0.00    +0.000 S 
ATOM      7  H   UNL     1       1.622   9.865  21.430  0.00  0.00    +0.000 HD
ENDROOT
BRANCH   1  12
ATOM      8  C   UNL     1       2.376   6.156  19.598  0.00  0.00    +0.000 A 
ATOM      9  C   UNL     1       2.733   6.465  18.286  0.00  0.00    +0.000 A 
ATOM     10  C   UNL     1       2.559   7.761  17.805  0.00  0.00    +0.000 A 
ATOM     11  C   UNL     1       2.016   8.749  18.628  0.00  0.00    +0.000 A 
ATOM     12  C   UNL     1       1.634   8.461  19.948  0.00  0.00    +0.000 A 
ATOM     13  C   UNL     1       1.858   7.161  20.423  0.00  0.00    +0.000 A 
BRANCH   8  15
ATOM     14  C   UNL     1       3.438   3.759  18.766  0.00  0.00    +0.000 C 
ATOM     15  S   UNL     1       2.595   4.489  20.199  0.00  0.00    +0.000 S 
ENDBRANCH   8  15
ENDBRANCH   1  12
BRANCH   4  16
ATOM     16  C   UNL     1      -2.667  11.079  17.983  0.00  0.00    +0.000 A 
ATOM     17  C   UNL     1      -2.368  10.590  16.727  0.00  0.00    +0.000 A 
ATOM     18  C   UNL     1      -3.473  10.688  15.838  0.00  0.00    +0.000 A 
ATOM     19 CL   UNL     1      -3.403  10.170  14.212  0.00  0.00    +0.000 Cl
ATOM     20  C   UNL     1      -4.577  11.242  16.442  0.00  0.00    +0.000 A 
ATOM     21  S   UNL     1      -4.280  11.627  18.083  0.00  0.00    +0.000 S 
ENDBRANCH   4  16
TORSDOF 3
ENDMDL
MODEL 5
REMARK VINA RESULT:      -6.7      3.746      7.682
REMARK  Name = 
REMARK  4 active torsions:
REMARK  status: ('A' for Active; 'I' for Inactive)
REMARK    1  A    between atoms: C_1  and  S_2
REMARK    2  A    between atoms: S_2  and  C_3
REMARK    3  A    between atoms: C_7  and  N_8
REMARK    4  A    between atoms: C_11  and  C_12
REMARK                            x       y       z     vdW  Elec       q    Type
REMARK                         _______ _______ _______ _____ _____    ______ ____
ROOT
ATOM      1  N   UNL     1       1.787   7.430  21.078  0.00  0.00    +0.000 N 
ATOM      2  C   UNL     1       1.009   8.531  20.918  0.00  0.00    +0.000 A 
ATOM      3  N   UNL     1       0.150   8.759  19.950  0.00  0.00    +0.000 NA
ATOM      4  C   UNL     1      -0.364  10.037  20.022  0.00  0.00    +0.000 A 
ATOM      5  C   UNL     1       0.086  10.780  21.093  0.00  0.00    +0.000 A 
ATOM      6  S   UNL     1       1.150   9.834  22.048  0.00  0.00    +0.000 S 
ATOM      7  H   UNL     1       2.442   7.465  21.849  0.00  0.00    +0.000 HD
ENDROOT
BRANCH   1  12
ATOM      8  C   UNL     1       2.148   4.324  18.996  0.00  0.00    +0.000 A 
ATOM      9  C   UNL     1       2.827   4.844  17.895  0.00  0.00    +0.000 A 
ATOM     10  C   UNL     1       3.188   6.190  17.872  0.00  0.00    +0.000 A 
ATOM     11  C   UNL     1       2.859   7.024  18.942  0.00  0.00    +0.000 A 
ATOM     12  C   UNL     1       2.162   6.530  20.056  0.00  0.00    +0.000 A 
ATOM     13  C   UNL     1       1.849   5.163  20.075  0.00  0.00    +0.000 A 
BRANCH   8  15
ATOM     14  C   UNL     1       3.053   1.911  18.035  0.00  0.00    +0.000 C 
ATOM     15  S   UNL     1       1.684   2.601  19.008  0.00  0.00    +0.000 S 
ENDBRANCH   8  15
ENDBRANCH   1  12
BRANCH   4  16
ATOM     16  C   UNL     1      -1.310  10.527  18.969  0.00  0.00    +0.000 A 
ATOM     17  C   UNL     1      -1.404   9.944  17.720  0.00  0.00    +0.000 A 
ATOM     18  C   UNL     1      -2.346  10.609  16.889  0.00  0.00    +0.000 A 
ATOM     19 CL   UNL     1      -2.674  10.121  15.286  0.00  0.00    +0.000 Cl
ATOM     20  C   UNL     1      -2.943  11.670  17.529  0.00  0.00    +0.000 A 
ATOM     21  S   UNL     1      -2.375  11.851  19.133  0.00  0.00    +0.000 S 
ENDBRANCH   4  16
TORSDOF 3
ENDMDL
MODEL 6
REMARK VINA RESULT:      -6.7      3.233      7.484
REMARK  Name = 
REMARK  4 active torsions:
REMARK  status: ('A' for Active; 'I' for Inactive)
REMARK    1  A    between atoms: C_1  and  S_2
REMARK    2  A    between atoms: S_2  and  C_3
REMARK    3  A    between atoms: C_7  and  N_8
REMARK    4  A    between atoms: C_11  and  C_12
REMARK                            x       y       z     vdW  Elec       q    Type
REMARK                         _______ _______ _______ _____ _____    ______ ____
ROOT
ATOM      1  N   UNL     1       4.394   3.393  18.197  0.00  0.00    +0.000 N 
ATOM      2  C   UNL     1       3.546   4.145  18.945  0.00  0.00    +0.000 A 
ATOM      3  N   UNL     1       3.175   5.384  18.714  0.00  0.00    +0.000 NA
ATOM      4  C   UNL     1       2.417   5.885  19.751  0.00  0.00    +0.000 A 
ATOM      5  C   UNL     1       2.173   4.990  20.772  0.00  0.00    +0.000 A 
ATOM      6  S   UNL     1       2.886   3.477  20.397  0.00  0.00    +0.000 S 
ATOM      7  H   UNL     1       4.617   2.480  18.573  0.00  0.00    +0.000 HD
ENDROOT
BRANCH   1  12
ATOM      8  C   UNL     1       6.293   4.211  15.061  0.00  0.00    +0.000 A 
ATOM      9  C   UNL     1       7.274   5.056  15.580  0.00  0.00    +0.000 A 
ATOM     10  C   UNL     1       7.319   5.310  16.949  0.00  0.00    +0.000 A 
ATOM     11  C   UNL     1       6.376   4.733  17.803  0.00  0.00    +0.000 A 
ATOM     12  C   UNL     1       5.369   3.891  17.304  0.00  0.00    +0.000 A 
ATOM     13  C   UNL     1       5.371   3.615  15.929  0.00  0.00    +0.000 A 
BRANCH   8  15
ATOM     14  C   UNL     1       7.583   5.000  12.763  0.00  0.00    +0.000 C 
ATOM     15  S   UNL     1       6.242   3.901  13.304  0.00  0.00    +0.000 S 
ENDBRANCH   8  15
ENDBRANCH   1  12
BRANCH   4  16
ATOM     16  C   UNL     1       1.950   7.308  19.722  0.00  0.00    +0.000 A 
ATOM     17  C   UNL     1       1.359   7.921  20.810  0.00  0.00    +0.000 A 
ATOM     18  C   UNL     1       0.972   9.259  20.524  0.00  0.00    +0.000 A 
ATOM     19 CL   UNL     1       0.209  10.268  21.672  0.00  0.00    +0.000 Cl
ATOM     20  C   UNL     1       1.283   9.625  19.236  0.00  0.00    +0.000 A 
ATOM     21  S   UNL     1       2.054   8.358  18.381  0.00  0.00    +0.000 S 
ENDBRANCH   4  16
TORSDOF 3
ENDMDL
MODEL 7
REMARK VINA RESULT:      -6.7      3.108      4.404
REMARK  Name = 
REMARK  4 active torsions:
REMARK  status: ('A' for Active; 'I' for Inactive)
REMARK    1  A    between atoms: C_1  and  S_2
REMARK    2  A    between atoms: S_2  and  C_3
REMARK    3  A    between atoms: C_7  and  N_8
REMARK    4  A    between atoms: C_11  and  C_12
REMARK                            x       y       z     vdW  Elec       q    Type
REMARK                         _______ _______ _______ _____ _____    ______ ____
ROOT
ATOM      1  N   UNL     1       2.295   8.865  17.766  0.00  0.00    +0.000 N 
ATOM      2  C   UNL     1       2.787   7.600  17.793  0.00  0.00    +0.000 A 
ATOM      3  N   UNL     1       2.200   6.534  18.289  0.00  0.00    +0.000 NA
ATOM      4  C   UNL     1       3.043   5.442  18.276  0.00  0.00    +0.000 A 
ATOM      5  C   UNL     1       4.283   5.677  17.719  0.00  0.00    +0.000 A 
ATOM      6  S   UNL     1       4.372   7.298  17.170  0.00  0.00    +0.000 S 
ATOM      7  H   UNL     1       2.924   9.572  17.406  0.00  0.00    +0.000 HD
ENDROOT
BRANCH   1  12
ATOM      8  C   UNL     1       0.311   9.754  20.830  0.00  0.00    +0.000 A 
ATOM      9  C   UNL     1      -0.663  10.575  20.262  0.00  0.00    +0.000 A 
ATOM     10  C   UNL     1      -0.675  10.791  18.886  0.00  0.00    +0.000 A 
ATOM     11  C   UNL     1       0.293  10.198  18.073  0.00  0.00    +0.000 A 
ATOM     12  C   UNL     1       1.294   9.380  18.621  0.00  0.00    +0.000 A 
ATOM     13  C   UNL     1       1.260   9.142  20.002  0.00  0.00    +0.000 A 
BRANCH   8  15
ATOM     14  C   UNL     1      -1.023  10.616  23.075  0.00  0.00    +0.000 C 
ATOM     15  S   UNL     1       0.321   9.493  22.596  0.00  0.00    +0.000 S 
ENDBRANCH   8  15
ENDBRANCH   1  12
BRANCH   4  16
ATOM     16  C   UNL     1       2.594   4.139  18.863  0.00  0.00    +0.000 A 
ATOM     17  C   UNL     1       2.198   4.011  20.180  0.00  0.00    +0.000 A 
ATOM     18  C   UNL     1       1.852   2.672  20.506  0.00  0.00    +0.000 A 
ATOM     19 CL   UNL     1       1.332   2.202  22.064  0.00  0.00    +0.000 Cl
ATOM     20  C   UNL     1       1.989   1.824  19.432  0.00  0.00    +0.000 A 
ATOM     21  S   UNL     1       2.520   2.651  18.030  0.00  0.00    +0.000 S 
ENDBRANCH   4  16
TORSDOF 3
ENDMDL
MODEL 8
REMARK VINA RESULT:      -6.7      3.244      7.522
REMARK  Name = 
REMARK  4 active torsions:
REMARK  status: ('A' for Active; 'I' for Inactive)
REMARK    1  A    between atoms: C_1  and  S_2
REMARK    2  A    between atoms: S_2  and  C_3
REMARK    3  A    between atoms: C_7  and  N_8
REMARK    4  A    between atoms: C_11  and  C_12
REMARK                            x       y       z     vdW  Elec       q    Type
REMARK                         _______ _______ _______ _____ _____    ______ ____
ROOT
ATOM      1  N   UNL     1       4.742   3.269  17.293  0.00  0.00    +0.000 N 
ATOM      2  C   UNL     1       3.961   3.960  18.163  0.00  0.00    +0.000 A 
ATOM      3  N   UNL     1       3.506   5.184  18.017  0.00  0.00    +0.000 NA
ATOM      4  C   UNL     1       2.863   5.622  19.156  0.00  0.00    +0.000 A 
ATOM      5  C   UNL     1       2.793   4.693  20.172  0.00  0.00    +0.000 A 
ATOM      6  S   UNL     1       3.523   3.226  19.667  0.00  0.00    +0.000 S 
ATOM      7  H   UNL     1       5.054   2.360  17.610  0.00  0.00    +0.000 HD
ENDROOT
BRANCH   1  12
ATOM      8  C   UNL     1       6.377   4.027  13.996  0.00  0.00    +0.000 A 
ATOM      9  C   UNL     1       7.148   5.133  14.353  0.00  0.00    +0.000 A 
ATOM     10  C   UNL     1       7.149   5.584  15.671  0.00  0.00    +0.000 A 
ATOM     11  C   UNL     1       6.369   4.942  16.634  0.00  0.00    +0.000 A 
ATOM     12  C   UNL     1       5.571   3.837  16.299  0.00  0.00    +0.000 A 
ATOM     13  C   UNL     1       5.621   3.374  14.976  0.00  0.00    +0.000 A 
BRANCH   8  15
ATOM     14  C   UNL     1       4.588   3.364  12.014  0.00  0.00    +0.000 C 
ATOM     15  S   UNL     1       6.378   3.464  12.302  0.00  0.00    +0.000 S 
ENDBRANCH   8  15
ENDBRANCH   1  12
BRANCH   4  16
ATOM     16  C   UNL     1       2.330   7.020  19.228  0.00  0.00    +0.000 A 
ATOM     17  C   UNL     1       1.752   7.540  20.369  0.00  0.00    +0.000 A 
ATOM     18  C   UNL     1       1.294   8.872  20.178  0.00  0.00    +0.000 A 
ATOM     19 CL   UNL     1       0.528   9.774  21.409  0.00  0.00    +0.000 Cl
ATOM     20  C   UNL     1       1.540   9.326  18.903  0.00  0.00    +0.000 A 
ATOM     21  S   UNL     1       2.336   8.149  17.949  0.00  0.00    +0.000 S 
ENDBRANCH   4  16
TORSDOF 3
ENDMDL
MODEL 9
REMARK VINA RESULT:      -6.7      3.323      7.637
REMARK  Name = 
REMARK  4 active torsions:
REMARK  status: ('A' for Active; 'I' for Inactive)
REMARK    1  A    between atoms: C_1  and  S_2
REMARK    2  A    between atoms: S_2  and  C_3
REMARK    3  A    between atoms: C_7  and  N_8
REMARK    4  A    between atoms: C_11  and  C_12
REMARK                            x       y       z     vdW  Elec       q    Type
REMARK                         _______ _______ _______ _____ _____    ______ ____
ROOT
ATOM      1  N   UNL     1       1.924   6.974  21.025  0.00  0.00    +0.000 N 
ATOM      2  C   UNL     1       1.211   8.129  20.991  0.00  0.00    +0.000 A 
ATOM      3  N   UNL     1       0.373   8.514  20.056  0.00  0.00    +0.000 NA
ATOM      4  C   UNL     1      -0.067   9.803  20.272  0.00  0.00    +0.000 A 
ATOM      5  C   UNL     1       0.417  10.393  21.421  0.00  0.00    +0.000 A 
ATOM      6  S   UNL     1       1.420   9.285  22.262  0.00  0.00    +0.000 S 
ATOM      7  H   UNL     1       2.576   6.883  21.794  0.00  0.00    +0.000 HD
ENDROOT
BRANCH   1  12
ATOM      8  C   UNL     1       3.568   5.691  17.900  0.00  0.00    +0.000 A 
ATOM      9  C   UNL     1       2.951   4.445  17.791  0.00  0.00    +0.000 A 
ATOM     10  C   UNL     1       1.982   4.065  18.718  0.00  0.00    +0.000 A 
ATOM     11  C   UNL     1       1.637   4.922  19.765  0.00  0.00    +0.000 A 
ATOM     12  C   UNL     1       2.254   6.175  19.906  0.00  0.00    +0.000 A 
ATOM     13  C   UNL     1       3.193   6.553  18.936  0.00  0.00    +0.000 A 
BRANCH   8  15
ATOM     14  C   UNL     1       5.282   4.517  16.097  0.00  0.00    +0.000 C 
ATOM     15  S   UNL     1       4.813   6.161  16.710  0.00  0.00    +0.000 S 
ENDBRANCH   8  15
ENDBRANCH   1  12
BRANCH   4  16
ATOM     16  C   UNL     1      -0.977  10.463  19.283  0.00  0.00    +0.000 A 
ATOM     17  C   UNL     1      -1.208   9.948  18.022  0.00  0.00    +0.000 A 
ATOM     18  C   UNL     1      -2.079  10.772  17.259  0.00  0.00    +0.000 A 
ATOM     19 CL   UNL     1      -2.542  10.398  15.658  0.00  0.00    +0.000 Cl
ATOM     20  C   UNL     1      -2.488  11.883  17.959  0.00  0.00    +0.000 A 
ATOM     21  S   UNL     1      -1.831  11.918  19.540  0.00  0.00    +0.000 S 
ENDBRANCH   4  16
TORSDOF 3
ENDMDL
