MODEL 1
REMARK VINA RESULT:      -7.3      0.000      0.000
REMARK  Name = 
REMARK  1 active torsions:
REMARK  status: ('A' for Active; 'I' for Inactive)
REMARK    1  A    between atoms: C_2  and  C_3
REMARK                            x       y       z     vdW  Elec       q    Type
REMARK                         _______ _______ _______ _____ _____    ______ ____
ROOT
ATOM      1  C   UNL     1       3.188   5.179  18.872  0.00  0.00    +0.000 C 
ATOM      2  C   UNL     1       2.643   4.107  19.782  0.00  0.00    +0.000 A 
ATOM      3  C   UNL     1       2.913   2.741  19.598  0.00  0.00    +0.000 A 
ATOM      4  C   UNL     1       2.500   1.807  20.548  0.00  0.00    +0.000 A 
ATOM      5  C   UNL     1       1.841   2.229  21.699  0.00  0.00    +0.000 A 
ATOM      6  C   UNL     1       1.588   3.587  21.904  0.00  0.00    +0.000 A 
ATOM      7  C   UNL     1       1.985   4.521  20.945  0.00  0.00    +0.000 A 
ATOM      8  O   UNL     1       1.727   5.844  21.235  0.00  0.00    +0.000 OA
ATOM      9  C   UNL     1       1.857   6.774  20.227  0.00  0.00    +0.000 A 
ATOM     10  C   UNL     1       1.394   8.060  20.506  0.00  0.00    +0.000 A 
ATOM     11  C   UNL     1       1.485   9.062  19.539  0.00  0.00    +0.000 A 
ATOM     12  C   UNL     1       2.030   8.775  18.289  0.00  0.00    +0.000 A 
ATOM     13  C   UNL     1       2.528   7.499  18.020  0.00  0.00    +0.000 A 
ATOM     14  C   UNL     1       2.456   6.491  18.993  0.00  0.00    +0.000 A 
ENDROOT
BRANCH   1  16
ATOM     15  O   UNL     1       2.680   4.197  16.787  0.00  0.00    +0.000 OA
ATOM     16  C   UNL     1       3.566   4.727  17.472  0.00  0.00    +0.000 C 
ATOM     17  N   UNL     1       4.840   4.871  16.962  0.00  0.00    +0.000 N 
ATOM     18  C   UNL     1       5.006   4.617  15.535  0.00  0.00    +0.000 C 
ATOM     19  C   UNL     1       5.134   6.057  15.016  0.00  0.00    +0.000 C 
ATOM     20  C   UNL     1       5.804   6.845  16.158  0.00  0.00    +0.000 C 
ATOM     21  C   UNL     1       5.894   5.830  17.312  0.00  0.00    +0.000 C 
ATOM     22  C   UNL     1       7.272   5.122  17.240  0.00  0.00    +0.000 C 
ATOM     23  C   UNL     1       7.489   4.377  15.912  0.00  0.00    +0.000 C 
ATOM     24  F   UNL     1       7.895   5.271  14.964  0.00  0.00    +0.000 F 
ATOM     25  C   UNL     1       6.223   3.704  15.405  0.00  0.00    +0.000 C 
ENDBRANCH   1  16
TORSDOF 1
ENDMDL
MODEL 2
REMARK VINA RESULT:      -7.0      8.970     10.098
REMARK  Name = 
REMARK  1 active torsions:
REMARK  status: ('A' for Active; 'I' for Inactive)
REMARK    1  A    between atoms: C_2  and  C_3
REMARK                            x       y       z     vdW  Elec       q    Type
REMARK                         _______ _______ _______ _____ _____    ______ ____
ROOT
ATOM      1  C   UNL     1       8.309  14.509  21.559  0.00  0.00    +0.000 C 
ATOM      2  C   UNL     1       7.828  13.384  22.442  0.00  0.00    +0.000 A 
ATOM      3  C   UNL     1       8.702  12.530  23.134  0.00  0.00    +0.000 A 
ATOM      4  C   UNL     1       8.204  11.598  24.044  0.00  0.00    +0.000 A 
ATOM      5  C   UNL     1       6.836  11.528  24.290  0.00  0.00    +0.000 A 
ATOM      6  C   UNL     1       5.959  12.387  23.625  0.00  0.00    +0.000 A 
ATOM      7  C   UNL     1       6.455  13.309  22.700  0.00  0.00    +0.000 A 
ATOM      8  O   UNL     1       5.529  14.142  22.110  0.00  0.00    +0.000 OA
ATOM      9  C   UNL     1       5.918  14.882  21.015  0.00  0.00    +0.000 A 
ATOM     10  C   UNL     1       4.905  15.552  20.328  0.00  0.00    +0.000 A 
ATOM     11  C   UNL     1       5.212  16.322  19.205  0.00  0.00    +0.000 A 
ATOM     12  C   UNL     1       6.530  16.414  18.763  0.00  0.00    +0.000 A 
ATOM     13  C   UNL     1       7.549  15.774  19.470  0.00  0.00    +0.000 A 
ATOM     14  C   UNL     1       7.252  15.013  20.610  0.00  0.00    +0.000 A 
ENDROOT
BRANCH   1  16
ATOM     15  O   UNL     1      10.619  14.990  21.579  0.00  0.00    +0.000 OA
ATOM     16  C   UNL     1       9.716  14.360  21.009  0.00  0.00    +0.000 C 
ATOM     17  N   UNL     1      10.007  13.576  19.912  0.00  0.00    +0.000 N 
ATOM     18  C   UNL     1      11.420  13.334  19.638  0.00  0.00    +0.000 C 
ATOM     19  C   UNL     1      11.546  11.883  20.127  0.00  0.00    +0.000 C 
ATOM     20  C   UNL     1      10.168  11.243  19.868  0.00  0.00    +0.000 C 
ATOM     21  C   UNL     1       9.300  12.412  19.368  0.00  0.00    +0.000 C 
ATOM     22  C   UNL     1       9.367  12.450  17.819  0.00  0.00    +0.000 C 
ATOM     23  C   UNL     1      10.799  12.641  17.292  0.00  0.00    +0.000 C 
ATOM     24  F   UNL     1      11.437  11.434  17.293  0.00  0.00    +0.000 F 
ATOM     25  C   UNL     1      11.615  13.600  18.146  0.00  0.00    +0.000 C 
ENDBRANCH   1  16
TORSDOF 1
ENDMDL
MODEL 3
REMARK VINA RESULT:      -7.0      0.561      3.663
REMARK  Name = 
REMARK  1 active torsions:
REMARK  status: ('A' for Active; 'I' for Inactive)
REMARK    1  A    between atoms: C_2  and  C_3
REMARK                            x       y       z     vdW  Elec       q    Type
REMARK                         _______ _______ _______ _____ _____    ______ ____
ROOT
ATOM      1  C   UNL     1       2.372   4.800  18.442  0.00  0.00    +0.000 C 
ATOM      2  C   UNL     1       2.239   6.270  18.755  0.00  0.00    +0.000 A 
ATOM      3  C   UNL     1       2.350   7.271  17.776  0.00  0.00    +0.000 A 
ATOM      4  C   UNL     1       2.079   8.601  18.094  0.00  0.00    +0.000 A 
ATOM      5  C   UNL     1       1.671   8.940  19.380  0.00  0.00    +0.000 A 
ATOM      6  C   UNL     1       1.535   7.951  20.356  0.00  0.00    +0.000 A 
ATOM      7  C   UNL     1       1.823   6.620  20.044  0.00  0.00    +0.000 A 
ATOM      8  O   UNL     1       1.634   5.700  21.051  0.00  0.00    +0.000 OA
ATOM      9  C   UNL     1       2.142   4.430  20.884  0.00  0.00    +0.000 A 
ATOM     10  C   UNL     1       2.109   3.595  22.002  0.00  0.00    +0.000 A 
ATOM     11  C   UNL     1       2.607   2.295  21.919  0.00  0.00    +0.000 A 
ATOM     12  C   UNL     1       3.148   1.831  20.721  0.00  0.00    +0.000 A 
ATOM     13  C   UNL     1       3.149   2.652  19.593  0.00  0.00    +0.000 A 
ATOM     14  C   UNL     1       2.634   3.954  19.663  0.00  0.00    +0.000 A 
ENDROOT
BRANCH   1  16
ATOM     15  O   UNL     1       2.537   3.917  16.260  0.00  0.00    +0.000 OA
ATOM     16  C   UNL     1       3.156   4.461  17.186  0.00  0.00    +0.000 C 
ATOM     17  N   UNL     1       4.505   4.720  17.058  0.00  0.00    +0.000 N 
ATOM     18  C   UNL     1       5.076   4.565  15.724  0.00  0.00    +0.000 C 
ATOM     19  C   UNL     1       5.226   6.040  15.321  0.00  0.00    +0.000 C 
ATOM     20  C   UNL     1       5.491   6.798  16.636  0.00  0.00    +0.000 C 
ATOM     21  C   UNL     1       5.342   5.722  17.726  0.00  0.00    +0.000 C 
ATOM     22  C   UNL     1       6.739   5.112  18.013  0.00  0.00    +0.000 C 
ATOM     23  C   UNL     1       7.371   4.467  16.768  0.00  0.00    +0.000 C 
ATOM     24  F   UNL     1       7.949   5.442  16.009  0.00  0.00    +0.000 F 
ATOM     25  C   UNL     1       6.352   3.744  15.901  0.00  0.00    +0.000 C 
ENDBRANCH   1  16
TORSDOF 1
ENDMDL
MODEL 4
REMARK VINA RESULT:      -6.8      9.501     11.462
REMARK  Name = 
REMARK  1 active torsions:
REMARK  status: ('A' for Active; 'I' for Inactive)
REMARK    1  A    between atoms: C_2  and  C_3
REMARK                            x       y       z     vdW  Elec       q    Type
REMARK                         _______ _______ _______ _____ _____    ______ ____
ROOT
ATOM      1  C   UNL     1       8.635  13.429  20.672  0.00  0.00    +0.000 C 
ATOM      2  C   UNL     1       9.843  12.916  19.930  0.00  0.00    +0.000 A 
ATOM      3  C   UNL     1      10.957  12.358  20.578  0.00  0.00    +0.000 A 
ATOM      4  C   UNL     1      11.984  11.773  19.838  0.00  0.00    +0.000 A 
ATOM      5  C   UNL     1      11.896  11.714  18.450  0.00  0.00    +0.000 A 
ATOM      6  C   UNL     1      10.783  12.244  17.795  0.00  0.00    +0.000 A 
ATOM      7  C   UNL     1       9.762  12.847  18.534  0.00  0.00    +0.000 A 
ATOM      8  O   UNL     1       8.682  13.317  17.818  0.00  0.00    +0.000 OA
ATOM      9  C   UNL     1       7.781  14.141  18.455  0.00  0.00    +0.000 A 
ATOM     10  C   UNL     1       6.823  14.755  17.648  0.00  0.00    +0.000 A 
ATOM     11  C   UNL     1       5.874  15.608  18.213  0.00  0.00    +0.000 A 
ATOM     12  C   UNL     1       5.889  15.855  19.584  0.00  0.00    +0.000 A 
ATOM     13  C   UNL     1       6.823  15.213  20.399  0.00  0.00    +0.000 A 
ATOM     14  C   UNL     1       7.769  14.341  19.841  0.00  0.00    +0.000 A 
ENDROOT
BRANCH   1  16
ATOM     15  O   UNL     1       9.784  14.635  22.344  0.00  0.00    +0.000 OA
ATOM     16  C   UNL     1       8.870  13.829  22.119  0.00  0.00    +0.000 C 
ATOM     17  N   UNL     1       8.124  13.321  23.162  0.00  0.00    +0.000 N 
ATOM     18  C   UNL     1       8.293  13.964  24.461  0.00  0.00    +0.000 C 
ATOM     19  C   UNL     1       6.990  14.775  24.534  0.00  0.00    +0.000 C 
ATOM     20  C   UNL     1       5.950  13.946  23.755  0.00  0.00    +0.000 C 
ATOM     21  C   UNL     1       6.762  12.776  23.172  0.00  0.00    +0.000 C 
ATOM     22  C   UNL     1       6.695  11.586  24.163  0.00  0.00    +0.000 C 
ATOM     23  C   UNL     1       7.262  11.934  25.549  0.00  0.00    +0.000 C 
ATOM     24  F   UNL     1       6.305  12.591  26.268  0.00  0.00    +0.000 F 
ATOM     25  C   UNL     1       8.485  12.835  25.472  0.00  0.00    +0.000 C 
ENDBRANCH   1  16
TORSDOF 1
ENDMDL
MODEL 5
REMARK VINA RESULT:      -6.7      1.220      1.632
REMARK  Name = 
REMARK  1 active torsions:
REMARK  status: ('A' for Active; 'I' for Inactive)
REMARK    1  A    between atoms: C_2  and  C_3
REMARK                            x       y       z     vdW  Elec       q    Type
REMARK                         _______ _______ _______ _____ _____    ______ ____
ROOT
ATOM      1  C   UNL     1       2.952   6.512  19.100  0.00  0.00    +0.000 C 
ATOM      2  C   UNL     1       2.451   5.119  19.389  0.00  0.00    +0.000 A 
ATOM      3  C   UNL     1       2.948   3.979  18.737  0.00  0.00    +0.000 A 
ATOM      4  C   UNL     1       2.551   2.705  19.141  0.00  0.00    +0.000 A 
ATOM      5  C   UNL     1       1.678   2.557  20.215  0.00  0.00    +0.000 A 
ATOM      6  C   UNL     1       1.195   3.682  20.887  0.00  0.00    +0.000 A 
ATOM      7  C   UNL     1       1.578   4.959  20.471  0.00  0.00    +0.000 A 
ATOM      8  O   UNL     1       1.084   6.016  21.204  0.00  0.00    +0.000 OA
ATOM      9  C   UNL     1       1.214   7.288  20.691  0.00  0.00    +0.000 A 
ATOM     10  C   UNL     1       0.526   8.301  21.360  0.00  0.00    +0.000 A 
ATOM     11  C   UNL     1       0.602   9.617  20.905  0.00  0.00    +0.000 A 
ATOM     12  C   UNL     1       1.357   9.920  19.773  0.00  0.00    +0.000 A 
ATOM     13  C   UNL     1       2.075   8.915  19.124  0.00  0.00    +0.000 A 
ATOM     14  C   UNL     1       2.019   7.592  19.586  0.00  0.00    +0.000 A 
ENDROOT
BRANCH   1  16
ATOM     15  O   UNL     1       3.049   7.524  16.969  0.00  0.00    +0.000 OA
ATOM     16  C   UNL     1       3.590   6.714  17.737  0.00  0.00    +0.000 C 
ATOM     17  N   UNL     1       4.716   6.027  17.334  0.00  0.00    +0.000 N 
ATOM     18  C   UNL     1       5.359   6.487  16.106  0.00  0.00    +0.000 C 
ATOM     19  C   UNL     1       6.577   7.215  16.694  0.00  0.00    +0.000 C 
ATOM     20  C   UNL     1       6.920   6.457  17.991  0.00  0.00    +0.000 C 
ATOM     21  C   UNL     1       5.789   5.422  18.130  0.00  0.00    +0.000 C 
ATOM     22  C   UNL     1       6.243   4.101  17.457  0.00  0.00    +0.000 C 
ATOM     23  C   UNL     1       6.566   4.276  15.963  0.00  0.00    +0.000 C 
ATOM     24  F   UNL     1       7.830   4.777  15.840  0.00  0.00    +0.000 F 
ATOM     25  C   UNL     1       5.615   5.237  15.267  0.00  0.00    +0.000 C 
ENDBRANCH   1  16
TORSDOF 1
ENDMDL
MODEL 6
REMARK VINA RESULT:      -6.7      3.173      6.488
REMARK  Name = 
REMARK  1 active torsions:
REMARK  status: ('A' for Active; 'I' for Inactive)
REMARK    1  A    between atoms: C_2  and  C_3
REMARK                            x       y       z     vdW  Elec       q    Type
REMARK                         _______ _______ _______ _____ _____    ______ ____
ROOT
ATOM      1  C   UNL     1       5.353   4.367  16.504  0.00  0.00    +0.000 C 
ATOM      2  C   UNL     1       5.847   4.201  15.088  0.00  0.00    +0.000 A 
ATOM      3  C   UNL     1       5.249   3.324  14.169  0.00  0.00    +0.000 A 
ATOM      4  C   UNL     1       5.656   3.314  12.836  0.00  0.00    +0.000 A 
ATOM      5  C   UNL     1       6.643   4.195  12.402  0.00  0.00    +0.000 A 
ATOM      6  C   UNL     1       7.229   5.088  13.301  0.00  0.00    +0.000 A 
ATOM      7  C   UNL     1       6.834   5.087  14.641  0.00  0.00    +0.000 A 
ATOM      8  O   UNL     1       7.436   6.019  15.458  0.00  0.00    +0.000 OA
ATOM      9  C   UNL     1       7.281   5.894  16.821  0.00  0.00    +0.000 A 
ATOM     10  C   UNL     1       8.068   6.731  17.615  0.00  0.00    +0.000 A 
ATOM     11  C   UNL     1       7.975   6.666  19.005  0.00  0.00    +0.000 A 
ATOM     12  C   UNL     1       7.103   5.758  19.604  0.00  0.00    +0.000 A 
ATOM     13  C   UNL     1       6.289   4.947  18.812  0.00  0.00    +0.000 A 
ATOM     14  C   UNL     1       6.364   5.018  17.413  0.00  0.00    +0.000 A 
ENDROOT
BRANCH   1  16
ATOM     15  O   UNL     1       4.989   2.056  16.822  0.00  0.00    +0.000 OA
ATOM     16  C   UNL     1       4.568   3.196  17.069  0.00  0.00    +0.000 C 
ATOM     17  N   UNL     1       3.422   3.362  17.818  0.00  0.00    +0.000 N 
ATOM     18  C   UNL     1       2.906   2.176  18.495  0.00  0.00    +0.000 C 
ATOM     19  C   UNL     1       3.337   2.479  19.938  0.00  0.00    +0.000 C 
ATOM     20  C   UNL     1       3.303   4.015  20.061  0.00  0.00    +0.000 C 
ATOM     21  C   UNL     1       2.983   4.498  18.635  0.00  0.00    +0.000 C 
ATOM     22  C   UNL     1       1.446   4.660  18.502  0.00  0.00    +0.000 C 
ATOM     23  C   UNL     1       0.686   3.347  18.758  0.00  0.00    +0.000 C 
ATOM     24  F   UNL     1       0.554   3.167  20.105  0.00  0.00    +0.000 F 
ATOM     25  C   UNL     1       1.409   2.133  18.195  0.00  0.00    +0.000 C 
ENDBRANCH   1  16
TORSDOF 1
ENDMDL
MODEL 7
REMARK VINA RESULT:      -6.6      9.485     11.715
REMARK  Name = 
REMARK  1 active torsions:
REMARK  status: ('A' for Active; 'I' for Inactive)
REMARK    1  A    between atoms: C_2  and  C_3
REMARK                            x       y       z     vdW  Elec       q    Type
REMARK                         _______ _______ _______ _____ _____    ______ ____
ROOT
ATOM      1  C   UNL     1       8.917  14.588  20.376  0.00  0.00    +0.000 C 
ATOM      2  C   UNL     1       7.611  14.718  19.632  0.00  0.00    +0.000 A 
ATOM      3  C   UNL     1       6.532  15.479  20.112  0.00  0.00    +0.000 A 
ATOM      4  C   UNL     1       5.402  15.679  19.320  0.00  0.00    +0.000 A 
ATOM      5  C   UNL     1       5.349  15.145  18.035  0.00  0.00    +0.000 A 
ATOM      6  C   UNL     1       6.425  14.406  17.539  0.00  0.00    +0.000 A 
ATOM      7  C   UNL     1       7.550  14.190  18.338  0.00  0.00    +0.000 A 
ATOM      8  O   UNL     1       8.581  13.479  17.765  0.00  0.00    +0.000 OA
ATOM      9  C   UNL     1       9.592  13.018  18.579  0.00  0.00    +0.000 A 
ATOM     10  C   UNL     1      10.504  12.135  17.998  0.00  0.00    +0.000 A 
ATOM     11  C   UNL     1      11.556  11.618  18.754  0.00  0.00    +0.000 A 
ATOM     12  C   UNL     1      11.692  11.976  20.094  0.00  0.00    +0.000 A 
ATOM     13  C   UNL     1      10.804  12.887  20.667  0.00  0.00    +0.000 A 
ATOM     14  C   UNL     1       9.753  13.424  19.909  0.00  0.00    +0.000 A 
ENDROOT
BRANCH   1  16
ATOM     15  O   UNL     1       9.305  15.910  22.292  0.00  0.00    +0.000 OA
ATOM     16  C   UNL     1       8.851  14.835  21.873  0.00  0.00    +0.000 C 
ATOM     17  N   UNL     1       8.329  13.914  22.757  0.00  0.00    +0.000 N 
ATOM     18  C   UNL     1       8.109  14.371  24.125  0.00  0.00    +0.000 C 
ATOM     19  C   UNL     1       6.581  14.536  24.113  0.00  0.00    +0.000 C 
ATOM     20  C   UNL     1       6.063  13.469  23.130  0.00  0.00    +0.000 C 
ATOM     21  C   UNL     1       7.343  12.850  22.539  0.00  0.00    +0.000 C 
ATOM     22  C   UNL     1       7.730  11.612  23.389  0.00  0.00    +0.000 C 
ATOM     23  C   UNL     1       7.989  11.962  24.864  0.00  0.00    +0.000 C 
ATOM     24  F   UNL     1       6.793  12.040  25.517  0.00  0.00    +0.000 F 
ATOM     25  C   UNL     1       8.701  13.295  25.033  0.00  0.00    +0.000 C 
ENDBRANCH   1  16
TORSDOF 1
ENDMDL
MODEL 8
REMARK VINA RESULT:      -6.5      7.499     11.007
REMARK  Name = 
REMARK  1 active torsions:
REMARK  status: ('A' for Active; 'I' for Inactive)
REMARK    1  A    between atoms: C_2  and  C_3
REMARK                            x       y       z     vdW  Elec       q    Type
REMARK                         _______ _______ _______ _____ _____    ______ ____
ROOT
ATOM      1  C   UNL     1       1.982  15.223  19.157  0.00  0.00    +0.000 C 
ATOM      2  C   UNL     1       3.425  15.546  19.455  0.00  0.00    +0.000 A 
ATOM      3  C   UNL     1       4.215  14.777  20.324  0.00  0.00    +0.000 A 
ATOM      4  C   UNL     1       5.579  15.037  20.455  0.00  0.00    +0.000 A 
ATOM      5  C   UNL     1       6.170  16.047  19.701  0.00  0.00    +0.000 A 
ATOM      6  C   UNL     1       5.400  16.803  18.816  0.00  0.00    +0.000 A 
ATOM      7  C   UNL     1       4.030  16.555  18.697  0.00  0.00    +0.000 A 
ATOM      8  O   UNL     1       3.345  17.322  17.780  0.00  0.00    +0.000 OA
ATOM      9  C   UNL     1       1.968  17.303  17.807  0.00  0.00    +0.000 A 
ATOM     10  C   UNL     1       1.318  18.242  17.004  0.00  0.00    +0.000 A 
ATOM     11  C   UNL     1      -0.076  18.293  16.975  0.00  0.00    +0.000 A 
ATOM     12  C   UNL     1      -0.821  17.412  17.756  0.00  0.00    +0.000 A 
ATOM     13  C   UNL     1      -0.174  16.449  18.532  0.00  0.00    +0.000 A 
ATOM     14  C   UNL     1       1.227  16.379  18.553  0.00  0.00    +0.000 A 
ENDROOT
BRANCH   1  16
ATOM     15  O   UNL     1       1.087  14.925  21.321  0.00  0.00    +0.000 OA
ATOM     16  C   UNL     1       1.259  14.401  20.210  0.00  0.00    +0.000 C 
ATOM     17  N   UNL     1       0.816  13.116  19.976  0.00  0.00    +0.000 N 
ATOM     18  C   UNL     1      -0.066  12.535  20.983  0.00  0.00    +0.000 C 
ATOM     19  C   UNL     1      -1.415  12.639  20.255  0.00  0.00    +0.000 C 
ATOM     20  C   UNL     1      -1.083  12.498  18.757  0.00  0.00    +0.000 C 
ATOM     21  C   UNL     1       0.456  12.457  18.716  0.00  0.00    +0.000 C 
ATOM     22  C   UNL     1       0.912  10.975  18.766  0.00  0.00    +0.000 C 
ATOM     23  C   UNL     1       0.434  10.250  20.036  0.00  0.00    +0.000 C 
ATOM     24  F   UNL     1      -0.859   9.850  19.858  0.00  0.00    +0.000 F 
ATOM     25  C   UNL     1       0.481  11.138  21.270  0.00  0.00    +0.000 C 
ENDBRANCH   1  16
TORSDOF 1
ENDMDL
MODEL 9
REMARK VINA RESULT:      -6.5     10.079     12.406
REMARK  Name = 
REMARK  1 active torsions:
REMARK  status: ('A' for Active; 'I' for Inactive)
REMARK    1  A    between atoms: C_2  and  C_3
REMARK                            x       y       z     vdW  Elec       q    Type
REMARK                         _______ _______ _______ _____ _____    ______ ____
ROOT
ATOM      1  C   UNL     1       8.706  14.920  18.604  0.00  0.00    +0.000 C 
ATOM      2  C   UNL     1       9.551  13.695  18.357  0.00  0.00    +0.000 A 
ATOM      3  C   UNL     1       9.171  12.410  18.776  0.00  0.00    +0.000 A 
ATOM      4  C   UNL     1       9.919  11.295  18.399  0.00  0.00    +0.000 A 
ATOM      5  C   UNL     1      11.034  11.450  17.581  0.00  0.00    +0.000 A 
ATOM      6  C   UNL     1      11.409  12.720  17.139  0.00  0.00    +0.000 A 
ATOM      7  C   UNL     1      10.670  13.839  17.530  0.00  0.00    +0.000 A 
ATOM      8  O   UNL     1      11.085  15.053  17.026  0.00  0.00    +0.000 OA
ATOM      9  C   UNL     1      10.564  16.204  17.576  0.00  0.00    +0.000 A 
ATOM     10  C   UNL     1      11.156  17.404  17.182  0.00  0.00    +0.000 A 
ATOM     11  C   UNL     1      10.691  18.616  17.694  0.00  0.00    +0.000 A 
ATOM     12  C   UNL     1       9.640  18.627  18.609  0.00  0.00    +0.000 A 
ATOM     13  C   UNL     1       9.022  17.431  18.977  0.00  0.00    +0.000 A 
ATOM     14  C   UNL     1       9.472  16.210  18.453  0.00  0.00    +0.000 A 
ENDROOT
BRANCH   1  16
ATOM     15  O   UNL     1       6.528  14.726  19.490  0.00  0.00    +0.000 OA
ATOM     16  C   UNL     1       7.732  14.827  19.765  0.00  0.00    +0.000 C 
ATOM     17  N   UNL     1       8.140  14.868  21.083  0.00  0.00    +0.000 N 
ATOM     18  C   UNL     1       7.137  14.530  22.088  0.00  0.00    +0.000 C 
ATOM     19  C   UNL     1       7.601  13.117  22.470  0.00  0.00    +0.000 C 
ATOM     20  C   UNL     1       9.132  13.127  22.289  0.00  0.00    +0.000 C 
ATOM     21  C   UNL     1       9.429  14.511  21.684  0.00  0.00    +0.000 C 
ATOM     22  C   UNL     1       9.745  15.497  22.839  0.00  0.00    +0.000 C 
ATOM     23  C   UNL     1       8.582  15.636  23.836  0.00  0.00    +0.000 C 
ATOM     24  F   UNL     1       8.623  14.591  24.713  0.00  0.00    +0.000 F 
ATOM     25  C   UNL     1       7.222  15.620  23.155  0.00  0.00    +0.000 C 
ENDBRANCH   1  16
TORSDOF 1
ENDMDL
