MODEL 1
REMARK VINA RESULT:      -7.7      0.000      0.000
REMARK  Name = 
REMARK  9 active torsions:
REMARK  status: ('A' for Active; 'I' for Inactive)
REMARK    1  A    between atoms: C_1  and  C_2
REMARK    2  A    between atoms: C_5  and  N_6
REMARK    3  A    between atoms: N_6  and  C_7
REMARK    4  A    between atoms: N_15  and  C1*_16
REMARK    5  A    between atoms: C4*_18  and  C5*_19
REMARK    6  A    between atoms: C5*_19  and  O5*_20
REMARK    7  A    between atoms: C3*_21  and  O3*_22
REMARK    8  A    between atoms: C2*_23  and  O2*_24
REMARK    9  A    between atoms: C_25  and  C_26
REMARK                            x       y       z     vdW  Elec       q    Type
REMARK                         _______ _______ _______ _____ _____    ______ ____
ROOT
ATOM      1  C   UNL     1       0.827   9.488  19.471  0.00  0.00    +0.000 A 
ATOM      2  N   UNL     1       0.499   9.060  20.725  0.00  0.00    +0.000 NA
ATOM      3  C   UNL     1       1.068   7.945  21.210  0.00  0.00    +0.000 A 
ATOM      4  N   UNL     1       1.969   7.151  20.608  0.00  0.00    +0.000 NA
ATOM      5  C   UNL     1       2.250   7.585  19.371  0.00  0.00    +0.000 A 
ATOM      6  C   UNL     1       1.732   8.702  18.735  0.00  0.00    +0.000 A 
ATOM      7  N   UNL     1       2.271   8.837  17.470  0.00  0.00    +0.000 NA
ATOM      8  C   UNL     1       3.109   7.826  17.354  0.00  0.00    +0.000 A 
ATOM      9  N   UNL     1       3.143   7.052  18.485  0.00  0.00    +0.000 N 
ENDROOT
BRANCH   9  10
ATOM     10  C1* UNL     1       4.032   5.930  18.714  0.00  0.00    +0.000 C 
ATOM     11  O4* UNL     1       5.199   6.063  17.874  0.00  0.00    +0.000 OA
ATOM     12  C4* UNL     1       5.510   4.764  17.306  0.00  0.00    +0.000 C 
ATOM     13  C3* UNL     1       4.626   3.746  18.021  0.00  0.00    +0.000 C 
ATOM     14  C2* UNL     1       3.408   4.561  18.439  0.00  0.00    +0.000 C 
BRANCH  13  15
ATOM     15  O3* UNL     1       5.243   3.243  19.222  0.00  0.00    +0.000 OA
ATOM     16  H3* UNL     1       4.976   3.800  19.975  0.00  0.00    +0.000 HD
ENDBRANCH  13  15
BRANCH  14  17
ATOM     17  O2* UNL     1       2.781   4.006  19.596  0.00  0.00    +0.000 OA
ATOM     18  H2* UNL     1       1.909   4.450  19.672  0.00  0.00    +0.000 HD
ENDBRANCH  14  17
BRANCH  12  19
ATOM     19  C5* UNL     1       5.284   4.798  15.793  0.00  0.00    +0.000 C 
BRANCH  19  20
ATOM     20  O5* UNL     1       5.533   6.108  15.292  0.00  0.00    +0.000 OA
ATOM     21  H5* UNL     1       6.281   6.460  15.814  0.00  0.00    +0.000 HD
ENDBRANCH  19  20
ENDBRANCH  12  19
ENDBRANCH   9  10
BRANCH   1  22
ATOM     22  N   UNL     1       0.284  10.681  18.960  0.00  0.00    +0.000 N 
ATOM     23  H   UNL     1       0.641  11.483  19.477  0.00  0.00    +0.000 HD
BRANCH  22  28
ATOM     24  C   UNL     1      -5.175  11.339  17.308  0.00  0.00    +0.000 C 
ATOM     25  C   UNL     1      -3.755  11.148  17.748  0.00  0.00    +0.000 A 
ATOM     26  C   UNL     1      -2.915  10.263  17.079  0.00  0.00    +0.000 A 
ATOM     27  C   UNL     1      -1.586  10.117  17.486  0.00  0.00    +0.000 A 
ATOM     28  C   UNL     1      -1.058  10.860  18.553  0.00  0.00    +0.000 A 
ATOM     29  C   UNL     1      -1.911  11.732  19.253  0.00  0.00    +0.000 A 
ATOM     30  C   UNL     1      -1.445  12.575  20.409  0.00  0.00    +0.000 C 
ATOM     31  C   UNL     1      -3.249  11.872  18.835  0.00  0.00    +0.000 A 
ENDBRANCH  22  28
ENDBRANCH   1  22
TORSDOF 7
ENDMDL
MODEL 2
REMARK VINA RESULT:      -7.4      5.699      8.621
REMARK  Name = 
REMARK  9 active torsions:
REMARK  status: ('A' for Active; 'I' for Inactive)
REMARK    1  A    between atoms: C_1  and  C_2
REMARK    2  A    between atoms: C_5  and  N_6
REMARK    3  A    between atoms: N_6  and  C_7
REMARK    4  A    between atoms: N_15  and  C1*_16
REMARK    5  A    between atoms: C4*_18  and  C5*_19
REMARK    6  A    between atoms: C5*_19  and  O5*_20
REMARK    7  A    between atoms: C3*_21  and  O3*_22
REMARK    8  A    between atoms: C2*_23  and  O2*_24
REMARK    9  A    between atoms: C_25  and  C_26
REMARK                            x       y       z     vdW  Elec       q    Type
REMARK                         _______ _______ _______ _____ _____    ______ ____
ROOT
ATOM      1  C   UNL     1       6.828   5.431  16.584  0.00  0.00    +0.000 A 
ATOM      2  N   UNL     1       7.861   5.386  17.476  0.00  0.00    +0.000 NA
ATOM      3  C   UNL     1       7.616   5.037  18.750  0.00  0.00    +0.000 A 
ATOM      4  N   UNL     1       6.438   4.699  19.299  0.00  0.00    +0.000 NA
ATOM      5  C   UNL     1       5.442   4.777  18.404  0.00  0.00    +0.000 A 
ATOM      6  C   UNL     1       5.541   5.136  17.069  0.00  0.00    +0.000 A 
ATOM      7  N   UNL     1       4.303   5.086  16.458  0.00  0.00    +0.000 NA
ATOM      8  C   UNL     1       3.477   4.690  17.406  0.00  0.00    +0.000 A 
ATOM      9  N   UNL     1       4.124   4.474  18.595  0.00  0.00    +0.000 N 
ENDROOT
BRANCH   9  10
ATOM     10  C1* UNL     1       3.521   3.939  19.800  0.00  0.00    +0.000 C 
ATOM     11  O4* UNL     1       3.231   2.537  19.609  0.00  0.00    +0.000 OA
ATOM     12  C4* UNL     1       1.916   2.259  20.158  0.00  0.00    +0.000 C 
ATOM     13  C3* UNL     1       1.487   3.504  20.928  0.00  0.00    +0.000 C 
ATOM     14  C2* UNL     1       2.226   4.634  20.223  0.00  0.00    +0.000 C 
BRANCH  13  15
ATOM     15  O3* UNL     1       1.939   3.478  22.295  0.00  0.00    +0.000 OA
ATOM     16  H3* UNL     1       1.565   4.242  22.769  0.00  0.00    +0.000 HD
ENDBRANCH  13  15
BRANCH  14  17
ATOM     17  O2* UNL     1       2.460   5.734  21.102  0.00  0.00    +0.000 OA
ATOM     18  H2* UNL     1       1.576   6.043  21.395  0.00  0.00    +0.000 HD
ENDBRANCH  14  17
BRANCH  12  19
ATOM     19  C5* UNL     1       0.955   1.890  19.026  0.00  0.00    +0.000 C 
BRANCH  19  20
ATOM     20  O5* UNL     1       1.675   1.734  17.806  0.00  0.00    +0.000 OA
ATOM     21  H5* UNL     1       2.618   1.672  18.055  0.00  0.00    +0.000 HD
ENDBRANCH  19  20
ENDBRANCH  12  19
ENDBRANCH   9  10
BRANCH   1  22
ATOM     22  N   UNL     1       7.067   5.744  15.234  0.00  0.00    +0.000 N 
ATOM     23  H   UNL     1       6.727   6.681  15.021  0.00  0.00    +0.000 HD
BRANCH  22  28
ATOM     24  C   UNL     1       6.323   2.148  10.820  0.00  0.00    +0.000 C 
ATOM     25  C   UNL     1       6.499   3.097  11.966  0.00  0.00    +0.000 A 
ATOM     26  C   UNL     1       5.728   2.972  13.118  0.00  0.00    +0.000 A 
ATOM     27  C   UNL     1       5.924   3.849  14.189  0.00  0.00    +0.000 A 
ATOM     28  C   UNL     1       6.901   4.855  14.146  0.00  0.00    +0.000 A 
ATOM     29  C   UNL     1       7.660   5.006  12.972  0.00  0.00    +0.000 A 
ATOM     30  C   UNL     1       8.733   6.050  12.824  0.00  0.00    +0.000 C 
ATOM     31  C   UNL     1       7.455   4.117  11.899  0.00  0.00    +0.000 A 
ENDBRANCH  22  28
ENDBRANCH   1  22
TORSDOF 7
ENDMDL
MODEL 3
REMARK VINA RESULT:      -7.3      0.585      1.489
REMARK  Name = 
REMARK  9 active torsions:
REMARK  status: ('A' for Active; 'I' for Inactive)
REMARK    1  A    between atoms: C_1  and  C_2
REMARK    2  A    between atoms: C_5  and  N_6
REMARK    3  A    between atoms: N_6  and  C_7
REMARK    4  A    between atoms: N_15  and  C1*_16
REMARK    5  A    between atoms: C4*_18  and  C5*_19
REMARK    6  A    between atoms: C5*_19  and  O5*_20
REMARK    7  A    between atoms: C3*_21  and  O3*_22
REMARK    8  A    between atoms: C2*_23  and  O2*_24
REMARK    9  A    between atoms: C_25  and  C_26
REMARK                            x       y       z     vdW  Elec       q    Type
REMARK                         _______ _______ _______ _____ _____    ______ ____
ROOT
ATOM      1  C   UNL     1       0.826   9.559  19.427  0.00  0.00    +0.000 A 
ATOM      2  N   UNL     1       0.474   9.137  20.676  0.00  0.00    +0.000 NA
ATOM      3  C   UNL     1       1.017   8.012  21.169  0.00  0.00    +0.000 A 
ATOM      4  N   UNL     1       1.914   7.204  20.579  0.00  0.00    +0.000 NA
ATOM      5  C   UNL     1       2.219   7.633  19.346  0.00  0.00    +0.000 A 
ATOM      6  C   UNL     1       1.729   8.758  18.703  0.00  0.00    +0.000 A 
ATOM      7  N   UNL     1       2.287   8.884  17.446  0.00  0.00    +0.000 NA
ATOM      8  C   UNL     1       3.110   7.860  17.341  0.00  0.00    +0.000 A 
ATOM      9  N   UNL     1       3.116   7.086  18.472  0.00  0.00    +0.000 N 
ENDROOT
BRANCH   9  10
ATOM     10  C1* UNL     1       3.983   5.949  18.714  0.00  0.00    +0.000 C 
ATOM     11  O4* UNL     1       5.168   6.069  17.898  0.00  0.00    +0.000 OA
ATOM     12  C4* UNL     1       5.471   4.768  17.329  0.00  0.00    +0.000 C 
ATOM     13  C3* UNL     1       4.558   3.760  18.022  0.00  0.00    +0.000 C 
ATOM     14  C2* UNL     1       3.345   4.591  18.419  0.00  0.00    +0.000 C 
BRANCH  13  15
ATOM     15  O3* UNL     1       5.143   3.242  19.232  0.00  0.00    +0.000 OA
ATOM     16  H3* UNL     1       5.442   3.985  19.785  0.00  0.00    +0.000 HD
ENDBRANCH  13  15
BRANCH  14  17
ATOM     17  O2* UNL     1       2.686   4.040  19.560  0.00  0.00    +0.000 OA
ATOM     18  H2* UNL     1       2.401   3.137  19.302  0.00  0.00    +0.000 HD
ENDBRANCH  14  17
BRANCH  12  19
ATOM     19  C5* UNL     1       5.276   4.813  15.812  0.00  0.00    +0.000 C 
BRANCH  19  20
ATOM     20  O5* UNL     1       5.589   6.112  15.319  0.00  0.00    +0.000 OA
ATOM     21  H5* UNL     1       6.426   6.372  15.751  0.00  0.00    +0.000 HD
ENDBRANCH  19  20
ENDBRANCH  12  19
ENDBRANCH   9  10
BRANCH   1  22
ATOM     22  N   UNL     1       0.310  10.760  18.908  0.00  0.00    +0.000 N 
ATOM     23  H   UNL     1       0.996  11.508  18.994  0.00  0.00    +0.000 HD
BRANCH  22  28
ATOM     24  C   UNL     1      -5.039  12.719  19.634  0.00  0.00    +0.000 C 
ATOM     25  C   UNL     1      -3.637  12.227  19.436  0.00  0.00    +0.000 A 
ATOM     26  C   UNL     1      -2.618  12.615  20.301  0.00  0.00    +0.000 A 
ATOM     27  C   UNL     1      -1.321  12.125  20.119  0.00  0.00    +0.000 A 
ATOM     28  C   UNL     1      -1.014  11.226  19.086  0.00  0.00    +0.000 A 
ATOM     29  C   UNL     1      -2.032  10.856  18.189  0.00  0.00    +0.000 A 
ATOM     30  C   UNL     1      -1.808   9.898  17.052  0.00  0.00    +0.000 C 
ATOM     31  C   UNL     1      -3.335  11.355  18.382  0.00  0.00    +0.000 A 
ENDBRANCH  22  28
ENDBRANCH   1  22
TORSDOF 7
ENDMDL
MODEL 4
REMARK VINA RESULT:      -7.3      4.500      8.651
REMARK  Name = 
REMARK  9 active torsions:
REMARK  status: ('A' for Active; 'I' for Inactive)
REMARK    1  A    between atoms: C_1  and  C_2
REMARK    2  A    between atoms: C_5  and  N_6
REMARK    3  A    between atoms: N_6  and  C_7
REMARK    4  A    between atoms: N_15  and  C1*_16
REMARK    5  A    between atoms: C4*_18  and  C5*_19
REMARK    6  A    between atoms: C5*_19  and  O5*_20
REMARK    7  A    between atoms: C3*_21  and  O3*_22
REMARK    8  A    between atoms: C2*_23  and  O2*_24
REMARK    9  A    between atoms: C_25  and  C_26
REMARK                            x       y       z     vdW  Elec       q    Type
REMARK                         _______ _______ _______ _____ _____    ______ ____
ROOT
ATOM      1  C   UNL     1       1.831   8.328  19.645  0.00  0.00    +0.000 A 
ATOM      2  N   UNL     1       1.910   8.706  18.336  0.00  0.00    +0.000 NA
ATOM      3  C   UNL     1       1.284   9.825  17.934  0.00  0.00    +0.000 A 
ATOM      4  N   UNL     1       0.559  10.675  18.679  0.00  0.00    +0.000 NA
ATOM      5  C   UNL     1       0.481  10.262  19.953  0.00  0.00    +0.000 A 
ATOM      6  C   UNL     1       1.056   9.129  20.504  0.00  0.00    +0.000 A 
ATOM      7  N   UNL     1       0.770   9.043  21.853  0.00  0.00    +0.000 NA
ATOM      8  C   UNL     1       0.046  10.114  22.110  0.00  0.00    +0.000 A 
ATOM      9  N   UNL     1      -0.139  10.890  20.995  0.00  0.00    +0.000 N 
ENDROOT
BRANCH   9  10
ATOM     10  C1* UNL     1      -0.800  12.180  20.965  0.00  0.00    +0.000 C 
ATOM     11  O4* UNL     1      -1.014  12.642  22.316  0.00  0.00    +0.000 OA
ATOM     12  C4* UNL     1      -2.349  13.203  22.407  0.00  0.00    +0.000 C 
ATOM     13  C3* UNL     1      -2.887  13.297  20.982  0.00  0.00    +0.000 C 
ATOM     14  C2* UNL     1      -2.152  12.183  20.248  0.00  0.00    +0.000 C 
BRANCH  13  15
ATOM     15  O3* UNL     1      -2.530  14.541  20.350  0.00  0.00    +0.000 OA
ATOM     16  H3* UNL     1      -3.048  15.262  20.751  0.00  0.00    +0.000 HD
ENDBRANCH  13  15
BRANCH  14  17
ATOM     17  O2* UNL     1      -2.028  12.468  18.855  0.00  0.00    +0.000 OA
ATOM     18  H2* UNL     1      -2.709  13.145  18.653  0.00  0.00    +0.000 HD
ENDBRANCH  14  17
BRANCH  12  19
ATOM     19  C5* UNL     1      -3.212  12.328  23.319  0.00  0.00    +0.000 C 
BRANCH  19  20
ATOM     20  O5* UNL     1      -4.567  12.353  22.880  0.00  0.00    +0.000 OA
ATOM     21  H5* UNL     1      -5.040  12.944  23.498  0.00  0.00    +0.000 HD
ENDBRANCH  19  20
ENDBRANCH  12  19
ENDBRANCH   9  10
BRANCH   1  22
ATOM     22  N   UNL     1       2.519   7.189  20.100  0.00  0.00    +0.000 N 
ATOM     23  H   UNL     1       3.524   7.354  20.090  0.00  0.00    +0.000 HD
BRANCH  22  28
ATOM     24  C   UNL     1       1.126   1.775  18.788  0.00  0.00    +0.000 C 
ATOM     25  C   UNL     1       1.470   3.196  19.122  0.00  0.00    +0.000 A 
ATOM     26  C   UNL     1       0.905   3.823  20.228  0.00  0.00    +0.000 A 
ATOM     27  C   UNL     1       1.258   5.139  20.542  0.00  0.00    +0.000 A 
ATOM     28  C   UNL     1       2.193   5.852  19.775  0.00  0.00    +0.000 A 
ATOM     29  C   UNL     1       2.742   5.233  18.638  0.00  0.00    +0.000 A 
ATOM     30  C   UNL     1       3.753   5.909  17.752  0.00  0.00    +0.000 C 
ATOM     31  C   UNL     1       2.380   3.907  18.331  0.00  0.00    +0.000 A 
ENDBRANCH  22  28
ENDBRANCH   1  22
TORSDOF 7
ENDMDL
MODEL 5
REMARK VINA RESULT:      -7.1      3.407      7.918
REMARK  Name = 
REMARK  9 active torsions:
REMARK  status: ('A' for Active; 'I' for Inactive)
REMARK    1  A    between atoms: C_1  and  C_2
REMARK    2  A    between atoms: C_5  and  N_6
REMARK    3  A    between atoms: N_6  and  C_7
REMARK    4  A    between atoms: N_15  and  C1*_16
REMARK    5  A    between atoms: C4*_18  and  C5*_19
REMARK    6  A    between atoms: C5*_19  and  O5*_20
REMARK    7  A    between atoms: C3*_21  and  O3*_22
REMARK    8  A    between atoms: C2*_23  and  O2*_24
REMARK    9  A    between atoms: C_25  and  C_26
REMARK                            x       y       z     vdW  Elec       q    Type
REMARK                         _______ _______ _______ _____ _____    ______ ____
ROOT
ATOM      1  C   UNL     1       4.042   4.615  19.248  0.00  0.00    +0.000 A 
ATOM      2  N   UNL     1       3.323   4.055  20.264  0.00  0.00    +0.000 NA
ATOM      3  C   UNL     1       2.273   4.720  20.772  0.00  0.00    +0.000 A 
ATOM      4  N   UNL     1       1.798   5.919  20.398  0.00  0.00    +0.000 NA
ATOM      5  C   UNL     1       2.541   6.452  19.417  0.00  0.00    +0.000 A 
ATOM      6  C   UNL     1       3.654   5.895  18.809  0.00  0.00    +0.000 A 
ATOM      7  N   UNL     1       4.145   6.732  17.827  0.00  0.00    +0.000 NA
ATOM      8  C   UNL     1       3.332   7.770  17.834  0.00  0.00    +0.000 A 
ATOM      9  N   UNL     1       2.336   7.637  18.767  0.00  0.00    +0.000 N 
ENDROOT
BRANCH   9  10
ATOM     10  C1* UNL     1       1.228   8.552  18.957  0.00  0.00    +0.000 C 
ATOM     11  O4* UNL     1       1.271   9.574  17.938  0.00  0.00    +0.000 OA
ATOM     12  C4* UNL     1       0.989  10.856  18.558  0.00  0.00    +0.000 C 
ATOM     13  C3* UNL     1       0.523  10.566  19.981  0.00  0.00    +0.000 C 
ATOM     14  C2* UNL     1       1.206   9.247  20.319  0.00  0.00    +0.000 C 
BRANCH  13  15
ATOM     15  O3* UNL     1      -0.899  10.347  20.051  0.00  0.00    +0.000 OA
ATOM     16  H3* UNL     1      -1.240  10.726  20.881  0.00  0.00    +0.000 HD
ENDBRANCH  13  15
BRANCH  14  17
ATOM     17  O2* UNL     1       0.466   8.510  21.294  0.00  0.00    +0.000 OA
ATOM     18  H2* UNL     1       1.019   7.733  21.525  0.00  0.00    +0.000 HD
ENDBRANCH  14  17
BRANCH  12  19
ATOM     19  C5* UNL     1       2.238  11.739  18.502  0.00  0.00    +0.000 C 
BRANCH  19  20
ATOM     20  O5* UNL     1       2.618  11.962  17.147  0.00  0.00    +0.000 OA
ATOM     21  H5* UNL     1       2.393  12.893  16.953  0.00  0.00    +0.000 HD
ENDBRANCH  19  20
ENDBRANCH  12  19
ENDBRANCH   9  10
BRANCH   1  22
ATOM     22  N   UNL     1       5.115   3.917  18.664  0.00  0.00    +0.000 N 
ATOM     23  H   UNL     1       5.843   3.743  19.356  0.00  0.00    +0.000 HD
BRANCH  22  28
ATOM     24  C   UNL     1       7.213   4.936  13.418  0.00  0.00    +0.000 C 
ATOM     25  C   UNL     1       6.651   4.687  14.785  0.00  0.00    +0.000 A 
ATOM     26  C   UNL     1       5.434   4.030  14.945  0.00  0.00    +0.000 A 
ATOM     27  C   UNL     1       4.938   3.781  16.228  0.00  0.00    +0.000 A 
ATOM     28  C   UNL     1       5.647   4.162  17.377  0.00  0.00    +0.000 A 
ATOM     29  C   UNL     1       6.861   4.854  17.221  0.00  0.00    +0.000 A 
ATOM     30  C   UNL     1       7.699   5.303  18.386  0.00  0.00    +0.000 C 
ATOM     31  C   UNL     1       7.353   5.100  15.924  0.00  0.00    +0.000 A 
ENDBRANCH  22  28
ENDBRANCH   1  22
TORSDOF 7
ENDMDL
MODEL 6
REMARK VINA RESULT:      -7.1      3.948      8.568
REMARK  Name = 
REMARK  9 active torsions:
REMARK  status: ('A' for Active; 'I' for Inactive)
REMARK    1  A    between atoms: C_1  and  C_2
REMARK    2  A    between atoms: C_5  and  N_6
REMARK    3  A    between atoms: N_6  and  C_7
REMARK    4  A    between atoms: N_15  and  C1*_16
REMARK    5  A    between atoms: C4*_18  and  C5*_19
REMARK    6  A    between atoms: C5*_19  and  O5*_20
REMARK    7  A    between atoms: C3*_21  and  O3*_22
REMARK    8  A    between atoms: C2*_23  and  O2*_24
REMARK    9  A    between atoms: C_25  and  C_26
REMARK                            x       y       z     vdW  Elec       q    Type
REMARK                         _______ _______ _______ _____ _____    ______ ____
ROOT
ATOM      1  C   UNL     1       2.246   7.336  19.754  0.00  0.00    +0.000 A 
ATOM      2  N   UNL     1       2.496   7.492  18.421  0.00  0.00    +0.000 NA
ATOM      3  C   UNL     1       2.066   8.600  17.796  0.00  0.00    +0.000 A 
ATOM      4  N   UNL     1       1.397   9.637  18.326  0.00  0.00    +0.000 NA
ATOM      5  C   UNL     1       1.146   9.441  19.629  0.00  0.00    +0.000 A 
ATOM      6  C   UNL     1       1.510   8.348  20.398  0.00  0.00    +0.000 A 
ATOM      7  N   UNL     1       1.091   8.509  21.704  0.00  0.00    +0.000 NA
ATOM      8  C   UNL     1       0.498   9.686  21.723  0.00  0.00    +0.000 A 
ATOM      9  N   UNL     1       0.522  10.294  20.494  0.00  0.00    +0.000 N 
ENDROOT
BRANCH   9  10
ATOM     10  C1* UNL     1       0.047  11.633  20.205  0.00  0.00    +0.000 C 
ATOM     11  O4* UNL     1      -0.249  12.315  21.443  0.00  0.00    +0.000 OA
ATOM     12  C4* UNL     1      -1.500  13.035  21.286  0.00  0.00    +0.000 C 
ATOM     13  C3* UNL     1      -1.861  12.975  19.804  0.00  0.00    +0.000 C 
ATOM     14  C2* UNL     1      -1.205  11.685  19.328  0.00  0.00    +0.000 C 
BRANCH  13  15
ATOM     15  O3* UNL     1      -1.274  14.059  19.060  0.00  0.00    +0.000 OA
ATOM     16  H3* UNL     1      -0.689  14.570  19.648  0.00  0.00    +0.000 HD
ENDBRANCH  13  15
BRANCH  14  17
ATOM     17  O2* UNL     1      -0.893  11.741  17.936  0.00  0.00    +0.000 OA
ATOM     18  H2* UNL     1      -1.543  12.357  17.535  0.00  0.00    +0.000 HD
ENDBRANCH  14  17
BRANCH  12  19
ATOM     19  C5* UNL     1      -2.567  12.413  22.190  0.00  0.00    +0.000 C 
BRANCH  19  20
ATOM     20  O5* UNL     1      -1.947  11.661  23.229  0.00  0.00    +0.000 OA
ATOM     21  H5* UNL     1      -2.510  11.776  24.019  0.00  0.00    +0.000 HD
ENDBRANCH  19  20
ENDBRANCH  12  19
ENDBRANCH   9  10
BRANCH   1  22
ATOM     22  N   UNL     1       2.729   6.209  20.442  0.00  0.00    +0.000 N 
ATOM     23  H   UNL     1       3.426   6.485  21.132  0.00  0.00    +0.000 HD
BRANCH  22  28
ATOM     24  C   UNL     1       3.995   1.122  18.097  0.00  0.00    +0.000 C 
ATOM     25  C   UNL     1       3.676   2.445  18.727  0.00  0.00    +0.000 A 
ATOM     26  C   UNL     1       4.615   3.472  18.739  0.00  0.00    +0.000 A 
ATOM     27  C   UNL     1       4.293   4.709  19.305  0.00  0.00    +0.000 A 
ATOM     28  C   UNL     1       3.026   4.957  19.856  0.00  0.00    +0.000 A 
ATOM     29  C   UNL     1       2.084   3.912  19.876  0.00  0.00    +0.000 A 
ATOM     30  C   UNL     1       0.699   4.074  20.440  0.00  0.00    +0.000 C 
ATOM     31  C   UNL     1       2.419   2.670  19.302  0.00  0.00    +0.000 A 
ENDBRANCH  22  28
ENDBRANCH   1  22
TORSDOF 7
ENDMDL
MODEL 7
REMARK VINA RESULT:      -7.1      1.266      2.006
REMARK  Name = 
REMARK  9 active torsions:
REMARK  status: ('A' for Active; 'I' for Inactive)
REMARK    1  A    between atoms: C_1  and  C_2
REMARK    2  A    between atoms: C_5  and  N_6
REMARK    3  A    between atoms: N_6  and  C_7
REMARK    4  A    between atoms: N_15  and  C1*_16
REMARK    5  A    between atoms: C4*_18  and  C5*_19
REMARK    6  A    between atoms: C5*_19  and  O5*_20
REMARK    7  A    between atoms: C3*_21  and  O3*_22
REMARK    8  A    between atoms: C2*_23  and  O2*_24
REMARK    9  A    between atoms: C_25  and  C_26
REMARK                            x       y       z     vdW  Elec       q    Type
REMARK                         _______ _______ _______ _____ _____    ______ ____
ROOT
ATOM      1  C   UNL     1       1.036   9.219  19.713  0.00  0.00    +0.000 A 
ATOM      2  N   UNL     1       0.744   8.619  20.904  0.00  0.00    +0.000 NA
ATOM      3  C   UNL     1       1.236   7.397  21.164  0.00  0.00    +0.000 A 
ATOM      4  N   UNL     1       2.024   6.643  20.380  0.00  0.00    +0.000 NA
ATOM      5  C   UNL     1       2.271   7.250  19.210  0.00  0.00    +0.000 A 
ATOM      6  C   UNL     1       1.821   8.494  18.798  0.00  0.00    +0.000 A 
ATOM      7  N   UNL     1       2.295   8.791  17.535  0.00  0.00    +0.000 NA
ATOM      8  C   UNL     1       3.029   7.749  17.200  0.00  0.00    +0.000 A 
ATOM      9  N   UNL     1       3.058   6.800  18.188  0.00  0.00    +0.000 N 
ENDROOT
BRANCH   9  10
ATOM     10  C1* UNL     1       3.853   5.587  18.172  0.00  0.00    +0.000 C 
ATOM     11  O4* UNL     1       3.004   4.461  17.864  0.00  0.00    +0.000 OA
ATOM     12  C4* UNL     1       3.360   3.360  18.741  0.00  0.00    +0.000 C 
ATOM     13  C3* UNL     1       4.645   3.764  19.457  0.00  0.00    +0.000 C 
ATOM     14  C2* UNL     1       4.575   5.285  19.486  0.00  0.00    +0.000 C 
BRANCH  13  15
ATOM     15  O3* UNL     1       5.820   3.399  18.708  0.00  0.00    +0.000 OA
ATOM     16  H3* UNL     1       5.944   4.034  17.980  0.00  0.00    +0.000 HD
ENDBRANCH  13  15
BRANCH  14  17
ATOM     17  O2* UNL     1       5.878   5.867  19.537  0.00  0.00    +0.000 OA
ATOM     18  H2* UNL     1       6.371   5.373  20.227  0.00  0.00    +0.000 HD
ENDBRANCH  14  17
BRANCH  12  19
ATOM     19  C5* UNL     1       2.201   3.072  19.699  0.00  0.00    +0.000 C 
BRANCH  19  20
ATOM     20  O5* UNL     1       1.085   3.896  19.376  0.00  0.00    +0.000 OA
ATOM     21  H5* UNL     1       1.453   4.697  18.953  0.00  0.00    +0.000 HD
ENDBRANCH  19  20
ENDBRANCH  12  19
ENDBRANCH   9  10
BRANCH   1  22
ATOM     22  N   UNL     1       0.575  10.519  19.439  0.00  0.00    +0.000 N 
ATOM     23  H   UNL     1       0.883  11.166  20.163  0.00  0.00    +0.000 HD
BRANCH  22  28
ATOM     24  C   UNL     1      -4.653  11.771  17.421  0.00  0.00    +0.000 C 
ATOM     25  C   UNL     1      -3.296  11.425  17.955  0.00  0.00    +0.000 A 
ATOM     26  C   UNL     1      -2.485  10.505  17.297  0.00  0.00    +0.000 A 
ATOM     27  C   UNL     1      -1.211  10.215  17.794  0.00  0.00    +0.000 A 
ATOM     28  C   UNL     1      -0.709  10.845  18.943  0.00  0.00    +0.000 A 
ATOM     29  C   UNL     1      -1.537  11.751  19.630  0.00  0.00    +0.000 A 
ATOM     30  C   UNL     1      -1.094  12.480  20.869  0.00  0.00    +0.000 C 
ATOM     31  C   UNL     1      -2.818  12.037  19.121  0.00  0.00    +0.000 A 
ENDBRANCH  22  28
ENDBRANCH   1  22
TORSDOF 7
ENDMDL
MODEL 8
REMARK VINA RESULT:      -7.1      2.390      3.401
REMARK  Name = 
REMARK  9 active torsions:
REMARK  status: ('A' for Active; 'I' for Inactive)
REMARK    1  A    between atoms: C_1  and  C_2
REMARK    2  A    between atoms: C_5  and  N_6
REMARK    3  A    between atoms: N_6  and  C_7
REMARK    4  A    between atoms: N_15  and  C1*_16
REMARK    5  A    between atoms: C4*_18  and  C5*_19
REMARK    6  A    between atoms: C5*_19  and  O5*_20
REMARK    7  A    between atoms: C3*_21  and  O3*_22
REMARK    8  A    between atoms: C2*_23  and  O2*_24
REMARK    9  A    between atoms: C_25  and  C_26
REMARK                            x       y       z     vdW  Elec       q    Type
REMARK                         _______ _______ _______ _____ _____    ______ ____
ROOT
ATOM      1  C   UNL     1       1.069   9.968  19.048  0.00  0.00    +0.000 A 
ATOM      2  N   UNL     1       0.540   9.949  20.306  0.00  0.00    +0.000 NA
ATOM      3  C   UNL     1       0.749   8.882  21.092  0.00  0.00    +0.000 A 
ATOM      4  N   UNL     1       1.450   7.773  20.806  0.00  0.00    +0.000 NA
ATOM      5  C   UNL     1       1.935   7.812  19.556  0.00  0.00    +0.000 A 
ATOM      6  C   UNL     1       1.787   8.832  18.631  0.00  0.00    +0.000 A 
ATOM      7  N   UNL     1       2.442   8.523  17.454  0.00  0.00    +0.000 NA
ATOM      8  C   UNL     1       2.986   7.343  17.674  0.00  0.00    +0.000 A 
ATOM      9  N   UNL     1       2.721   6.882  18.938  0.00  0.00    +0.000 N 
ENDROOT
BRANCH   9  10
ATOM     10  C1* UNL     1       3.257   5.668  19.524  0.00  0.00    +0.000 C 
ATOM     11  O4* UNL     1       4.698   5.748  19.557  0.00  0.00    +0.000 OA
ATOM     12  C4* UNL     1       5.241   4.466  19.144  0.00  0.00    +0.000 C 
ATOM     13  C3* UNL     1       4.070   3.490  19.082  0.00  0.00    +0.000 C 
ATOM     14  C2* UNL     1       2.874   4.385  18.785  0.00  0.00    +0.000 C 
BRANCH  13  15
ATOM     15  O3* UNL     1       3.830   2.852  20.350  0.00  0.00    +0.000 OA
ATOM     16  H3* UNL     1       3.128   2.185  20.244  0.00  0.00    +0.000 HD
ENDBRANCH  13  15
BRANCH  14  17
ATOM     17  O2* UNL     1       1.661   3.815  19.278  0.00  0.00    +0.000 OA
ATOM     18  H2* UNL     1       0.963   4.057  18.631  0.00  0.00    +0.000 HD
ENDBRANCH  14  17
BRANCH  12  19
ATOM     19  C5* UNL     1       5.966   4.624  17.805  0.00  0.00    +0.000 C 
BRANCH  19  20
ATOM     20  O5* UNL     1       7.318   4.193  17.929  0.00  0.00    +0.000 OA
ATOM     21  H5* UNL     1       7.344   3.605  18.709  0.00  0.00    +0.000 HD
ENDBRANCH  19  20
ENDBRANCH  12  19
ENDBRANCH   9  10
BRANCH   1  22
ATOM     22  N   UNL     1       0.907  11.096  18.223  0.00  0.00    +0.000 N 
ATOM     23  H   UNL     1       1.036  10.842  17.244  0.00  0.00    +0.000 HD
BRANCH  22  28
ATOM     24  C   UNL     1       2.901  16.369  19.311  0.00  0.00    +0.000 C 
ATOM     25  C   UNL     1       2.381  14.997  19.005  0.00  0.00    +0.000 A 
ATOM     26  C   UNL     1       3.225  14.010  18.505  0.00  0.00    +0.000 A 
ATOM     27  C   UNL     1       2.730  12.728  18.252  0.00  0.00    +0.000 A 
ATOM     28  C   UNL     1       1.390  12.394  18.507  0.00  0.00    +0.000 A 
ATOM     29  C   UNL     1       0.525  13.396  18.981  0.00  0.00    +0.000 A 
ATOM     30  C   UNL     1      -0.925  13.142  19.289  0.00  0.00    +0.000 C 
ATOM     31  C   UNL     1       1.035  14.685  19.234  0.00  0.00    +0.000 A 
ENDBRANCH  22  28
ENDBRANCH   1  22
TORSDOF 7
ENDMDL
MODEL 9
REMARK VINA RESULT:      -7.0      2.150      3.211
REMARK  Name = 
REMARK  9 active torsions:
REMARK  status: ('A' for Active; 'I' for Inactive)
REMARK    1  A    between atoms: C_1  and  C_2
REMARK    2  A    between atoms: C_5  and  N_6
REMARK    3  A    between atoms: N_6  and  C_7
REMARK    4  A    between atoms: N_15  and  C1*_16
REMARK    5  A    between atoms: C4*_18  and  C5*_19
REMARK    6  A    between atoms: C5*_19  and  O5*_20
REMARK    7  A    between atoms: C3*_21  and  O3*_22
REMARK    8  A    between atoms: C2*_23  and  O2*_24
REMARK    9  A    between atoms: C_25  and  C_26
REMARK                            x       y       z     vdW  Elec       q    Type
REMARK                         _______ _______ _______ _____ _____    ______ ____
ROOT
ATOM      1  C   UNL     1       1.305   9.850  19.085  0.00  0.00    +0.000 A 
ATOM      2  N   UNL     1       0.668   9.906  20.291  0.00  0.00    +0.000 NA
ATOM      3  C   UNL     1       0.717   8.845  21.112  0.00  0.00    +0.000 A 
ATOM      4  N   UNL     1       1.346   7.675  20.909  0.00  0.00    +0.000 NA
ATOM      5  C   UNL     1       1.940   7.644  19.708  0.00  0.00    +0.000 A 
ATOM      6  C   UNL     1       1.959   8.649  18.754  0.00  0.00    +0.000 A 
ATOM      7  N   UNL     1       2.686   8.257  17.647  0.00  0.00    +0.000 NA
ATOM      8  C   UNL     1       3.108   7.043  17.936  0.00  0.00    +0.000 A 
ATOM      9  N   UNL     1       2.696   6.637  19.179  0.00  0.00    +0.000 N 
ENDROOT
BRANCH   9  10
ATOM     10  C1* UNL     1       3.076   5.399  19.832  0.00  0.00    +0.000 C 
ATOM     11  O4* UNL     1       4.304   4.907  19.253  0.00  0.00    +0.000 OA
ATOM     12  C4* UNL     1       4.183   3.474  19.061  0.00  0.00    +0.000 C 
ATOM     13  C3* UNL     1       2.906   3.039  19.774  0.00  0.00    +0.000 C 
ATOM     14  C2* UNL     1       2.031   4.285  19.734  0.00  0.00    +0.000 C 
BRANCH  13  15
ATOM     15  O3* UNL     1       3.142   2.720  21.159  0.00  0.00    +0.000 OA
ATOM     16  H3* UNL     1       3.122   1.752  21.271  0.00  0.00    +0.000 HD
ENDBRANCH  13  15
BRANCH  14  17
ATOM     17  O2* UNL     1       1.107   4.309  20.822  0.00  0.00    +0.000 OA
ATOM     18  H2* UNL     1       0.227   4.493  20.428  0.00  0.00    +0.000 HD
ENDBRANCH  14  17
BRANCH  12  19
ATOM     19  C5* UNL     1       4.174   3.156  17.564  0.00  0.00    +0.000 C 
BRANCH  19  20
ATOM     20  O5* UNL     1       5.411   3.545  16.975  0.00  0.00    +0.000 OA
ATOM     21  H5* UNL     1       5.525   4.492  17.186  0.00  0.00    +0.000 HD
ENDBRANCH  19  20
ENDBRANCH  12  19
ENDBRANCH   9  10
BRANCH   1  22
ATOM     22  N   UNL     1       1.310  10.966  18.229  0.00  0.00    +0.000 N 
ATOM     23  H   UNL     1       2.007  10.847  17.495  0.00  0.00    +0.000 HD
BRANCH  22  28
ATOM     24  C   UNL     1       0.880  16.455  19.858  0.00  0.00    +0.000 C 
ATOM     25  C   UNL     1       1.001  15.028  19.413  0.00  0.00    +0.000 A 
ATOM     26  C   UNL     1       2.232  14.378  19.434  0.00  0.00    +0.000 A 
ATOM     27  C   UNL     1       2.322  13.040  19.043  0.00  0.00    +0.000 A 
ATOM     28  C   UNL     1       1.191  12.313  18.641  0.00  0.00    +0.000 A 
ATOM     29  C   UNL     1      -0.050  12.974  18.587  0.00  0.00    +0.000 A 
ATOM     30  C   UNL     1      -1.322  12.287  18.173  0.00  0.00    +0.000 C 
ATOM     31  C   UNL     1      -0.130  14.323  18.984  0.00  0.00    +0.000 A 
ENDBRANCH  22  28
ENDBRANCH   1  22
TORSDOF 7
ENDMDL
