MODEL 1
REMARK VINA RESULT:      -8.3      0.000      0.000
REMARK  Name = 
REMARK  6 active torsions:
REMARK  status: ('A' for Active; 'I' for Inactive)
REMARK    1  A    between atoms: C_2  and  C_22
REMARK    2  A    between atoms: N_3  and  C_4
REMARK    3  A    between atoms: C_4  and  C_5
REMARK    4  A    between atoms: C_5  and  N_6
REMARK    5  A    between atoms: C_9  and  N_10
REMARK    6  A    between atoms: C_24  and  C_25
REMARK                            x       y       z     vdW  Elec       q    Type
REMARK                         _______ _______ _______ _____ _____    ______ ____
ROOT
ATOM      1  N   UNL     1      -0.901  11.062  21.555  0.00  0.00    +0.000 NA
ATOM      2  C   UNL     1      -1.268  11.157  22.980  0.00  0.00    +0.000 C 
ATOM      3  C   UNL     1      -2.529  11.912  23.266  0.00  0.00    +0.000 C 
ATOM      4  C   UNL     1      -3.240  12.588  22.349  0.00  0.00    +0.000 C 
ATOM      5  C   UNL     1      -2.741  12.608  20.925  0.00  0.00    +0.000 C 
ATOM      6  C   UNL     1      -1.230  12.312  20.851  0.00  0.00    +0.000 C 
ENDROOT
BRANCH   4   7
ATOM      7  N   UNL     1      -4.354  13.335  22.698  0.00  0.00    +0.000 N 
ATOM      8  C   UNL     1      -5.708  12.987  22.346  0.00  0.00    +0.000 A 
ATOM      9  O   UNL     1      -6.129  12.026  21.719  0.00  0.00    +0.000 OA
ATOM     10  N   UNL     1      -6.540  13.970  22.901  0.00  0.00    +0.000 N 
ATOM     11  C   UNL     1      -5.762  14.914  23.547  0.00  0.00    +0.000 A 
ATOM     12  C   UNL     1      -6.174  16.078  24.161  0.00  0.00    +0.000 A 
ATOM     13  C   UNL     1      -5.173  16.909  24.668  0.00  0.00    +0.000 A 
ATOM     14  C   UNL     1      -3.816  16.557  24.555  0.00  0.00    +0.000 A 
ATOM     15  C   UNL     1      -3.429  15.360  23.936  0.00  0.00    +0.000 A 
ATOM     16  C   UNL     1      -4.424  14.539  23.442  0.00  0.00    +0.000 A 
ATOM     17  H   UNL     1      -7.540  13.965  22.795  0.00  0.00    +0.000 HD
ENDBRANCH   4   7
BRANCH   1  18
ATOM     18  C   UNL     1       0.538  10.743  21.407  0.00  0.00    +0.000 C 
BRANCH  18  19
ATOM     19  C   UNL     1       1.012  10.678  19.939  0.00  0.00    +0.000 C 
BRANCH  19  22
ATOM     20  O   UNL     1       2.304   9.959  17.552  0.00  0.00    +0.000 OA
ATOM     21  C   UNL     1       1.875   9.076  18.285  0.00  0.00    +0.000 C 
ATOM     22  N   UNL     1       1.211   9.317  19.464  0.00  0.00    +0.000 N 
ATOM     23  H   UNL     1       0.904   8.545  20.039  0.00  0.00    +0.000 HD
BRANCH  21  24
ATOM     24  C   UNL     1       2.066   7.639  17.947  0.00  0.00    +0.000 C 
ATOM     25  C   UNL     1       3.464   7.117  17.706  0.00  0.00    +0.000 C 
ATOM     26  C   UNL     1       2.730   6.702  18.955  0.00  0.00    +0.000 C 
BRANCH  26  27
ATOM     27  C   UNL     1       2.160   5.308  19.121  0.00  0.00    +0.000 A 
ATOM     28  C   UNL     1       2.136   4.367  18.078  0.00  0.00    +0.000 A 
ATOM     29  C   UNL     1       1.574   3.098  18.250  0.00  0.00    +0.000 A 
ATOM     30  C   UNL     1       1.042   2.732  19.483  0.00  0.00    +0.000 A 
ATOM     31  C   UNL     1       1.083   3.632  20.543  0.00  0.00    +0.000 A 
ATOM     32  C   UNL     1       1.638   4.902  20.362  0.00  0.00    +0.000 A 
ENDBRANCH  26  27
ENDBRANCH  21  24
ENDBRANCH  19  22
ENDBRANCH  18  19
ENDBRANCH   1  18
TORSDOF 6
ENDMDL
MODEL 2
REMARK VINA RESULT:      -8.3      4.157     12.641
REMARK  Name = 
REMARK  6 active torsions:
REMARK  status: ('A' for Active; 'I' for Inactive)
REMARK    1  A    between atoms: C_2  and  C_22
REMARK    2  A    between atoms: N_3  and  C_4
REMARK    3  A    between atoms: C_4  and  C_5
REMARK    4  A    between atoms: C_5  and  N_6
REMARK    5  A    between atoms: C_9  and  N_10
REMARK    6  A    between atoms: C_24  and  C_25
REMARK                            x       y       z     vdW  Elec       q    Type
REMARK                         _______ _______ _______ _____ _____    ______ ____
ROOT
ATOM      1  N   UNL     1       2.616   5.070  18.365  0.00  0.00    +0.000 NA
ATOM      2  C   UNL     1       3.151   6.350  17.865  0.00  0.00    +0.000 C 
ATOM      3  C   UNL     1       4.210   6.232  16.813  0.00  0.00    +0.000 C 
ATOM      4  C   UNL     1       4.765   5.077  16.413  0.00  0.00    +0.000 C 
ATOM      5  C   UNL     1       4.310   3.796  17.068  0.00  0.00    +0.000 C 
ATOM      6  C   UNL     1       3.683   4.061  18.452  0.00  0.00    +0.000 C 
ENDROOT
BRANCH   4   7
ATOM      7  N   UNL     1       5.801   5.048  15.492  0.00  0.00    +0.000 N 
ATOM      8  C   UNL     1       7.071   5.704  15.677  0.00  0.00    +0.000 A 
ATOM      9  O   UNL     1       7.477   6.367  16.620  0.00  0.00    +0.000 OA
ATOM     10  N   UNL     1       7.848   5.417  14.545  0.00  0.00    +0.000 N 
ATOM     11  C   UNL     1       7.106   4.647  13.667  0.00  0.00    +0.000 A 
ATOM     12  C   UNL     1       7.466   4.210  12.410  0.00  0.00    +0.000 A 
ATOM     13  C   UNL     1       6.495   3.515  11.685  0.00  0.00    +0.000 A 
ATOM     14  C   UNL     1       5.221   3.275  12.230  0.00  0.00    +0.000 A 
ATOM     15  C   UNL     1       4.890   3.721  13.517  0.00  0.00    +0.000 A 
ATOM     16  C   UNL     1       5.855   4.403  14.231  0.00  0.00    +0.000 A 
ATOM     17  H   UNL     1       8.784   5.764  14.421  0.00  0.00    +0.000 HD
ENDBRANCH   4   7
BRANCH   1  18
ATOM     18  C   UNL     1       1.964   5.255  19.682  0.00  0.00    +0.000 C 
BRANCH  18  19
ATOM     19  C   UNL     1       2.521   6.447  20.488  0.00  0.00    +0.000 C 
BRANCH  19  22
ATOM     20  O   UNL     1       1.483   8.940  19.719  0.00  0.00    +0.000 OA
ATOM     21  C   UNL     1       1.041   8.396  20.724  0.00  0.00    +0.000 C 
ATOM     22  N   UNL     1       1.490   7.187  21.199  0.00  0.00    +0.000 N 
ATOM     23  H   UNL     1       1.066   6.777  22.020  0.00  0.00    +0.000 HD
BRANCH  21  24
ATOM     24  C   UNL     1      -0.060   9.017  21.510  0.00  0.00    +0.000 C 
ATOM     25  C   UNL     1       0.147   9.288  22.983  0.00  0.00    +0.000 C 
ATOM     26  C   UNL     1       0.084  10.449  22.024  0.00  0.00    +0.000 C 
BRANCH  26  27
ATOM     27  C   UNL     1      -1.122  11.362  21.951  0.00  0.00    +0.000 A 
ATOM     28  C   UNL     1      -1.917  11.662  23.069  0.00  0.00    +0.000 A 
ATOM     29  C   UNL     1      -3.045  12.483  22.967  0.00  0.00    +0.000 A 
ATOM     30  C   UNL     1      -3.389  13.044  21.741  0.00  0.00    +0.000 A 
ATOM     31  C   UNL     1      -2.600  12.792  20.624  0.00  0.00    +0.000 A 
ATOM     32  C   UNL     1      -1.480  11.963  20.731  0.00  0.00    +0.000 A 
ENDBRANCH  26  27
ENDBRANCH  21  24
ENDBRANCH  19  22
ENDBRANCH  18  19
ENDBRANCH   1  18
TORSDOF 6
ENDMDL
MODEL 3
REMARK VINA RESULT:      -8.3      2.421      3.547
REMARK  Name = 
REMARK  6 active torsions:
REMARK  status: ('A' for Active; 'I' for Inactive)
REMARK    1  A    between atoms: C_2  and  C_22
REMARK    2  A    between atoms: N_3  and  C_4
REMARK    3  A    between atoms: C_4  and  C_5
REMARK    4  A    between atoms: C_5  and  N_6
REMARK    5  A    between atoms: C_9  and  N_10
REMARK    6  A    between atoms: C_24  and  C_25
REMARK                            x       y       z     vdW  Elec       q    Type
REMARK                         _______ _______ _______ _____ _____    ______ ____
ROOT
ATOM      1  N   UNL     1      -0.382   9.981  20.985  0.00  0.00    +0.000 NA
ATOM      2  C   UNL     1      -0.365   9.819  22.451  0.00  0.00    +0.000 C 
ATOM      3  C   UNL     1      -1.116  10.862  23.218  0.00  0.00    +0.000 C 
ATOM      4  C   UNL     1      -1.668  11.960  22.677  0.00  0.00    +0.000 C 
ATOM      5  C   UNL     1      -1.521  12.180  21.191  0.00  0.00    +0.000 C 
ATOM      6  C   UNL     1      -0.315  11.406  20.622  0.00  0.00    +0.000 C 
ENDROOT
BRANCH   4   7
ATOM      7  N   UNL     1      -2.279  12.928  23.458  0.00  0.00    +0.000 N 
ATOM      8  C   UNL     1      -3.563  12.769  24.093  0.00  0.00    +0.000 A 
ATOM      9  O   UNL     1      -4.325  11.813  24.084  0.00  0.00    +0.000 OA
ATOM     10  N   UNL     1      -3.815  13.950  24.807  0.00  0.00    +0.000 N 
ATOM     11  C   UNL     1      -2.765  14.831  24.616  0.00  0.00    +0.000 A 
ATOM     12  C   UNL     1      -2.648  16.124  25.079  0.00  0.00    +0.000 A 
ATOM     13  C   UNL     1      -1.519  16.837  24.671  0.00  0.00    +0.000 A 
ATOM     14  C   UNL     1      -0.555  16.246  23.834  0.00  0.00    +0.000 A 
ATOM     15  C   UNL     1      -0.696  14.924  23.391  0.00  0.00    +0.000 A 
ATOM     16  C   UNL     1      -1.812  14.222  23.802  0.00  0.00    +0.000 A 
ATOM     17  H   UNL     1      -4.656  14.100  25.338  0.00  0.00    +0.000 HD
ENDBRANCH   4   7
BRANCH   1  18
ATOM     18  C   UNL     1       0.734   9.231  20.364  0.00  0.00    +0.000 C 
BRANCH  18  19
ATOM     19  C   UNL     1       1.173   7.991  21.170  0.00  0.00    +0.000 C 
BRANCH  19  22
ATOM     20  O   UNL     1       1.153   5.199  20.871  0.00  0.00    +0.000 OA
ATOM     21  C   UNL     1       2.081   5.841  20.393  0.00  0.00    +0.000 C 
ATOM     22  N   UNL     1       2.198   7.207  20.497  0.00  0.00    +0.000 N 
ATOM     23  H   UNL     1       2.973   7.683  20.058  0.00  0.00    +0.000 HD
BRANCH  21  24
ATOM     24  C   UNL     1       3.165   5.168  19.626  0.00  0.00    +0.000 C 
ATOM     25  C   UNL     1       3.017   3.708  19.265  0.00  0.00    +0.000 C 
ATOM     26  C   UNL     1       2.925   4.747  18.178  0.00  0.00    +0.000 C 
BRANCH  26  27
ATOM     27  C   UNL     1       4.041   4.957  17.175  0.00  0.00    +0.000 A 
ATOM     28  C   UNL     1       4.463   6.233  16.764  0.00  0.00    +0.000 A 
ATOM     29  C   UNL     1       5.475   6.398  15.813  0.00  0.00    +0.000 A 
ATOM     30  C   UNL     1       6.107   5.284  15.267  0.00  0.00    +0.000 A 
ATOM     31  C   UNL     1       5.733   4.010  15.681  0.00  0.00    +0.000 A 
ATOM     32  C   UNL     1       4.714   3.852  16.625  0.00  0.00    +0.000 A 
ENDBRANCH  26  27
ENDBRANCH  21  24
ENDBRANCH  19  22
ENDBRANCH  18  19
ENDBRANCH   1  18
TORSDOF 6
ENDMDL
MODEL 4
REMARK VINA RESULT:      -8.3      2.783     11.384
REMARK  Name = 
REMARK  6 active torsions:
REMARK  status: ('A' for Active; 'I' for Inactive)
REMARK    1  A    between atoms: C_2  and  C_22
REMARK    2  A    between atoms: N_3  and  C_4
REMARK    3  A    between atoms: C_4  and  C_5
REMARK    4  A    between atoms: C_5  and  N_6
REMARK    5  A    between atoms: C_9  and  N_10
REMARK    6  A    between atoms: C_24  and  C_25
REMARK                            x       y       z     vdW  Elec       q    Type
REMARK                         _______ _______ _______ _____ _____    ______ ____
ROOT
ATOM      1  N   UNL     1       1.394   9.081  19.853  0.00  0.00    +0.000 NA
ATOM      2  C   UNL     1       1.503   7.784  20.546  0.00  0.00    +0.000 C 
ATOM      3  C   UNL     1       2.267   6.728  19.808  0.00  0.00    +0.000 C 
ATOM      4  C   UNL     1       2.723   6.852  18.552  0.00  0.00    +0.000 C 
ATOM      5  C   UNL     1       2.447   8.137  17.810  0.00  0.00    +0.000 C 
ATOM      6  C   UNL     1       1.234   8.882  18.404  0.00  0.00    +0.000 C 
ENDROOT
BRANCH   4   7
ATOM      7  N   UNL     1       3.352   5.803  17.899  0.00  0.00    +0.000 N 
ATOM      8  C   UNL     1       2.729   4.535  17.613  0.00  0.00    +0.000 A 
ATOM      9  O   UNL     1       1.596   4.149  17.859  0.00  0.00    +0.000 OA
ATOM     10  N   UNL     1       3.675   3.761  16.925  0.00  0.00    +0.000 N 
ATOM     11  C   UNL     1       4.851   4.480  16.805  0.00  0.00    +0.000 A 
ATOM     12  C   UNL     1       6.049   4.063  16.263  0.00  0.00    +0.000 A 
ATOM     13  C   UNL     1       7.118   4.958  16.341  0.00  0.00    +0.000 A 
ATOM     14  C   UNL     1       6.961   6.221  16.941  0.00  0.00    +0.000 A 
ATOM     15  C   UNL     1       5.727   6.620  17.471  0.00  0.00    +0.000 A 
ATOM     16  C   UNL     1       4.671   5.734  17.386  0.00  0.00    +0.000 A 
ATOM     17  H   UNL     1       3.493   2.822  16.613  0.00  0.00    +0.000 HD
ENDBRANCH   4   7
BRANCH   1  18
ATOM     18  C   UNL     1       0.266   9.871  20.399  0.00  0.00    +0.000 C 
BRANCH  18  19
ATOM     19  C   UNL     1       0.436  10.251  21.885  0.00  0.00    +0.000 C 
BRANCH  19  22
ATOM     20  O   UNL     1      -0.263  12.918  22.421  0.00  0.00    +0.000 OA
ATOM     21  C   UNL     1      -1.053  12.027  22.709  0.00  0.00    +0.000 C 
ATOM     22  N   UNL     1      -0.805  10.690  22.507  0.00  0.00    +0.000 N 
ATOM     23  H   UNL     1      -1.509  10.003  22.740  0.00  0.00    +0.000 HD
BRANCH  21  24
ATOM     24  C   UNL     1      -2.384  12.342  23.295  0.00  0.00    +0.000 C 
ATOM     25  C   UNL     1      -2.649  13.735  23.819  0.00  0.00    +0.000 C 
ATOM     26  C   UNL     1      -3.338  13.282  22.558  0.00  0.00    +0.000 C 
BRANCH  26  27
ATOM     27  C   UNL     1      -4.812  12.932  22.533  0.00  0.00    +0.000 A 
ATOM     28  C   UNL     1      -5.623  12.980  23.678  0.00  0.00    +0.000 A 
ATOM     29  C   UNL     1      -6.975  12.621  23.634  0.00  0.00    +0.000 A 
ATOM     30  C   UNL     1      -7.552  12.227  22.430  0.00  0.00    +0.000 A 
ATOM     31  C   UNL     1      -6.780  12.204  21.273  0.00  0.00    +0.000 A 
ATOM     32  C   UNL     1      -5.428  12.555  21.327  0.00  0.00    +0.000 A 
ENDBRANCH  26  27
ENDBRANCH  21  24
ENDBRANCH  19  22
ENDBRANCH  18  19
ENDBRANCH   1  18
TORSDOF 6
ENDMDL
MODEL 5
REMARK VINA RESULT:      -8.2      2.477     11.134
REMARK  Name = 
REMARK  6 active torsions:
REMARK  status: ('A' for Active; 'I' for Inactive)
REMARK    1  A    between atoms: C_2  and  C_22
REMARK    2  A    between atoms: N_3  and  C_4
REMARK    3  A    between atoms: C_4  and  C_5
REMARK    4  A    between atoms: C_5  and  N_6
REMARK    5  A    between atoms: C_9  and  N_10
REMARK    6  A    between atoms: C_24  and  C_25
REMARK                            x       y       z     vdW  Elec       q    Type
REMARK                         _______ _______ _______ _____ _____    ______ ____
ROOT
ATOM      1  N   UNL     1       0.749   9.554  19.480  0.00  0.00    +0.000 NA
ATOM      2  C   UNL     1       1.359   9.560  18.138  0.00  0.00    +0.000 C 
ATOM      3  C   UNL     1       2.096   8.310  17.766  0.00  0.00    +0.000 C 
ATOM      4  C   UNL     1       2.331   7.285  18.599  0.00  0.00    +0.000 C 
ATOM      5  C   UNL     1       1.834   7.385  20.021  0.00  0.00    +0.000 C 
ATOM      6  C   UNL     1       1.616   8.853  20.441  0.00  0.00    +0.000 C 
ENDROOT
BRANCH   4   7
ATOM      7  N   UNL     1       3.093   6.193  18.213  0.00  0.00    +0.000 N 
ATOM      8  C   UNL     1       4.441   6.279  17.711  0.00  0.00    +0.000 A 
ATOM      9  O   UNL     1       5.149   7.261  17.542  0.00  0.00    +0.000 OA
ATOM     10  N   UNL     1       4.869   4.968  17.459  0.00  0.00    +0.000 N 
ATOM     11  C   UNL     1       3.841   4.089  17.753  0.00  0.00    +0.000 A 
ATOM     12  C   UNL     1       3.818   2.722  17.579  0.00  0.00    +0.000 A 
ATOM     13  C   UNL     1       2.618   2.071  17.874  0.00  0.00    +0.000 A 
ATOM     14  C   UNL     1       1.500   2.791  18.332  0.00  0.00    +0.000 A 
ATOM     15  C   UNL     1       1.559   4.180  18.511  0.00  0.00    +0.000 A 
ATOM     16  C   UNL     1       2.749   4.818  18.223  0.00  0.00    +0.000 A 
ATOM     17  H   UNL     1       5.780   4.749  17.094  0.00  0.00    +0.000 HD
ENDBRANCH   4   7
BRANCH   1  18
ATOM     18  C   UNL     1       0.476  10.937  19.936  0.00  0.00    +0.000 C 
BRANCH  18  19
ATOM     19  C   UNL     1       0.414  11.083  21.472  0.00  0.00    +0.000 C 
BRANCH  19  22
ATOM     20  O   UNL     1      -0.516  13.039  23.259  0.00  0.00    +0.000 OA
ATOM     21  C   UNL     1      -1.300  12.195  22.842  0.00  0.00    +0.000 C 
ATOM     22  N   UNL     1      -0.946  11.183  21.980  0.00  0.00    +0.000 N 
ATOM     23  H   UNL     1      -1.644  10.532  21.650  0.00  0.00    +0.000 HD
BRANCH  21  24
ATOM     24  C   UNL     1      -2.735  12.219  23.235  0.00  0.00    +0.000 C 
ATOM     25  C   UNL     1      -3.245  13.350  24.098  0.00  0.00    +0.000 C 
ATOM     26  C   UNL     1      -3.667  13.280  22.653  0.00  0.00    +0.000 C 
BRANCH  26  27
ATOM     27  C   UNL     1      -5.065  12.861  22.248  0.00  0.00    +0.000 A 
ATOM     28  C   UNL     1      -5.381  12.422  20.951  0.00  0.00    +0.000 A 
ATOM     29  C   UNL     1      -6.688  12.072  20.595  0.00  0.00    +0.000 A 
ATOM     30  C   UNL     1      -7.707  12.132  21.539  0.00  0.00    +0.000 A 
ATOM     31  C   UNL     1      -7.417  12.530  22.840  0.00  0.00    +0.000 A 
ATOM     32  C   UNL     1      -6.111  12.888  23.187  0.00  0.00    +0.000 A 
ENDBRANCH  26  27
ENDBRANCH  21  24
ENDBRANCH  19  22
ENDBRANCH  18  19
ENDBRANCH   1  18
TORSDOF 6
ENDMDL
MODEL 6
REMARK VINA RESULT:      -8.2      1.641      2.431
REMARK  Name = 
REMARK  6 active torsions:
REMARK  status: ('A' for Active; 'I' for Inactive)
REMARK    1  A    between atoms: C_2  and  C_22
REMARK    2  A    between atoms: N_3  and  C_4
REMARK    3  A    between atoms: C_4  and  C_5
REMARK    4  A    between atoms: C_5  and  N_6
REMARK    5  A    between atoms: C_9  and  N_10
REMARK    6  A    between atoms: C_24  and  C_25
REMARK                            x       y       z     vdW  Elec       q    Type
REMARK                         _______ _______ _______ _____ _____    ______ ____
ROOT
ATOM      1  N   UNL     1       0.365  11.791  21.854  0.00  0.00    +0.000 NA
ATOM      2  C   UNL     1       0.134  13.217  21.556  0.00  0.00    +0.000 C 
ATOM      3  C   UNL     1      -1.064  13.822  22.220  0.00  0.00    +0.000 C 
ATOM      4  C   UNL     1      -1.970  13.136  22.934  0.00  0.00    +0.000 C 
ATOM      5  C   UNL     1      -1.792  11.644  23.079  0.00  0.00    +0.000 C 
ATOM      6  C   UNL     1      -0.914  11.068  21.950  0.00  0.00    +0.000 C 
ENDROOT
BRANCH   4   7
ATOM      7  N   UNL     1      -3.102  13.747  23.453  0.00  0.00    +0.000 N 
ATOM      8  C   UNL     1      -3.106  14.588  24.623  0.00  0.00    +0.000 A 
ATOM      9  O   UNL     1      -2.180  14.923  25.347  0.00  0.00    +0.000 OA
ATOM     10  N   UNL     1      -4.425  15.029  24.804  0.00  0.00    +0.000 N 
ATOM     11  C   UNL     1      -5.229  14.477  23.823  0.00  0.00    +0.000 A 
ATOM     12  C   UNL     1      -6.595  14.594  23.680  0.00  0.00    +0.000 A 
ATOM     13  C   UNL     1      -7.184  13.862  22.647  0.00  0.00    +0.000 A 
ATOM     14  C   UNL     1      -6.404  13.054  21.799  0.00  0.00    +0.000 A 
ATOM     15  C   UNL     1      -5.015  12.966  21.963  0.00  0.00    +0.000 A 
ATOM     16  C   UNL     1      -4.438  13.697  22.982  0.00  0.00    +0.000 A 
ATOM     17  H   UNL     1      -4.702  15.630  25.562  0.00  0.00    +0.000 HD
ENDBRANCH   4   7
BRANCH   1  18
ATOM     18  C   UNL     1       1.235  11.177  20.825  0.00  0.00    +0.000 C 
BRANCH  18  19
ATOM     19  C   UNL     1       0.474  10.707  19.567  0.00  0.00    +0.000 C 
BRANCH  19  22
ATOM     20  O   UNL     1       2.225   9.999  17.490  0.00  0.00    +0.000 OA
ATOM     21  C   UNL     1       1.694   9.112  18.147  0.00  0.00    +0.000 C 
ATOM     22  N   UNL     1       0.808   9.347  19.172  0.00  0.00    +0.000 N 
ATOM     23  H   UNL     1       0.424   8.574  19.696  0.00  0.00    +0.000 HD
BRANCH  21  24
ATOM     24  C   UNL     1       1.996   7.679  17.887  0.00  0.00    +0.000 C 
ATOM     25  C   UNL     1       3.438   7.230  17.813  0.00  0.00    +0.000 C 
ATOM     26  C   UNL     1       2.599   6.814  18.994  0.00  0.00    +0.000 C 
BRANCH  26  27
ATOM     27  C   UNL     1       2.089   5.397  19.154  0.00  0.00    +0.000 A 
ATOM     28  C   UNL     1       1.517   4.925  20.347  0.00  0.00    +0.000 A 
ATOM     29  C   UNL     1       1.083   3.601  20.478  0.00  0.00    +0.000 A 
ATOM     30  C   UNL     1       1.192   2.723  19.404  0.00  0.00    +0.000 A 
ATOM     31  C   UNL     1       1.724   3.172  18.200  0.00  0.00    +0.000 A 
ATOM     32  C   UNL     1       2.164   4.493  18.079  0.00  0.00    +0.000 A 
ENDBRANCH  26  27
ENDBRANCH  21  24
ENDBRANCH  19  22
ENDBRANCH  18  19
ENDBRANCH   1  18
TORSDOF 6
ENDMDL
MODEL 7
REMARK VINA RESULT:      -8.2      4.495      6.702
REMARK  Name = 
REMARK  6 active torsions:
REMARK  status: ('A' for Active; 'I' for Inactive)
REMARK    1  A    between atoms: C_2  and  C_22
REMARK    2  A    between atoms: N_3  and  C_4
REMARK    3  A    between atoms: C_4  and  C_5
REMARK    4  A    between atoms: C_5  and  N_6
REMARK    5  A    between atoms: C_9  and  N_10
REMARK    6  A    between atoms: C_24  and  C_25
REMARK                            x       y       z     vdW  Elec       q    Type
REMARK                         _______ _______ _______ _____ _____    ______ ____
ROOT
ATOM      1  N   UNL     1       2.171   7.465  19.830  0.00  0.00    +0.000 NA
ATOM      2  C   UNL     1       1.994   7.939  18.445  0.00  0.00    +0.000 C 
ATOM      3  C   UNL     1       1.402   9.307  18.308  0.00  0.00    +0.000 C 
ATOM      4  C   UNL     1       0.924  10.039  19.326  0.00  0.00    +0.000 C 
ATOM      5  C   UNL     1       0.968   9.451  20.716  0.00  0.00    +0.000 C 
ATOM      6  C   UNL     1       1.052   7.912  20.676  0.00  0.00    +0.000 C 
ENDROOT
BRANCH   4   7
ATOM      7  N   UNL     1       0.313  11.266  19.118  0.00  0.00    +0.000 N 
ATOM      8  C   UNL     1      -1.087  11.436  18.821  0.00  0.00    +0.000 A 
ATOM      9  O   UNL     1      -1.969  10.596  18.710  0.00  0.00    +0.000 OA
ATOM     10  N   UNL     1      -1.316  12.815  18.708  0.00  0.00    +0.000 N 
ATOM     11  C   UNL     1      -0.123  13.491  18.888  0.00  0.00    +0.000 A 
ATOM     12  C   UNL     1       0.108  14.846  18.785  0.00  0.00    +0.000 A 
ATOM     13  C   UNL     1       1.430  15.271  18.930  0.00  0.00    +0.000 A 
ATOM     14  C   UNL     1       2.463  14.347  19.175  0.00  0.00    +0.000 A 
ATOM     15  C   UNL     1       2.194  12.976  19.287  0.00  0.00    +0.000 A 
ATOM     16  C   UNL     1       0.883  12.563  19.149  0.00  0.00    +0.000 A 
ATOM     17  H   UNL     1      -2.219  13.204  18.496  0.00  0.00    +0.000 HD
ENDBRANCH   4   7
BRANCH   1  18
ATOM     18  C   UNL     1       2.295   5.990  19.866  0.00  0.00    +0.000 C 
BRANCH  18  19
ATOM     19  C   UNL     1       3.755   5.490  19.851  0.00  0.00    +0.000 C 
BRANCH  19  22
ATOM     20  O   UNL     1       3.422   4.104  17.432  0.00  0.00    +0.000 OA
ATOM     21  C   UNL     1       4.196   5.053  17.471  0.00  0.00    +0.000 C 
ATOM     22  N   UNL     1       4.447   5.787  18.606  0.00  0.00    +0.000 N 
ATOM     23  H   UNL     1       5.077   6.577  18.570  0.00  0.00    +0.000 HD
BRANCH  21  24
ATOM     24  C   UNL     1       4.923   5.502  16.253  0.00  0.00    +0.000 C 
ATOM     25  C   UNL     1       6.234   6.239  16.404  0.00  0.00    +0.000 C 
ATOM     26  C   UNL     1       6.240   4.834  15.861  0.00  0.00    +0.000 C 
BRANCH  26  27
ATOM     27  C   UNL     1       6.489   4.543  14.396  0.00  0.00    +0.000 A 
ATOM     28  C   UNL     1       5.721   3.623  13.663  0.00  0.00    +0.000 A 
ATOM     29  C   UNL     1       5.994   3.350  12.317  0.00  0.00    +0.000 A 
ATOM     30  C   UNL     1       7.029   4.013  11.668  0.00  0.00    +0.000 A 
ATOM     31  C   UNL     1       7.783   4.955  12.360  0.00  0.00    +0.000 A 
ATOM     32  C   UNL     1       7.512   5.216  13.706  0.00  0.00    +0.000 A 
ENDBRANCH  26  27
ENDBRANCH  21  24
ENDBRANCH  19  22
ENDBRANCH  18  19
ENDBRANCH   1  18
TORSDOF 6
ENDMDL
MODEL 8
REMARK VINA RESULT:      -8.0      8.935     12.901
REMARK  Name = 
REMARK  6 active torsions:
REMARK  status: ('A' for Active; 'I' for Inactive)
REMARK    1  A    between atoms: C_2  and  C_22
REMARK    2  A    between atoms: N_3  and  C_4
REMARK    3  A    between atoms: C_4  and  C_5
REMARK    4  A    between atoms: C_5  and  N_6
REMARK    5  A    between atoms: C_9  and  N_10
REMARK    6  A    between atoms: C_24  and  C_25
REMARK                            x       y       z     vdW  Elec       q    Type
REMARK                         _______ _______ _______ _____ _____    ______ ____
ROOT
ATOM      1  N   UNL     1       7.768   7.226  18.049  0.00  0.00    +0.000 NA
ATOM      2  C   UNL     1       7.652   6.159  19.061  0.00  0.00    +0.000 C 
ATOM      3  C   UNL     1       6.465   5.260  18.908  0.00  0.00    +0.000 C 
ATOM      4  C   UNL     1       5.476   5.445  18.019  0.00  0.00    +0.000 C 
ATOM      5  C   UNL     1       5.543   6.646  17.108  0.00  0.00    +0.000 C 
ATOM      6  C   UNL     1       6.440   7.753  17.697  0.00  0.00    +0.000 C 
ENDROOT
BRANCH   4   7
ATOM      7  N   UNL     1       4.362   4.619  17.987  0.00  0.00    +0.000 N 
ATOM      8  C   UNL     1       4.096   3.656  16.949  0.00  0.00    +0.000 A 
ATOM      9  O   UNL     1       4.751   3.376  15.956  0.00  0.00    +0.000 OA
ATOM     10  N   UNL     1       2.899   3.008  17.291  0.00  0.00    +0.000 N 
ATOM     11  C   UNL     1       2.408   3.549  18.465  0.00  0.00    +0.000 A 
ATOM     12  C   UNL     1       1.224   3.251  19.106  0.00  0.00    +0.000 A 
ATOM     13  C   UNL     1       0.916   4.006  20.240  0.00  0.00    +0.000 A 
ATOM     14  C   UNL     1       1.788   5.012  20.696  0.00  0.00    +0.000 A 
ATOM     15  C   UNL     1       2.991   5.283  20.029  0.00  0.00    +0.000 A 
ATOM     16  C   UNL     1       3.292   4.529  18.912  0.00  0.00    +0.000 A 
ATOM     17  H   UNL     1       2.484   2.289  16.723  0.00  0.00    +0.000 HD
ENDBRANCH   4   7
BRANCH   1  18
ATOM     18  C   UNL     1       8.649   8.313  18.535  0.00  0.00    +0.000 C 
BRANCH  18  19
ATOM     19  C   UNL     1       8.334   9.691  17.915  0.00  0.00    +0.000 C 
BRANCH  19  22
ATOM     20  O   UNL     1       8.128  12.432  17.337  0.00  0.00    +0.000 OA
ATOM     21  C   UNL     1       9.133  12.017  17.901  0.00  0.00    +0.000 C 
ATOM     22  N   UNL     1       9.344  10.695  18.214  0.00  0.00    +0.000 N 
ATOM     23  H   UNL     1      10.183  10.419  18.705  0.00  0.00    +0.000 HD
BRANCH  21  24
ATOM     24  C   UNL     1      10.217  12.948  18.317  0.00  0.00    +0.000 C 
ATOM     25  C   UNL     1      11.620  12.726  17.799  0.00  0.00    +0.000 C 
ATOM     26  C   UNL     1      10.830  13.908  17.299  0.00  0.00    +0.000 C 
BRANCH  26  27
ATOM     27  C   UNL     1      11.140  15.323  17.743  0.00  0.00    +0.000 A 
ATOM     28  C   UNL     1      11.683  15.622  19.004  0.00  0.00    +0.000 A 
ATOM     29  C   UNL     1      11.929  16.941  19.401  0.00  0.00    +0.000 A 
ATOM     30  C   UNL     1      11.658  17.992  18.532  0.00  0.00    +0.000 A 
ATOM     31  C   UNL     1      11.151  17.723  17.264  0.00  0.00    +0.000 A 
ATOM     32  C   UNL     1      10.899  16.404  16.877  0.00  0.00    +0.000 A 
ENDBRANCH  26  27
ENDBRANCH  21  24
ENDBRANCH  19  22
ENDBRANCH  18  19
ENDBRANCH   1  18
TORSDOF 6
ENDMDL
MODEL 9
REMARK VINA RESULT:      -8.0      2.512     11.104
REMARK  Name = 
REMARK  6 active torsions:
REMARK  status: ('A' for Active; 'I' for Inactive)
REMARK    1  A    between atoms: C_2  and  C_22
REMARK    2  A    between atoms: N_3  and  C_4
REMARK    3  A    between atoms: C_4  and  C_5
REMARK    4  A    between atoms: C_5  and  N_6
REMARK    5  A    between atoms: C_9  and  N_10
REMARK    6  A    between atoms: C_24  and  C_25
REMARK                            x       y       z     vdW  Elec       q    Type
REMARK                         _______ _______ _______ _____ _____    ______ ____
ROOT
ATOM      1  N   UNL     1       0.968   9.567  19.274  0.00  0.00    +0.000 NA
ATOM      2  C   UNL     1       1.600   9.517  17.942  0.00  0.00    +0.000 C 
ATOM      3  C   UNL     1       2.278   8.225  17.605  0.00  0.00    +0.000 C 
ATOM      4  C   UNL     1       2.447   7.205  18.461  0.00  0.00    +0.000 C 
ATOM      5  C   UNL     1       1.933   7.357  19.872  0.00  0.00    +0.000 C 
ATOM      6  C   UNL     1       1.783   8.841  20.262  0.00  0.00    +0.000 C 
ENDROOT
BRANCH   4   7
ATOM      7  N   UNL     1       3.158   6.068  18.107  0.00  0.00    +0.000 N 
ATOM      8  C   UNL     1       4.501   6.081  17.583  0.00  0.00    +0.000 A 
ATOM      9  O   UNL     1       5.245   7.026  17.366  0.00  0.00    +0.000 OA
ATOM     10  N   UNL     1       4.872   4.744  17.378  0.00  0.00    +0.000 N 
ATOM     11  C   UNL     1       3.814   3.920  17.720  0.00  0.00    +0.000 A 
ATOM     12  C   UNL     1       3.733   2.549  17.600  0.00  0.00    +0.000 A 
ATOM     13  C   UNL     1       2.513   1.960  17.937  0.00  0.00    +0.000 A 
ATOM     14  C   UNL     1       1.432   2.742  18.382  0.00  0.00    +0.000 A 
ATOM     15  C   UNL     1       1.549   4.133  18.505  0.00  0.00    +0.000 A 
ATOM     16  C   UNL     1       2.760   4.710  18.176  0.00  0.00    +0.000 A 
ATOM     17  H   UNL     1       5.767   4.475  17.008  0.00  0.00    +0.000 HD
ENDBRANCH   4   7
BRANCH   1  18
ATOM     18  C   UNL     1       0.759  10.970  19.701  0.00  0.00    +0.000 C 
BRANCH  18  19
ATOM     19  C   UNL     1       0.518  11.129  21.217  0.00  0.00    +0.000 C 
BRANCH  19  22
ATOM     20  O   UNL     1      -0.504  12.788  23.239  0.00  0.00    +0.000 OA
ATOM     21  C   UNL     1      -1.283  12.130  22.560  0.00  0.00    +0.000 C 
ATOM     22  N   UNL     1      -0.889  11.274  21.559  0.00  0.00    +0.000 N 
ATOM     23  H   UNL     1      -1.582  10.779  21.014  0.00  0.00    +0.000 HD
BRANCH  21  24
ATOM     24  C   UNL     1      -2.753  12.232  22.765  0.00  0.00    +0.000 C 
ATOM     25  C   UNL     1      -3.329  13.490  23.372  0.00  0.00    +0.000 C 
ATOM     26  C   UNL     1      -3.576  13.198  21.915  0.00  0.00    +0.000 C 
BRANCH  26  27
ATOM     27  C   UNL     1      -4.928  12.737  21.409  0.00  0.00    +0.000 A 
ATOM     28  C   UNL     1      -6.077  12.724  22.216  0.00  0.00    +0.000 A 
ATOM     29  C   UNL     1      -7.306  12.262  21.733  0.00  0.00    +0.000 A 
ATOM     30  C   UNL     1      -7.417  11.824  20.417  0.00  0.00    +0.000 A 
ATOM     31  C   UNL     1      -6.303  11.858  19.585  0.00  0.00    +0.000 A 
ATOM     32  C   UNL     1      -5.076  12.311  20.077  0.00  0.00    +0.000 A 
ENDBRANCH  26  27
ENDBRANCH  21  24
ENDBRANCH  19  22
ENDBRANCH  18  19
ENDBRANCH   1  18
TORSDOF 6
ENDMDL
