MODEL 1
REMARK VINA RESULT:      -7.9      0.000      0.000
REMARK  Name = 
REMARK  8 active torsions:
REMARK  status: ('A' for Active; 'I' for Inactive)
REMARK    1  A    between atoms: C_1  and  C_2
REMARK    2  A    between atoms: N_6  and  C_7
REMARK    3  A    between atoms: C_7  and  C_8
REMARK    4  A    between atoms: C_8  and  C_9
REMARK    5  A    between atoms: N_17  and  C_18
REMARK    6  A    between atoms: C_18  and  C_19
REMARK    7  A    between atoms: N_21  and  C_22
REMARK    8  A    between atoms: C_22  and  C_23
REMARK                            x       y       z     vdW  Elec       q    Type
REMARK                         _______ _______ _______ _____ _____    ______ ____
ROOT
ATOM      1  C   UNL     1       0.290  10.194  21.809  0.00  0.00    +0.000 C 
ATOM      2  C   UNL     1       0.900   9.314  20.754  0.00  0.00    +0.000 A 
ATOM      3  C   UNL     1       1.227   8.051  21.063  0.00  0.00    +0.000 A 
ATOM      4  N   UNL     1       1.851   7.154  20.241  0.00  0.00    +0.000 NA
ATOM      5  C   UNL     1       2.198   7.556  19.050  0.00  0.00    +0.000 A 
ATOM      6  N   UNL     1       2.879   6.713  18.185  0.00  0.00    +0.000 N 
ATOM      7  C   UNL     1       1.844   8.984  18.557  0.00  0.00    +0.000 A 
ATOM      8  O   UNL     1       2.157   9.298  17.413  0.00  0.00    +0.000 OA
ATOM      9  N   UNL     1       1.171   9.801  19.475  0.00  0.00    +0.000 N 
ATOM     10  H   UNL     1       3.006   7.097  17.249  0.00  0.00    +0.000 HD
ENDROOT
BRANCH   6  11
ATOM     11  C   UNL     1       2.651   5.275  18.274  0.00  0.00    +0.000 C 
BRANCH  11  12
ATOM     12  C   UNL     1       3.888   4.537  18.804  0.00  0.00    +0.000 C 
BRANCH  12  13
ATOM     13  C   UNL     1       4.992   4.499  17.772  0.00  0.00    +0.000 A 
ATOM     14  C   UNL     1       4.705   4.175  16.437  0.00  0.00    +0.000 A 
ATOM     15  C   UNL     1       5.731   4.106  15.487  0.00  0.00    +0.000 A 
ATOM     16  C   UNL     1       7.050   4.354  15.866  0.00  0.00    +0.000 A 
ATOM     17  C   UNL     1       7.345   4.668  17.190  0.00  0.00    +0.000 A 
ATOM     18  C   UNL     1       6.321   4.742  18.138  0.00  0.00    +0.000 A 
ENDBRANCH  12  13
ENDBRANCH  11  12
ENDBRANCH   6  11
BRANCH   9  19
ATOM     19  C   UNL     1       1.004  11.209  19.119  0.00  0.00    +0.000 C 
BRANCH  19  20
ATOM     20  C   UNL     1      -0.317  11.763  18.565  0.00  0.00    +0.000 C 
ATOM     21  O   UNL     1      -0.665  12.906  18.886  0.00  0.00    +0.000 OA
ATOM     22  N   UNL     1      -1.117  10.980  17.754  0.00  0.00    +0.000 N 
ATOM     23  H   UNL     1      -0.693  10.185  17.288  0.00  0.00    +0.000 HD
BRANCH  22  24
ATOM     24  C   UNL     1      -2.316  11.612  17.210  0.00  0.00    +0.000 C 
BRANCH  24  25
ATOM     25  C   UNL     1      -3.692  11.176  17.761  0.00  0.00    +0.000 C 
ATOM     26  C   UNL     1      -4.034  11.960  19.028  0.00  0.00    +0.000 C 
ATOM     27  N   UNL     1      -5.419  12.402  19.199  0.00  0.00    +0.000 NA
ATOM     28  C   UNL     1      -6.228  12.311  18.220  0.00  0.00    +0.000 C 
ATOM     29  N   UNL     1      -7.481  12.808  18.314  0.00  0.00    +0.000 N 
ATOM     30  N   UNL     1      -6.006  11.752  17.020  0.00  0.00    +0.000 N 
ATOM     31  C   UNL     1      -4.706  11.293  16.613  0.00  0.00    +0.000 C 
ATOM     32  H   UNL     1      -7.702  13.027  19.281  0.00  0.00    +0.000 HD
ATOM     33  H   UNL     1      -8.196  12.239  17.883  0.00  0.00    +0.000 HD
ATOM     34  H   UNL     1      -6.618  12.055  16.271  0.00  0.00    +0.000 HD
ENDBRANCH  24  25
ENDBRANCH  22  24
ENDBRANCH  19  20
ENDBRANCH   9  19
TORSDOF 7
ENDMDL
MODEL 2
REMARK VINA RESULT:      -7.7      5.741      8.882
REMARK  Name = 
REMARK  8 active torsions:
REMARK  status: ('A' for Active; 'I' for Inactive)
REMARK    1  A    between atoms: C_1  and  C_2
REMARK    2  A    between atoms: N_6  and  C_7
REMARK    3  A    between atoms: C_7  and  C_8
REMARK    4  A    between atoms: C_8  and  C_9
REMARK    5  A    between atoms: N_17  and  C_18
REMARK    6  A    between atoms: C_18  and  C_19
REMARK    7  A    between atoms: N_21  and  C_22
REMARK    8  A    between atoms: C_22  and  C_23
REMARK                            x       y       z     vdW  Elec       q    Type
REMARK                         _______ _______ _______ _____ _____    ______ ____
ROOT
ATOM      1  C   UNL     1       6.093   4.026  15.443  0.00  0.00    +0.000 C 
ATOM      2  C   UNL     1       6.621   5.039  16.420  0.00  0.00    +0.000 A 
ATOM      3  C   UNL     1       7.181   6.166  15.958  0.00  0.00    +0.000 A 
ATOM      4  N   UNL     1       7.767   7.145  16.711  0.00  0.00    +0.000 NA
ATOM      5  C   UNL     1       7.827   6.968  18.002  0.00  0.00    +0.000 A 
ATOM      6  N   UNL     1       8.452   7.897  18.819  0.00  0.00    +0.000 N 
ATOM      7  C   UNL     1       7.182   5.722  18.666  0.00  0.00    +0.000 A 
ATOM      8  O   UNL     1       7.230   5.626  19.888  0.00  0.00    +0.000 OA
ATOM      9  N   UNL     1       6.577   4.806  17.796  0.00  0.00    +0.000 N 
ATOM     10  H   UNL     1       8.348   7.708  19.815  0.00  0.00    +0.000 HD
ENDROOT
BRANCH   6  11
ATOM     11  C   UNL     1       8.459   9.300  18.419  0.00  0.00    +0.000 C 
BRANCH  11  12
ATOM     12  C   UNL     1       9.249  10.168  19.407  0.00  0.00    +0.000 C 
BRANCH  12  13
ATOM     13  C   UNL     1       9.720  11.451  18.759  0.00  0.00    +0.000 A 
ATOM     14  C   UNL     1       9.113  12.674  19.083  0.00  0.00    +0.000 A 
ATOM     15  C   UNL     1       9.524  13.858  18.459  0.00  0.00    +0.000 A 
ATOM     16  C   UNL     1      10.537  13.827  17.504  0.00  0.00    +0.000 A 
ATOM     17  C   UNL     1      11.140  12.616  17.169  0.00  0.00    +0.000 A 
ATOM     18  C   UNL     1      10.735  11.435  17.795  0.00  0.00    +0.000 A 
ENDBRANCH  12  13
ENDBRANCH  11  12
ENDBRANCH   6  11
BRANCH   9  19
ATOM     19  C   UNL     1       6.143   3.531  18.363  0.00  0.00    +0.000 C 
BRANCH  19  20
ATOM     20  C   UNL     1       4.678   3.255  18.731  0.00  0.00    +0.000 C 
ATOM     21  O   UNL     1       4.417   2.849  19.870  0.00  0.00    +0.000 OA
ATOM     22  N   UNL     1       3.678   3.422  17.792  0.00  0.00    +0.000 N 
ATOM     23  H   UNL     1       3.872   4.007  16.986  0.00  0.00    +0.000 HD
BRANCH  22  24
ATOM     24  C   UNL     1       2.307   3.212  18.248  0.00  0.00    +0.000 C 
BRANCH  24  25
ATOM     25  C   UNL     1       1.492   4.437  18.719  0.00  0.00    +0.000 C 
ATOM     26  C   UNL     1       1.326   4.417  20.238  0.00  0.00    +0.000 C 
ATOM     27  N   UNL     1       1.436   5.693  20.949  0.00  0.00    +0.000 NA
ATOM     28  C   UNL     1       1.867   6.718  20.329  0.00  0.00    +0.000 C 
ATOM     29  N   UNL     1       2.080   7.880  20.984  0.00  0.00    +0.000 N 
ATOM     30  N   UNL     1       2.161   6.824  19.023  0.00  0.00    +0.000 N 
ATOM     31  C   UNL     1       2.169   5.689  18.141  0.00  0.00    +0.000 C 
ATOM     32  H   UNL     1       1.655   7.849  21.906  0.00  0.00    +0.000 HD
ATOM     33  H   UNL     1       1.813   8.709  20.474  0.00  0.00    +0.000 HD
ATOM     34  H   UNL     1       2.787   7.580  18.771  0.00  0.00    +0.000 HD
ENDBRANCH  24  25
ENDBRANCH  22  24
ENDBRANCH  19  20
ENDBRANCH   9  19
TORSDOF 7
ENDMDL
MODEL 3
REMARK VINA RESULT:      -7.6      1.213      1.670
REMARK  Name = 
REMARK  8 active torsions:
REMARK  status: ('A' for Active; 'I' for Inactive)
REMARK    1  A    between atoms: C_1  and  C_2
REMARK    2  A    between atoms: N_6  and  C_7
REMARK    3  A    between atoms: C_7  and  C_8
REMARK    4  A    between atoms: C_8  and  C_9
REMARK    5  A    between atoms: N_17  and  C_18
REMARK    6  A    between atoms: C_18  and  C_19
REMARK    7  A    between atoms: N_21  and  C_22
REMARK    8  A    between atoms: C_22  and  C_23
REMARK                            x       y       z     vdW  Elec       q    Type
REMARK                         _______ _______ _______ _____ _____    ______ ____
ROOT
ATOM      1  C   UNL     1       0.144   9.545  22.032  0.00  0.00    +0.000 C 
ATOM      2  C   UNL     1       0.857   8.945  20.853  0.00  0.00    +0.000 A 
ATOM      3  C   UNL     1       1.415   7.732  20.972  0.00  0.00    +0.000 A 
ATOM      4  N   UNL     1       2.154   7.085  20.021  0.00  0.00    +0.000 NA
ATOM      5  C   UNL     1       2.377   7.705  18.895  0.00  0.00    +0.000 A 
ATOM      6  N   UNL     1       3.160   7.128  17.908  0.00  0.00    +0.000 N 
ATOM      7  C   UNL     1       1.755   9.100  18.617  0.00  0.00    +0.000 A 
ATOM      8  O   UNL     1       1.962   9.621  17.526  0.00  0.00    +0.000 OA
ATOM      9  N   UNL     1       0.986   9.646  19.653  0.00  0.00    +0.000 N 
ATOM     10  H   UNL     1       3.180   7.655  17.036  0.00  0.00    +0.000 HD
ENDROOT
BRANCH   6  11
ATOM     11  C   UNL     1       3.195   5.674  17.793  0.00  0.00    +0.000 C 
BRANCH  11  12
ATOM     12  C   UNL     1       4.401   5.198  16.972  0.00  0.00    +0.000 C 
BRANCH  12  13
ATOM     13  C   UNL     1       5.699   5.719  17.547  0.00  0.00    +0.000 A 
ATOM     14  C   UNL     1       6.221   5.173  18.729  0.00  0.00    +0.000 A 
ATOM     15  C   UNL     1       7.404   5.677  19.282  0.00  0.00    +0.000 A 
ATOM     16  C   UNL     1       8.070   6.733  18.661  0.00  0.00    +0.000 A 
ATOM     17  C   UNL     1       7.555   7.287  17.492  0.00  0.00    +0.000 A 
ATOM     18  C   UNL     1       6.377   6.781  16.936  0.00  0.00    +0.000 A 
ENDBRANCH  12  13
ENDBRANCH  11  12
ENDBRANCH   6  11
BRANCH   9  19
ATOM     19  C   UNL     1       0.558  11.036  19.506  0.00  0.00    +0.000 C 
BRANCH  19  20
ATOM     20  C   UNL     1      -0.485  11.466  18.465  0.00  0.00    +0.000 C 
ATOM     21  O   UNL     1      -0.687  12.673  18.288  0.00  0.00    +0.000 OA
ATOM     22  N   UNL     1      -1.210  10.517  17.768  0.00  0.00    +0.000 N 
ATOM     23  H   UNL     1      -0.841   9.573  17.722  0.00  0.00    +0.000 HD
BRANCH  22  24
ATOM     24  C   UNL     1      -2.125  11.011  16.744  0.00  0.00    +0.000 C 
BRANCH  24  25
ATOM     25  C   UNL     1      -3.579  10.490  16.743  0.00  0.00    +0.000 C 
ATOM     26  C   UNL     1      -3.955   9.951  18.122  0.00  0.00    +0.000 C 
ATOM     27  N   UNL     1      -5.302  10.239  18.619  0.00  0.00    +0.000 NA
ATOM     28  C   UNL     1      -6.027  11.086  18.003  0.00  0.00    +0.000 C 
ATOM     29  N   UNL     1      -7.230  11.451  18.497  0.00  0.00    +0.000 N 
ATOM     30  N   UNL     1      -5.753  11.714  16.848  0.00  0.00    +0.000 N 
ATOM     31  C   UNL     1      -4.472  11.619  16.204  0.00  0.00    +0.000 C 
ATOM     32  H   UNL     1      -7.514  10.818  19.239  0.00  0.00    +0.000 HD
ATOM     33  H   UNL     1      -7.955  11.568  17.804  0.00  0.00    +0.000 HD
ATOM     34  H   UNL     1      -6.265  12.573  16.682  0.00  0.00    +0.000 HD
ENDBRANCH  24  25
ENDBRANCH  22  24
ENDBRANCH  19  20
ENDBRANCH   9  19
TORSDOF 7
ENDMDL
MODEL 4
REMARK VINA RESULT:      -7.6      2.400      3.213
REMARK  Name = 
REMARK  8 active torsions:
REMARK  status: ('A' for Active; 'I' for Inactive)
REMARK    1  A    between atoms: C_1  and  C_2
REMARK    2  A    between atoms: N_6  and  C_7
REMARK    3  A    between atoms: C_7  and  C_8
REMARK    4  A    between atoms: C_8  and  C_9
REMARK    5  A    between atoms: N_17  and  C_18
REMARK    6  A    between atoms: C_18  and  C_19
REMARK    7  A    between atoms: N_21  and  C_22
REMARK    8  A    between atoms: C_22  and  C_23
REMARK                            x       y       z     vdW  Elec       q    Type
REMARK                         _______ _______ _______ _____ _____    ______ ____
ROOT
ATOM      1  C   UNL     1       0.577   9.400  21.993  0.00  0.00    +0.000 C 
ATOM      2  C   UNL     1       1.162   8.710  20.793  0.00  0.00    +0.000 A 
ATOM      3  C   UNL     1       1.686   7.484  20.933  0.00  0.00    +0.000 A 
ATOM      4  N   UNL     1       2.315   6.758  19.960  0.00  0.00    +0.000 NA
ATOM      5  C   UNL     1       2.458   7.308  18.786  0.00  0.00    +0.000 A 
ATOM      6  N   UNL     1       3.131   6.647  17.769  0.00  0.00    +0.000 N 
ATOM      7  C   UNL     1       1.863   8.709  18.484  0.00  0.00    +0.000 A 
ATOM      8  O   UNL     1       1.990   9.161  17.350  0.00  0.00    +0.000 OA
ATOM      9  N   UNL     1       1.208   9.340  19.549  0.00  0.00    +0.000 N 
ATOM     10  H   UNL     1       3.092   7.125  16.870  0.00  0.00    +0.000 HD
ENDROOT
BRANCH   6  11
ATOM     11  C   UNL     1       3.105   5.189  17.735  0.00  0.00    +0.000 C 
BRANCH  11  12
ATOM     12  C   UNL     1       4.364   4.614  17.071  0.00  0.00    +0.000 C 
BRANCH  12  13
ATOM     13  C   UNL     1       5.615   5.293  17.580  0.00  0.00    +0.000 A 
ATOM     14  C   UNL     1       6.107   5.004  18.862  0.00  0.00    +0.000 A 
ATOM     15  C   UNL     1       7.245   5.658  19.349  0.00  0.00    +0.000 A 
ATOM     16  C   UNL     1       7.894   6.607  18.563  0.00  0.00    +0.000 A 
ATOM     17  C   UNL     1       7.408   6.907  17.292  0.00  0.00    +0.000 A 
ATOM     18  C   UNL     1       6.275   6.252  16.803  0.00  0.00    +0.000 A 
ENDBRANCH  12  13
ENDBRANCH  11  12
ENDBRANCH   6  11
BRANCH   9  19
ATOM     19  C   UNL     1       0.817  10.736  19.360  0.00  0.00    +0.000 C 
BRANCH  19  20
ATOM     20  C   UNL     1      -0.646  11.194  19.439  0.00  0.00    +0.000 C 
ATOM     21  O   UNL     1      -1.480  10.656  18.701  0.00  0.00    +0.000 OA
ATOM     22  N   UNL     1      -1.013  12.217  20.295  0.00  0.00    +0.000 N 
ATOM     23  H   UNL     1      -0.394  12.439  21.067  0.00  0.00    +0.000 HD
BRANCH  22  24
ATOM     24  C   UNL     1      -2.436  12.538  20.363  0.00  0.00    +0.000 C 
BRANCH  24  25
ATOM     25  C   UNL     1      -2.983  13.186  21.653  0.00  0.00    +0.000 C 
ATOM     26  C   UNL     1      -4.480  13.463  21.520  0.00  0.00    +0.000 C 
ATOM     27  N   UNL     1      -5.323  13.210  22.691  0.00  0.00    +0.000 NA
ATOM     28  C   UNL     1      -4.836  12.583  23.686  0.00  0.00    +0.000 C 
ATOM     29  N   UNL     1      -5.618  12.242  24.734  0.00  0.00    +0.000 N 
ATOM     30  N   UNL     1      -3.567  12.183  23.865  0.00  0.00    +0.000 N 
ATOM     31  C   UNL     1      -2.575  12.285  22.829  0.00  0.00    +0.000 C 
ATOM     32  H   UNL     1      -6.506  12.732  24.686  0.00  0.00    +0.000 HD
ATOM     33  H   UNL     1      -5.181  12.341  25.639  0.00  0.00    +0.000 HD
ATOM     34  H   UNL     1      -3.430  11.432  24.530  0.00  0.00    +0.000 HD
ENDBRANCH  24  25
ENDBRANCH  22  24
ENDBRANCH  19  20
ENDBRANCH   9  19
TORSDOF 7
ENDMDL
MODEL 5
REMARK VINA RESULT:      -7.6      3.866      5.708
REMARK  Name = 
REMARK  8 active torsions:
REMARK  status: ('A' for Active; 'I' for Inactive)
REMARK    1  A    between atoms: C_1  and  C_2
REMARK    2  A    between atoms: N_6  and  C_7
REMARK    3  A    between atoms: C_7  and  C_8
REMARK    4  A    between atoms: C_8  and  C_9
REMARK    5  A    between atoms: N_17  and  C_18
REMARK    6  A    between atoms: C_18  and  C_19
REMARK    7  A    between atoms: N_21  and  C_22
REMARK    8  A    between atoms: C_22  and  C_23
REMARK                            x       y       z     vdW  Elec       q    Type
REMARK                         _______ _______ _______ _____ _____    ______ ____
ROOT
ATOM      1  C   UNL     1       1.254   3.188  18.501  0.00  0.00    +0.000 C 
ATOM      2  C   UNL     1       2.676   3.653  18.355  0.00  0.00    +0.000 A 
ATOM      3  C   UNL     1       3.512   2.964  17.564  0.00  0.00    +0.000 A 
ATOM      4  N   UNL     1       4.844   3.216  17.383  0.00  0.00    +0.000 NA
ATOM      5  C   UNL     1       5.378   4.194  18.061  0.00  0.00    +0.000 A 
ATOM      6  N   UNL     1       6.733   4.470  17.964  0.00  0.00    +0.000 N 
ATOM      7  C   UNL     1       4.510   5.091  18.984  0.00  0.00    +0.000 A 
ATOM      8  O   UNL     1       5.054   6.023  19.566  0.00  0.00    +0.000 OA
ATOM      9  N   UNL     1       3.150   4.759  19.060  0.00  0.00    +0.000 N 
ATOM     10  H   UNL     1       7.018   5.316  18.455  0.00  0.00    +0.000 HD
ENDROOT
BRANCH   6  11
ATOM     11  C   UNL     1       7.426   4.177  16.714  0.00  0.00    +0.000 C 
BRANCH  11  12
ATOM     12  C   UNL     1       7.207   5.280  15.670  0.00  0.00    +0.000 C 
BRANCH  12  13
ATOM     13  C   UNL     1       6.900   4.698  14.309  0.00  0.00    +0.000 A 
ATOM     14  C   UNL     1       7.694   5.030  13.200  0.00  0.00    +0.000 A 
ATOM     15  C   UNL     1       7.391   4.520  11.933  0.00  0.00    +0.000 A 
ATOM     16  C   UNL     1       6.290   3.681  11.763  0.00  0.00    +0.000 A 
ATOM     17  C   UNL     1       5.491   3.353  12.856  0.00  0.00    +0.000 A 
ATOM     18  C   UNL     1       5.796   3.858  14.123  0.00  0.00    +0.000 A 
ENDBRANCH  12  13
ENDBRANCH  11  12
ENDBRANCH   6  11
BRANCH   9  19
ATOM     19  C   UNL     1       2.350   5.450  20.069  0.00  0.00    +0.000 C 
BRANCH  19  20
ATOM     20  C   UNL     1       1.944   6.924  19.924  0.00  0.00    +0.000 C 
ATOM     21  O   UNL     1       2.064   7.469  18.821  0.00  0.00    +0.000 OA
ATOM     22  N   UNL     1       1.489   7.634  21.020  0.00  0.00    +0.000 N 
ATOM     23  H   UNL     1       1.139   7.112  21.816  0.00  0.00    +0.000 HD
BRANCH  22  24
ATOM     24  C   UNL     1       1.053   9.006  20.778  0.00  0.00    +0.000 C 
BRANCH  24  25
ATOM     25  C   UNL     1       0.781   9.918  21.995  0.00  0.00    +0.000 C 
ATOM     26  C   UNL     1       0.589  11.366  21.547  0.00  0.00    +0.000 C 
ATOM     27  N   UNL     1      -0.454  12.150  22.212  0.00  0.00    +0.000 NA
ATOM     28  C   UNL     1      -1.289  11.559  22.971  0.00  0.00    +0.000 C 
ATOM     29  N   UNL     1      -2.324  12.237  23.514  0.00  0.00    +0.000 N 
ATOM     30  N   UNL     1      -1.292  10.269  23.342  0.00  0.00    +0.000 N 
ATOM     31  C   UNL     1      -0.389   9.303  22.778  0.00  0.00    +0.000 C 
ATOM     32  H   UNL     1      -2.188  13.237  23.405  0.00  0.00    +0.000 HD
ATOM     33  H   UNL     1      -2.540  11.988  24.468  0.00  0.00    +0.000 HD
ATOM     34  H   UNL     1      -2.182   9.904  23.661  0.00  0.00    +0.000 HD
ENDBRANCH  24  25
ENDBRANCH  22  24
ENDBRANCH  19  20
ENDBRANCH   9  19
TORSDOF 7
ENDMDL
MODEL 6
REMARK VINA RESULT:      -7.4      1.247      1.650
REMARK  Name = 
REMARK  8 active torsions:
REMARK  status: ('A' for Active; 'I' for Inactive)
REMARK    1  A    between atoms: C_1  and  C_2
REMARK    2  A    between atoms: N_6  and  C_7
REMARK    3  A    between atoms: C_7  and  C_8
REMARK    4  A    between atoms: C_8  and  C_9
REMARK    5  A    between atoms: N_17  and  C_18
REMARK    6  A    between atoms: C_18  and  C_19
REMARK    7  A    between atoms: N_21  and  C_22
REMARK    8  A    between atoms: C_22  and  C_23
REMARK                            x       y       z     vdW  Elec       q    Type
REMARK                         _______ _______ _______ _____ _____    ______ ____
ROOT
ATOM      1  C   UNL     1      -0.321  10.573  21.964  0.00  0.00    +0.000 C 
ATOM      2  C   UNL     1       0.404   9.744  20.941  0.00  0.00    +0.000 A 
ATOM      3  C   UNL     1       0.946   8.574  21.310  0.00  0.00    +0.000 A 
ATOM      4  N   UNL     1       1.692   7.745  20.519  0.00  0.00    +0.000 NA
ATOM      5  C   UNL     1       1.939   8.127  19.297  0.00  0.00    +0.000 A 
ATOM      6  N   UNL     1       2.732   7.358  18.458  0.00  0.00    +0.000 N 
ATOM      7  C   UNL     1       1.338   9.443  18.736  0.00  0.00    +0.000 A 
ATOM      8  O   UNL     1       1.568   9.734  17.567  0.00  0.00    +0.000 OA
ATOM      9  N   UNL     1       0.559  10.191  19.628  0.00  0.00    +0.000 N 
ATOM     10  H   UNL     1       2.771   7.700  17.499  0.00  0.00    +0.000 HD
ENDROOT
BRANCH   6  11
ATOM     11  C   UNL     1       2.752   5.910  18.636  0.00  0.00    +0.000 C 
BRANCH  11  12
ATOM     12  C   UNL     1       4.142   5.408  19.049  0.00  0.00    +0.000 C 
BRANCH  12  13
ATOM     13  C   UNL     1       5.045   5.234  17.849  0.00  0.00    +0.000 A 
ATOM     14  C   UNL     1       4.723   4.305  16.847  0.00  0.00    +0.000 A 
ATOM     15  C   UNL     1       5.576   4.119  15.753  0.00  0.00    +0.000 A 
ATOM     16  C   UNL     1       6.756   4.853  15.655  0.00  0.00    +0.000 A 
ATOM     17  C   UNL     1       7.088   5.771  16.648  0.00  0.00    +0.000 A 
ATOM     18  C   UNL     1       6.236   5.963  17.739  0.00  0.00    +0.000 A 
ENDBRANCH  12  13
ENDBRANCH  11  12
ENDBRANCH   6  11
BRANCH   9  19
ATOM     19  C   UNL     1       0.149  11.527  19.200  0.00  0.00    +0.000 C 
BRANCH  19  20
ATOM     20  C   UNL     1      -1.147  11.774  18.415  0.00  0.00    +0.000 C 
ATOM     21  O   UNL     1      -1.129  12.576  17.474  0.00  0.00    +0.000 OA
ATOM     22  N   UNL     1      -2.318  11.136  18.780  0.00  0.00    +0.000 N 
ATOM     23  H   UNL     1      -2.248  10.299  19.349  0.00  0.00    +0.000 HD
BRANCH  22  24
ATOM     24  C   UNL     1      -3.484  11.369  17.933  0.00  0.00    +0.000 C 
BRANCH  24  25
ATOM     25  C   UNL     1      -4.730  12.029  18.562  0.00  0.00    +0.000 C 
ATOM     26  C   UNL     1      -5.964  11.150  18.357  0.00  0.00    +0.000 C 
ATOM     27  N   UNL     1      -6.911  11.039  19.468  0.00  0.00    +0.000 NA
ATOM     28  C   UNL     1      -6.585  11.490  20.613  0.00  0.00    +0.000 C 
ATOM     29  N   UNL     1      -7.393  11.309  21.680  0.00  0.00    +0.000 N 
ATOM     30  N   UNL     1      -5.477  12.174  20.941  0.00  0.00    +0.000 N 
ATOM     31  C   UNL     1      -4.387  12.361  20.023  0.00  0.00    +0.000 C 
ATOM     32  H   UNL     1      -8.309  10.990  21.379  0.00  0.00    +0.000 HD
ATOM     33  H   UNL     1      -7.456  12.100  22.305  0.00  0.00    +0.000 HD
ATOM     34  H   UNL     1      -5.226  12.162  21.923  0.00  0.00    +0.000 HD
ENDBRANCH  24  25
ENDBRANCH  22  24
ENDBRANCH  19  20
ENDBRANCH   9  19
TORSDOF 7
ENDMDL
MODEL 7
REMARK VINA RESULT:      -7.4      2.312      3.056
REMARK  Name = 
REMARK  8 active torsions:
REMARK  status: ('A' for Active; 'I' for Inactive)
REMARK    1  A    between atoms: C_1  and  C_2
REMARK    2  A    between atoms: N_6  and  C_7
REMARK    3  A    between atoms: C_7  and  C_8
REMARK    4  A    between atoms: C_8  and  C_9
REMARK    5  A    between atoms: N_17  and  C_18
REMARK    6  A    between atoms: C_18  and  C_19
REMARK    7  A    between atoms: N_21  and  C_22
REMARK    8  A    between atoms: C_22  and  C_23
REMARK                            x       y       z     vdW  Elec       q    Type
REMARK                         _______ _______ _______ _____ _____    ______ ____
ROOT
ATOM      1  C   UNL     1       0.200   9.668  22.074  0.00  0.00    +0.000 C 
ATOM      2  C   UNL     1       0.868   9.022  20.892  0.00  0.00    +0.000 A 
ATOM      3  C   UNL     1       1.432   7.814  21.038  0.00  0.00    +0.000 A 
ATOM      4  N   UNL     1       2.135   7.131  20.084  0.00  0.00    +0.000 NA
ATOM      5  C   UNL     1       2.312   7.706  18.927  0.00  0.00    +0.000 A 
ATOM      6  N   UNL     1       3.058   7.091  17.934  0.00  0.00    +0.000 N 
ATOM      7  C   UNL     1       1.678   9.089  18.619  0.00  0.00    +0.000 A 
ATOM      8  O   UNL     1       1.841   9.566  17.501  0.00  0.00    +0.000 OA
ATOM      9  N   UNL     1       0.949   9.676  19.662  0.00  0.00    +0.000 N 
ATOM     10  H   UNL     1       3.042   7.582  17.041  0.00  0.00    +0.000 HD
ENDROOT
BRANCH   6  11
ATOM     11  C   UNL     1       3.091   5.633  17.874  0.00  0.00    +0.000 C 
BRANCH  11  12
ATOM     12  C   UNL     1       4.306   5.124  17.087  0.00  0.00    +0.000 C 
BRANCH  12  13
ATOM     13  C   UNL     1       5.597   5.668  17.654  0.00  0.00    +0.000 A 
ATOM     14  C   UNL     1       6.328   6.639  16.952  0.00  0.00    +0.000 A 
ATOM     15  C   UNL     1       7.542   7.118  17.459  0.00  0.00    +0.000 A 
ATOM     16  C   UNL     1       8.036   6.625  18.665  0.00  0.00    +0.000 A 
ATOM     17  C   UNL     1       7.323   5.655  19.365  0.00  0.00    +0.000 A 
ATOM     18  C   UNL     1       6.108   5.180  18.863  0.00  0.00    +0.000 A 
ENDBRANCH  12  13
ENDBRANCH  11  12
ENDBRANCH   6  11
BRANCH   9  19
ATOM     19  C   UNL     1       0.513  11.058  19.477  0.00  0.00    +0.000 C 
BRANCH  19  20
ATOM     20  C   UNL     1      -0.945  11.422  19.159  0.00  0.00    +0.000 C 
ATOM     21  O   UNL     1      -1.406  11.121  18.052  0.00  0.00    +0.000 OA
ATOM     22  N   UNL     1      -1.711  12.108  20.084  0.00  0.00    +0.000 N 
ATOM     23  H   UNL     1      -1.417  12.091  21.054  0.00  0.00    +0.000 HD
BRANCH  22  24
ATOM     24  C   UNL     1      -3.108  12.345  19.731  0.00  0.00    +0.000 C 
BRANCH  24  25
ATOM     25  C   UNL     1      -3.915  13.364  20.566  0.00  0.00    +0.000 C 
ATOM     26  C   UNL     1      -4.928  12.644  21.455  0.00  0.00    +0.000 C 
ATOM     27  N   UNL     1      -5.120  13.151  22.815  0.00  0.00    +0.000 NA
ATOM     28  C   UNL     1      -4.307  14.016  23.278  0.00  0.00    +0.000 C 
ATOM     29  N   UNL     1      -4.395  14.424  24.563  0.00  0.00    +0.000 N 
ATOM     30  N   UNL     1      -3.305  14.631  22.630  0.00  0.00    +0.000 N 
ATOM     31  C   UNL     1      -2.905  14.259  21.301  0.00  0.00    +0.000 C 
ATOM     32  H   UNL     1      -5.274  14.121  24.971  0.00  0.00    +0.000 HD
ATOM     33  H   UNL     1      -4.232  15.410  24.707  0.00  0.00    +0.000 HD
ATOM     34  H   UNL     1      -2.575  15.021  23.215  0.00  0.00    +0.000 HD
ENDBRANCH  24  25
ENDBRANCH  22  24
ENDBRANCH  19  20
ENDBRANCH   9  19
TORSDOF 7
ENDMDL
MODEL 8
REMARK VINA RESULT:      -7.4      5.876      8.976
REMARK  Name = 
REMARK  8 active torsions:
REMARK  status: ('A' for Active; 'I' for Inactive)
REMARK    1  A    between atoms: C_1  and  C_2
REMARK    2  A    between atoms: N_6  and  C_7
REMARK    3  A    between atoms: C_7  and  C_8
REMARK    4  A    between atoms: C_8  and  C_9
REMARK    5  A    between atoms: N_17  and  C_18
REMARK    6  A    between atoms: C_18  and  C_19
REMARK    7  A    between atoms: N_21  and  C_22
REMARK    8  A    between atoms: C_22  and  C_23
REMARK                            x       y       z     vdW  Elec       q    Type
REMARK                         _______ _______ _______ _____ _____    ______ ____
ROOT
ATOM      1  C   UNL     1       5.151   4.623  15.711  0.00  0.00    +0.000 C 
ATOM      2  C   UNL     1       5.999   5.486  16.603  0.00  0.00    +0.000 A 
ATOM      3  C   UNL     1       6.385   6.695  16.170  0.00  0.00    +0.000 A 
ATOM      4  N   UNL     1       7.210   7.563  16.830  0.00  0.00    +0.000 NA
ATOM      5  C   UNL     1       7.706   7.183  17.975  0.00  0.00    +0.000 A 
ATOM      6  N   UNL     1       8.589   7.994  18.672  0.00  0.00    +0.000 N 
ATOM      7  C   UNL     1       7.307   5.822  18.603  0.00  0.00    +0.000 A 
ATOM      8  O   UNL     1       7.769   5.532  19.702  0.00  0.00    +0.000 OA
ATOM      9  N   UNL     1       6.425   5.034  17.852  0.00  0.00    +0.000 N 
ATOM     10  H   UNL     1       8.829   7.643  19.598  0.00  0.00    +0.000 HD
ENDROOT
BRANCH   6  11
ATOM     11  C   UNL     1       8.482   9.442  18.531  0.00  0.00    +0.000 C 
BRANCH  11  12
ATOM     12  C   UNL     1       9.355  10.178  19.556  0.00  0.00    +0.000 C 
BRANCH  12  13
ATOM     13  C   UNL     1      10.184  11.258  18.899  0.00  0.00    +0.000 A 
ATOM     14  C   UNL     1      11.508  11.484  19.308  0.00  0.00    +0.000 A 
ATOM     15  C   UNL     1      12.265  12.506  18.725  0.00  0.00    +0.000 A 
ATOM     16  C   UNL     1      11.705  13.313  17.737  0.00  0.00    +0.000 A 
ATOM     17  C   UNL     1      10.389  13.102  17.331  0.00  0.00    +0.000 A 
ATOM     18  C   UNL     1       9.633  12.079  17.907  0.00  0.00    +0.000 A 
ENDBRANCH  12  13
ENDBRANCH  11  12
ENDBRANCH   6  11
BRANCH   9  19
ATOM     19  C   UNL     1       6.190   3.667  18.314  0.00  0.00    +0.000 C 
BRANCH  19  20
ATOM     20  C   UNL     1       4.873   3.242  18.979  0.00  0.00    +0.000 C 
ATOM     21  O   UNL     1       4.791   3.274  20.213  0.00  0.00    +0.000 OA
ATOM     22  N   UNL     1       3.814   2.797  18.210  0.00  0.00    +0.000 N 
ATOM     23  H   UNL     1       3.802   3.041  17.226  0.00  0.00    +0.000 HD
BRANCH  22  24
ATOM     24  C   UNL     1       2.574   2.486  18.917  0.00  0.00    +0.000 C 
BRANCH  24  25
ATOM     25  C   UNL     1       1.630   3.650  19.292  0.00  0.00    +0.000 C 
ATOM     26  C   UNL     1       1.754   3.981  20.779  0.00  0.00    +0.000 C 
ATOM     27  N   UNL     1       1.734   5.394  21.164  0.00  0.00    +0.000 NA
ATOM     28  C   UNL     1       1.828   6.288  20.261  0.00  0.00    +0.000 C 
ATOM     29  N   UNL     1       1.919   7.594  20.593  0.00  0.00    +0.000 N 
ATOM     30  N   UNL     1       1.848   6.111  18.930  0.00  0.00    +0.000 N 
ATOM     31  C   UNL     1       1.923   4.809  18.327  0.00  0.00    +0.000 C 
ATOM     32  H   UNL     1       1.687   7.727  21.572  0.00  0.00    +0.000 HD
ATOM     33  H   UNL     1       1.401   8.221  19.994  0.00  0.00    +0.000 HD
ATOM     34  H   UNL     1       2.252   6.868  18.391  0.00  0.00    +0.000 HD
ENDBRANCH  24  25
ENDBRANCH  22  24
ENDBRANCH  19  20
ENDBRANCH   9  19
TORSDOF 7
ENDMDL
MODEL 9
REMARK VINA RESULT:      -7.3      3.629      5.956
REMARK  Name = 
REMARK  8 active torsions:
REMARK  status: ('A' for Active; 'I' for Inactive)
REMARK    1  A    between atoms: C_1  and  C_2
REMARK    2  A    between atoms: N_6  and  C_7
REMARK    3  A    between atoms: C_7  and  C_8
REMARK    4  A    between atoms: C_8  and  C_9
REMARK    5  A    between atoms: N_17  and  C_18
REMARK    6  A    between atoms: C_18  and  C_19
REMARK    7  A    between atoms: N_21  and  C_22
REMARK    8  A    between atoms: C_22  and  C_23
REMARK                            x       y       z     vdW  Elec       q    Type
REMARK                         _______ _______ _______ _____ _____    ______ ____
ROOT
ATOM      1  C   UNL     1      -1.131  10.880  23.070  0.00  0.00    +0.000 C 
ATOM      2  C   UNL     1      -0.374  10.186  21.973  0.00  0.00    +0.000 A 
ATOM      3  C   UNL     1       0.448   9.173  22.283  0.00  0.00    +0.000 A 
ATOM      4  N   UNL     1       1.254   8.492  21.413  0.00  0.00    +0.000 NA
ATOM      5  C   UNL     1       1.264   8.872  20.165  0.00  0.00    +0.000 A 
ATOM      6  N   UNL     1       2.096   8.258  19.242  0.00  0.00    +0.000 N 
ATOM      7  C   UNL     1       0.330  10.008  19.671  0.00  0.00    +0.000 A 
ATOM      8  O   UNL     1       0.349  10.298  18.479  0.00  0.00    +0.000 OA
ATOM      9  N   UNL     1      -0.478  10.607  20.646  0.00  0.00    +0.000 N 
ATOM     10  H   UNL     1       1.945   8.564  18.282  0.00  0.00    +0.000 HD
ENDROOT
BRANCH   6  11
ATOM     11  C   UNL     1       2.449   6.855  19.430  0.00  0.00    +0.000 C 
BRANCH  11  12
ATOM     12  C   UNL     1       2.326   6.058  18.124  0.00  0.00    +0.000 C 
BRANCH  12  13
ATOM     13  C   UNL     1       2.057   4.595  18.394  0.00  0.00    +0.000 A 
ATOM     14  C   UNL     1       1.324   4.205  19.526  0.00  0.00    +0.000 A 
ATOM     15  C   UNL     1       1.104   2.850  19.796  0.00  0.00    +0.000 A 
ATOM     16  C   UNL     1       1.619   1.876  18.943  0.00  0.00    +0.000 A 
ATOM     17  C   UNL     1       2.355   2.252  17.822  0.00  0.00    +0.000 A 
ATOM     18  C   UNL     1       2.571   3.606  17.548  0.00  0.00    +0.000 A 
ENDBRANCH  12  13
ENDBRANCH  11  12
ENDBRANCH   6  11
BRANCH   9  19
ATOM     19  C   UNL     1      -1.215  11.808  20.259  0.00  0.00    +0.000 C 
BRANCH  19  20
ATOM     20  C   UNL     1      -0.551  13.191  20.196  0.00  0.00    +0.000 C 
ATOM     21  O   UNL     1      -0.768  13.998  21.107  0.00  0.00    +0.000 OA
ATOM     22  N   UNL     1       0.244  13.536  19.118  0.00  0.00    +0.000 N 
ATOM     23  H   UNL     1       0.626  12.790  18.548  0.00  0.00    +0.000 HD
BRANCH  22  24
ATOM     24  C   UNL     1       0.898  14.841  19.176  0.00  0.00    +0.000 C 
BRANCH  24  25
ATOM     25  C   UNL     1       2.269  15.008  18.485  0.00  0.00    +0.000 C 
ATOM     26  C   UNL     1       2.457  16.448  18.009  0.00  0.00    +0.000 C 
ATOM     27  N   UNL     1       3.783  17.048  18.170  0.00  0.00    +0.000 NA
ATOM     28  C   UNL     1       4.658  16.449  18.876  0.00  0.00    +0.000 C 
ATOM     29  N   UNL     1       5.852  17.028  19.130  0.00  0.00    +0.000 N 
ATOM     30  N   UNL     1       4.564  15.236  19.445  0.00  0.00    +0.000 N 
ATOM     31  C   UNL     1       3.339  14.483  19.456  0.00  0.00    +0.000 C 
ATOM     32  H   UNL     1       5.990  17.832  18.525  0.00  0.00    +0.000 HD
ATOM     33  H   UNL     1       6.641  16.399  19.108  0.00  0.00    +0.000 HD
ATOM     34  H   UNL     1       5.192  15.063  20.221  0.00  0.00    +0.000 HD
ENDBRANCH  24  25
ENDBRANCH  22  24
ENDBRANCH  19  20
ENDBRANCH   9  19
TORSDOF 7
ENDMDL
