MODEL 1
REMARK VINA RESULT:      -6.4      0.000      0.000
REMARK  Name = 
REMARK  6 active torsions:
REMARK  status: ('A' for Active; 'I' for Inactive)
REMARK    1  A    between atoms: C_1  and  O_2
REMARK    2  A    between atoms: O_2  and  C_3
REMARK    3  A    between atoms: N_9  and  C_10
REMARK    4  A    between atoms: C_10  and  C_11
REMARK    5  A    between atoms: C_11  and  C_12
REMARK    6  A    between atoms: C_11  and  N_13
REMARK                            x       y       z     vdW  Elec       q    Type
REMARK                         _______ _______ _______ _____ _____    ______ ____
ROOT
ATOM      1  C   UNL     1       2.293   3.878  19.567  0.00  0.00    +0.000 A 
ATOM      2  C   UNL     1       1.930   5.158  19.980  0.00  0.00    +0.000 A 
ATOM      3  C   UNL     1       2.479   6.293  19.377  0.00  0.00    +0.000 A 
ATOM      4  C   UNL     1       3.383   6.139  18.313  0.00  0.00    +0.000 A 
ATOM      5  C   UNL     1       4.121   7.028  17.509  0.00  0.00    +0.000 A 
ATOM      6  N   UNL     1       4.834   6.399  16.580  0.00  0.00    +0.000 NA
ATOM      7  N   UNL     1       4.561   5.090  16.784  0.00  0.00    +0.000 N 
ATOM      8  C   UNL     1       3.726   4.859  17.862  0.00  0.00    +0.000 A 
ATOM      9  C   UNL     1       3.211   3.712  18.499  0.00  0.00    +0.000 A 
ATOM     10 CL   UNL     1       3.697   2.113  18.054  0.00  0.00    +0.000 Cl
ENDROOT
BRANCH   1  12
ATOM     11  C   UNL     1       1.589   2.709  21.533  0.00  0.00    +0.000 C 
ATOM     12  O   UNL     1       1.803   2.724  20.129  0.00  0.00    +0.000 OA
ENDBRANCH   1  12
BRANCH   7  13
ATOM     13  C   UNL     1       5.191   4.144  15.884  0.00  0.00    +0.000 C 
BRANCH  13  14
ATOM     14  C   UNL     1       5.977   4.780  14.719  0.00  0.00    +0.000 C 
ATOM     15  C   UNL     1       6.195   3.850  13.525  0.00  0.00    +0.000 C 
BRANCH  14  16
ATOM     16  N   UNL     1       7.305   5.238  15.172  0.00  0.00    +0.000 NA
ATOM     17  H   UNL     1       7.451   4.982  16.148  0.00  0.00    +0.000 HD
ATOM     18  H   UNL     1       7.357   6.255  15.126  0.00  0.00    +0.000 HD
ENDBRANCH  14  16
ENDBRANCH  13  14
ENDBRANCH   7  13
TORSDOF 4
ENDMDL
MODEL 2
REMARK VINA RESULT:      -6.4      0.788      1.099
REMARK  Name = 
REMARK  6 active torsions:
REMARK  status: ('A' for Active; 'I' for Inactive)
REMARK    1  A    between atoms: C_1  and  O_2
REMARK    2  A    between atoms: O_2  and  C_3
REMARK    3  A    between atoms: N_9  and  C_10
REMARK    4  A    between atoms: C_10  and  C_11
REMARK    5  A    between atoms: C_11  and  C_12
REMARK    6  A    between atoms: C_11  and  N_13
REMARK                            x       y       z     vdW  Elec       q    Type
REMARK                         _______ _______ _______ _____ _____    ______ ____
ROOT
ATOM      1  C   UNL     1       2.409   4.009  19.594  0.00  0.00    +0.000 A 
ATOM      2  C   UNL     1       1.997   5.279  19.996  0.00  0.00    +0.000 A 
ATOM      3  C   UNL     1       2.494   6.428  19.374  0.00  0.00    +0.000 A 
ATOM      4  C   UNL     1       3.394   6.297  18.303  0.00  0.00    +0.000 A 
ATOM      5  C   UNL     1       4.088   7.205  17.482  0.00  0.00    +0.000 A 
ATOM      6  N   UNL     1       4.818   6.595  16.554  0.00  0.00    +0.000 NA
ATOM      7  N   UNL     1       4.601   5.277  16.776  0.00  0.00    +0.000 N 
ATOM      8  C   UNL     1       3.786   5.027  17.865  0.00  0.00    +0.000 A 
ATOM      9  C   UNL     1       3.324   3.867  18.521  0.00  0.00    +0.000 A 
ATOM     10 CL   UNL     1       3.870   2.284  18.090  0.00  0.00    +0.000 Cl
ENDROOT
BRANCH   1  12
ATOM     11  C   UNL     1       1.759   2.841  21.580  0.00  0.00    +0.000 C 
ATOM     12  O   UNL     1       1.971   2.843  20.175  0.00  0.00    +0.000 OA
ENDBRANCH   1  12
BRANCH   7  13
ATOM     13  C   UNL     1       5.261   4.348  15.882  0.00  0.00    +0.000 C 
BRANCH  13  14
ATOM     14  C   UNL     1       6.802   4.371  15.940  0.00  0.00    +0.000 C 
ATOM     15  C   UNL     1       7.376   4.534  17.347  0.00  0.00    +0.000 C 
BRANCH  14  16
ATOM     16  N   UNL     1       7.341   5.467  15.112  0.00  0.00    +0.000 NA
ATOM     17  H   UNL     1       6.655   5.749  14.412  0.00  0.00    +0.000 HD
ATOM     18  H   UNL     1       8.163   5.147  14.601  0.00  0.00    +0.000 HD
ENDBRANCH  14  16
ENDBRANCH  13  14
ENDBRANCH   7  13
TORSDOF 4
ENDMDL
MODEL 3
REMARK VINA RESULT:      -6.2      2.424      3.345
REMARK  Name = 
REMARK  6 active torsions:
REMARK  status: ('A' for Active; 'I' for Inactive)
REMARK    1  A    between atoms: C_1  and  O_2
REMARK    2  A    between atoms: O_2  and  C_3
REMARK    3  A    between atoms: N_9  and  C_10
REMARK    4  A    between atoms: C_10  and  C_11
REMARK    5  A    between atoms: C_11  and  C_12
REMARK    6  A    between atoms: C_11  and  N_13
REMARK                            x       y       z     vdW  Elec       q    Type
REMARK                         _______ _______ _______ _____ _____    ______ ____
ROOT
ATOM      1  C   UNL     1       2.171   6.352  19.910  0.00  0.00    +0.000 A 
ATOM      2  C   UNL     1       1.628   5.404  20.775  0.00  0.00    +0.000 A 
ATOM      3  C   UNL     1       1.780   4.036  20.532  0.00  0.00    +0.000 A 
ATOM      4  C   UNL     1       2.523   3.613  19.418  0.00  0.00    +0.000 A 
ATOM      5  C   UNL     1       2.855   2.358  18.874  0.00  0.00    +0.000 A 
ATOM      6  N   UNL     1       3.632   2.461  17.800  0.00  0.00    +0.000 NA
ATOM      7  N   UNL     1       3.803   3.794  17.642  0.00  0.00    +0.000 N 
ATOM      8  C   UNL     1       3.106   4.554  18.563  0.00  0.00    +0.000 A 
ATOM      9  C   UNL     1       2.915   5.935  18.778  0.00  0.00    +0.000 A 
ATOM     10 CL   UNL     1       3.517   7.131  17.685  0.00  0.00    +0.000 Cl
ENDROOT
BRANCH   1  12
ATOM     11  C   UNL     1       1.193   8.168  21.126  0.00  0.00    +0.000 C 
ATOM     12  O   UNL     1       2.043   7.709  20.084  0.00  0.00    +0.000 OA
ENDBRANCH   1  12
BRANCH   7  13
ATOM     13  C   UNL     1       4.645   4.217  16.541  0.00  0.00    +0.000 C 
BRANCH  13  14
ATOM     14  C   UNL     1       6.039   4.736  16.949  0.00  0.00    +0.000 C 
ATOM     15  C   UNL     1       7.110   4.578  15.871  0.00  0.00    +0.000 C 
BRANCH  14  16
ATOM     16  N   UNL     1       6.521   4.043  18.160  0.00  0.00    +0.000 NA
ATOM     17  H   UNL     1       5.791   4.029  18.871  0.00  0.00    +0.000 HD
ATOM     18  H   UNL     1       7.310   4.551  18.561  0.00  0.00    +0.000 HD
ENDBRANCH  14  16
ENDBRANCH  13  14
ENDBRANCH   7  13
TORSDOF 4
ENDMDL
MODEL 4
REMARK VINA RESULT:      -6.1      2.715      3.684
REMARK  Name = 
REMARK  6 active torsions:
REMARK  status: ('A' for Active; 'I' for Inactive)
REMARK    1  A    between atoms: C_1  and  O_2
REMARK    2  A    between atoms: O_2  and  C_3
REMARK    3  A    between atoms: N_9  and  C_10
REMARK    4  A    between atoms: C_10  and  C_11
REMARK    5  A    between atoms: C_11  and  C_12
REMARK    6  A    between atoms: C_11  and  N_13
REMARK                            x       y       z     vdW  Elec       q    Type
REMARK                         _______ _______ _______ _____ _____    ______ ____
ROOT
ATOM      1  C   UNL     1       2.183   6.532  19.859  0.00  0.00    +0.000 A 
ATOM      2  C   UNL     1       1.669   5.695  20.848  0.00  0.00    +0.000 A 
ATOM      3  C   UNL     1       2.149   4.392  21.010  0.00  0.00    +0.000 A 
ATOM      4  C   UNL     1       3.190   3.934  20.186  0.00  0.00    +0.000 A 
ATOM      5  C   UNL     1       3.885   2.716  20.060  0.00  0.00    +0.000 A 
ATOM      6  N   UNL     1       4.841   2.771  19.138  0.00  0.00    +0.000 NA
ATOM      7  N   UNL     1       4.765   4.033  18.657  0.00  0.00    +0.000 N 
ATOM      8  C   UNL     1       3.741   4.777  19.215  0.00  0.00    +0.000 A 
ATOM      9  C   UNL     1       3.228   6.076  19.017  0.00  0.00    +0.000 A 
ATOM     10 CL   UNL     1       3.797   7.111  17.754  0.00  0.00    +0.000 Cl
ENDROOT
BRANCH   1  12
ATOM     11  C   UNL     1       1.255   8.550  20.752  0.00  0.00    +0.000 C 
ATOM     12  O   UNL     1       1.744   7.815  19.639  0.00  0.00    +0.000 OA
ENDBRANCH   1  12
BRANCH   7  13
ATOM     13  C   UNL     1       5.724   4.400  17.634  0.00  0.00    +0.000 C 
BRANCH  13  14
ATOM     14  C   UNL     1       7.065   4.945  18.165  0.00  0.00    +0.000 C 
ATOM     15  C   UNL     1       7.346   6.400  17.789  0.00  0.00    +0.000 C 
BRANCH  14  16
ATOM     16  N   UNL     1       8.193   4.134  17.668  0.00  0.00    +0.000 NA
ATOM     17  H   UNL     1       8.266   4.216  16.654  0.00  0.00    +0.000 HD
ATOM     18  H   UNL     1       8.028   3.148  17.869  0.00  0.00    +0.000 HD
ENDBRANCH  14  16
ENDBRANCH  13  14
ENDBRANCH   7  13
TORSDOF 4
ENDMDL
MODEL 5
REMARK VINA RESULT:      -6.0      1.661      1.996
REMARK  Name = 
REMARK  6 active torsions:
REMARK  status: ('A' for Active; 'I' for Inactive)
REMARK    1  A    between atoms: C_1  and  O_2
REMARK    2  A    between atoms: O_2  and  C_3
REMARK    3  A    between atoms: N_9  and  C_10
REMARK    4  A    between atoms: C_10  and  C_11
REMARK    5  A    between atoms: C_11  and  C_12
REMARK    6  A    between atoms: C_11  and  N_13
REMARK                            x       y       z     vdW  Elec       q    Type
REMARK                         _______ _______ _______ _____ _____    ______ ____
ROOT
ATOM      1  C   UNL     1       2.555   4.639  20.631  0.00  0.00    +0.000 A 
ATOM      2  C   UNL     1       1.745   5.773  20.651  0.00  0.00    +0.000 A 
ATOM      3  C   UNL     1       1.947   6.819  19.747  0.00  0.00    +0.000 A 
ATOM      4  C   UNL     1       2.959   6.707  18.779  0.00  0.00    +0.000 A 
ATOM      5  C   UNL     1       3.441   7.544  17.755  0.00  0.00    +0.000 A 
ATOM      6  N   UNL     1       4.417   6.977  17.053  0.00  0.00    +0.000 NA
ATOM      7  N   UNL     1       4.575   5.762  17.629  0.00  0.00    +0.000 N 
ATOM      8  C   UNL     1       3.754   5.557  18.723  0.00  0.00    +0.000 A 
ATOM      9  C   UNL     1       3.584   4.520  19.664  0.00  0.00    +0.000 A 
ATOM     10 CL   UNL     1       4.618   3.135  19.707  0.00  0.00    +0.000 Cl
ENDROOT
BRANCH   1  12
ATOM     11  C   UNL     1       1.328   2.696  21.303  0.00  0.00    +0.000 C 
ATOM     12  O   UNL     1       2.419   3.586  21.502  0.00  0.00    +0.000 OA
ENDBRANCH   1  12
BRANCH   7  13
ATOM     13  C   UNL     1       5.575   4.889  17.047  0.00  0.00    +0.000 C 
BRANCH  13  14
ATOM     14  C   UNL     1       6.928   4.865  17.787  0.00  0.00    +0.000 C 
ATOM     15  C   UNL     1       7.481   6.247  18.132  0.00  0.00    +0.000 C 
BRANCH  14  16
ATOM     16  N   UNL     1       7.951   4.165  16.986  0.00  0.00    +0.000 NA
ATOM     17  H   UNL     1       7.665   4.127  16.008  0.00  0.00    +0.000 HD
ATOM     18  H   UNL     1       8.041   3.200  17.302  0.00  0.00    +0.000 HD
ENDBRANCH  14  16
ENDBRANCH  13  14
ENDBRANCH   7  13
TORSDOF 4
ENDMDL
MODEL 6
REMARK VINA RESULT:      -6.0      2.542      3.898
REMARK  Name = 
REMARK  6 active torsions:
REMARK  status: ('A' for Active; 'I' for Inactive)
REMARK    1  A    between atoms: C_1  and  O_2
REMARK    2  A    between atoms: O_2  and  C_3
REMARK    3  A    between atoms: N_9  and  C_10
REMARK    4  A    between atoms: C_10  and  C_11
REMARK    5  A    between atoms: C_11  and  C_12
REMARK    6  A    between atoms: C_11  and  N_13
REMARK                            x       y       z     vdW  Elec       q    Type
REMARK                         _______ _______ _______ _____ _____    ______ ____
ROOT
ATOM      1  C   UNL     1       2.014   7.198  19.859  0.00  0.00    +0.000 A 
ATOM      2  C   UNL     1       2.230   8.144  18.859  0.00  0.00    +0.000 A 
ATOM      3  C   UNL     1       3.088   7.879  17.788  0.00  0.00    +0.000 A 
ATOM      4  C   UNL     1       3.713   6.624  17.701  0.00  0.00    +0.000 A 
ATOM      5  C   UNL     1       4.623   6.036  16.802  0.00  0.00    +0.000 A 
ATOM      6  N   UNL     1       4.909   4.777  17.121  0.00  0.00    +0.000 NA
ATOM      7  N   UNL     1       4.183   4.546  18.239  0.00  0.00    +0.000 N 
ATOM      8  C   UNL     1       3.475   5.651  18.678  0.00  0.00    +0.000 A 
ATOM      9  C   UNL     1       2.647   5.932  19.784  0.00  0.00    +0.000 A 
ATOM     10 CL   UNL     1       2.416   4.803  21.074  0.00  0.00    +0.000 Cl
ENDROOT
BRANCH   1  12
ATOM     11  C   UNL     1       0.720   8.722  21.175  0.00  0.00    +0.000 C 
ATOM     12  O   UNL     1       1.197   7.403  20.944  0.00  0.00    +0.000 OA
ENDBRANCH   1  12
BRANCH   7  13
ATOM     13  C   UNL     1       4.275   3.219  18.814  0.00  0.00    +0.000 C 
BRANCH  13  14
ATOM     14  C   UNL     1       3.429   2.142  18.105  0.00  0.00    +0.000 C 
ATOM     15  C   UNL     1       1.955   2.134  18.508  0.00  0.00    +0.000 C 
BRANCH  14  16
ATOM     16  N   UNL     1       3.968   0.794  18.370  0.00  0.00    +0.000 NA
ATOM     17  H   UNL     1       3.636   0.138  17.665  0.00  0.00    +0.000 HD
ATOM     18  H   UNL     1       3.628   0.453  19.269  0.00  0.00    +0.000 HD
ENDBRANCH  14  16
ENDBRANCH  13  14
ENDBRANCH   7  13
TORSDOF 4
ENDMDL
MODEL 7
REMARK VINA RESULT:      -5.8      2.645      5.096
REMARK  Name = 
REMARK  6 active torsions:
REMARK  status: ('A' for Active; 'I' for Inactive)
REMARK    1  A    between atoms: C_1  and  O_2
REMARK    2  A    between atoms: O_2  and  C_3
REMARK    3  A    between atoms: N_9  and  C_10
REMARK    4  A    between atoms: C_10  and  C_11
REMARK    5  A    between atoms: C_11  and  C_12
REMARK    6  A    between atoms: C_11  and  N_13
REMARK                            x       y       z     vdW  Elec       q    Type
REMARK                         _______ _______ _______ _____ _____    ______ ____
ROOT
ATOM      1  C   UNL     1       5.168   4.503  16.299  0.00  0.00    +0.000 A 
ATOM      2  C   UNL     1       5.160   5.885  16.118  0.00  0.00    +0.000 A 
ATOM      3  C   UNL     1       4.452   6.722  16.986  0.00  0.00    +0.000 A 
ATOM      4  C   UNL     1       3.768   6.162  18.078  0.00  0.00    +0.000 A 
ATOM      5  C   UNL     1       2.964   6.682  19.109  0.00  0.00    +0.000 A 
ATOM      6  N   UNL     1       2.556   5.743  19.956  0.00  0.00    +0.000 NA
ATOM      7  N   UNL     1       3.095   4.601  19.470  0.00  0.00    +0.000 N 
ATOM      8  C   UNL     1       3.800   4.779  18.293  0.00  0.00    +0.000 A 
ATOM      9  C   UNL     1       4.474   3.928  17.393  0.00  0.00    +0.000 A 
ATOM     10 CL   UNL     1       4.442   2.207  17.553  0.00  0.00    +0.000 Cl
ENDROOT
BRANCH   1  12
ATOM     11  C   UNL     1       6.080   4.036  14.136  0.00  0.00    +0.000 C 
ATOM     12  O   UNL     1       5.829   3.627  15.474  0.00  0.00    +0.000 OA
ENDBRANCH   1  12
BRANCH   7  13
ATOM     13  C   UNL     1       2.836   3.386  20.217  0.00  0.00    +0.000 C 
BRANCH  13  14
ATOM     14  C   UNL     1       1.408   2.824  20.072  0.00  0.00    +0.000 C 
ATOM     15  C   UNL     1       1.073   2.311  18.671  0.00  0.00    +0.000 C 
BRANCH  14  16
ATOM     16  N   UNL     1       0.404   3.849  20.420  0.00  0.00    +0.000 NA
ATOM     17  H   UNL     1      -0.091   3.581  21.270  0.00  0.00    +0.000 HD
ATOM     18  H   UNL     1      -0.297   3.915  19.682  0.00  0.00    +0.000 HD
ENDBRANCH  14  16
ENDBRANCH  13  14
ENDBRANCH   7  13
TORSDOF 4
ENDMDL
MODEL 8
REMARK VINA RESULT:      -5.7      2.573      5.177
REMARK  Name = 
REMARK  6 active torsions:
REMARK  status: ('A' for Active; 'I' for Inactive)
REMARK    1  A    between atoms: C_1  and  O_2
REMARK    2  A    between atoms: O_2  and  C_3
REMARK    3  A    between atoms: N_9  and  C_10
REMARK    4  A    between atoms: C_10  and  C_11
REMARK    5  A    between atoms: C_11  and  C_12
REMARK    6  A    between atoms: C_11  and  N_13
REMARK                            x       y       z     vdW  Elec       q    Type
REMARK                         _______ _______ _______ _____ _____    ______ ____
ROOT
ATOM      1  C   UNL     1       5.323   4.688  16.271  0.00  0.00    +0.000 A 
ATOM      2  C   UNL     1       5.650   6.036  16.133  0.00  0.00    +0.000 A 
ATOM      3  C   UNL     1       4.893   7.029  16.761  0.00  0.00    +0.000 A 
ATOM      4  C   UNL     1       3.808   6.658  17.573  0.00  0.00    +0.000 A 
ATOM      5  C   UNL     1       2.848   7.366  18.320  0.00  0.00    +0.000 A 
ATOM      6  N   UNL     1       2.018   6.560  18.974  0.00  0.00    +0.000 NA
ATOM      7  N   UNL     1       2.440   5.316  18.648  0.00  0.00    +0.000 N 
ATOM      8  C   UNL     1       3.493   5.306  17.751  0.00  0.00    +0.000 A 
ATOM      9  C   UNL     1       4.225   4.304  17.081  0.00  0.00    +0.000 A 
ATOM     10 CL   UNL     1       3.801   2.631  17.178  0.00  0.00    +0.000 Cl
ENDROOT
BRANCH   1  12
ATOM     11  C   UNL     1       6.264   3.767  14.271  0.00  0.00    +0.000 C 
ATOM     12  O   UNL     1       6.016   3.667  15.667  0.00  0.00    +0.000 OA
ENDBRANCH   1  12
BRANCH   7  13
ATOM     13  C   UNL     1       1.725   4.207  19.247  0.00  0.00    +0.000 C 
BRANCH  13  14
ATOM     14  C   UNL     1       2.278   3.734  20.606  0.00  0.00    +0.000 C 
ATOM     15  C   UNL     1       1.355   2.781  21.365  0.00  0.00    +0.000 C 
BRANCH  14  16
ATOM     16  N   UNL     1       2.550   4.885  21.490  0.00  0.00    +0.000 NA
ATOM     17  H   UNL     1       1.682   5.221  21.906  0.00  0.00    +0.000 HD
ATOM     18  H   UNL     1       2.932   5.658  20.946  0.00  0.00    +0.000 HD
ENDBRANCH  14  16
ENDBRANCH  13  14
ENDBRANCH   7  13
TORSDOF 4
ENDMDL
MODEL 9
REMARK VINA RESULT:      -5.7      3.182      5.091
REMARK  Name = 
REMARK  6 active torsions:
REMARK  status: ('A' for Active; 'I' for Inactive)
REMARK    1  A    between atoms: C_1  and  O_2
REMARK    2  A    between atoms: O_2  and  C_3
REMARK    3  A    between atoms: N_9  and  C_10
REMARK    4  A    between atoms: C_10  and  C_11
REMARK    5  A    between atoms: C_11  and  C_12
REMARK    6  A    between atoms: C_11  and  N_13
REMARK                            x       y       z     vdW  Elec       q    Type
REMARK                         _______ _______ _______ _____ _____    ______ ____
ROOT
ATOM      1  C   UNL     1       2.720   7.449  18.504  0.00  0.00    +0.000 A 
ATOM      2  C   UNL     1       3.669   7.561  17.490  0.00  0.00    +0.000 A 
ATOM      3  C   UNL     1       4.625   6.562  17.285  0.00  0.00    +0.000 A 
ATOM      4  C   UNL     1       4.603   5.411  18.090  0.00  0.00    +0.000 A 
ATOM      5  C   UNL     1       5.396   4.251  18.173  0.00  0.00    +0.000 A 
ATOM      6  N   UNL     1       4.953   3.400  19.093  0.00  0.00    +0.000 NA
ATOM      7  N   UNL     1       3.866   4.013  19.615  0.00  0.00    +0.000 N 
ATOM      8  C   UNL     1       3.630   5.268  19.086  0.00  0.00    +0.000 A 
ATOM      9  C   UNL     1       2.694   6.295  19.327  0.00  0.00    +0.000 A 
ATOM     10 CL   UNL     1       1.550   6.214  20.621  0.00  0.00    +0.000 Cl
ENDROOT
BRANCH   1  12
ATOM     11  C   UNL     1       1.769   9.581  17.976  0.00  0.00    +0.000 C 
ATOM     12  O   UNL     1       1.765   8.401  18.767  0.00  0.00    +0.000 OA
ENDBRANCH   1  12
BRANCH   7  13
ATOM     13  C   UNL     1       3.144   3.294  20.647  0.00  0.00    +0.000 C 
BRANCH  13  14
ATOM     14  C   UNL     1       1.925   2.491  20.149  0.00  0.00    +0.000 C 
ATOM     15  C   UNL     1       1.663   2.611  18.648  0.00  0.00    +0.000 C 
BRANCH  14  16
ATOM     16  N   UNL     1       0.697   2.915  20.849  0.00  0.00    +0.000 NA
ATOM     17  H   UNL     1       0.735   2.633  21.827  0.00  0.00    +0.000 HD
ATOM     18  H   UNL     1      -0.114   2.450  20.442  0.00  0.00    +0.000 HD
ENDBRANCH  14  16
ENDBRANCH  13  14
ENDBRANCH   7  13
TORSDOF 4
ENDMDL
