MODEL 1
REMARK VINA RESULT:      -7.9      0.000      0.000
REMARK  Name = 
REMARK  14 active torsions:
REMARK  status: ('A' for Active; 'I' for Inactive)
REMARK    1  A    between atoms: C_1  and  C_2
REMARK    2  A    between atoms: C_2  and  C_3
REMARK    3  A    between atoms: C_12  and  O_13
REMARK    4  A    between atoms: O_13  and  C_14
REMARK    5  A    between atoms: C_14  and  C_15
REMARK    6  A    between atoms: N_17  and  C_18
REMARK    7  A    between atoms: C_18  and  C_19
REMARK    8  A    between atoms: C_19  and  C_20
REMARK    9  A    between atoms: C_20  and  C_21
REMARK   10  A    between atoms: C_21  and  C_22
REMARK   11  A    between atoms: C_22  and  C_23
REMARK   12  A    between atoms: C_23  and  O_25
REMARK   13  A    between atoms: C_28  and  C_29
REMARK   14  A    between atoms: C_28  and  C_30
REMARK                            x       y       z     vdW  Elec       q    Type
REMARK                         _______ _______ _______ _____ _____    ______ ____
ROOT
ATOM      1  C   UNL     1       3.420   3.949  19.168  0.00  0.00    +0.000 A 
ATOM      2  C   UNL     1       2.961   3.297  20.247  0.00  0.00    +0.000 A 
ATOM      3  C   UNL     1       2.157   3.906  21.309  0.00  0.00    +0.000 A 
ATOM      4  O   UNL     1       1.792   3.265  22.283  0.00  0.00    +0.000 OA
ATOM      5  O   UNL     1       1.869   5.240  21.145  0.00  0.00    +0.000 OA
ATOM      6  C   UNL     1       2.304   5.979  20.020  0.00  0.00    +0.000 A 
ATOM      7  C   UNL     1       1.900   7.324  20.014  0.00  0.00    +0.000 A 
ATOM      8  C   UNL     1       2.260   8.103  18.923  0.00  0.00    +0.000 A 
ATOM      9  C   UNL     1       3.024   7.564  17.885  0.00  0.00    +0.000 A 
ATOM     10  C   UNL     1       3.424   6.217  17.895  0.00  0.00    +0.000 A 
ATOM     11  C   UNL     1       3.071   5.388  18.992  0.00  0.00    +0.000 A 
ATOM     12  O   UNL     1       1.910   9.417  18.776  0.00  0.00    +0.000 OA
ATOM     13  C   UNL     1       0.860   9.901  19.632  0.00  0.00    +0.000 C 
ATOM     14  C   UNL     1       0.997  11.428  19.619  0.00  0.00    +0.000 C 
ATOM     15  C   UNL     1      -0.499   9.517  19.024  0.00  0.00    +0.000 C 
ATOM     16  C   UNL     1       1.034   9.402  21.073  0.00  0.00    +0.000 C 
ATOM     17  C   UNL     1       1.060   7.882  21.127  0.00  0.00    +0.000 C 
ENDROOT
BRANCH   1  19
ATOM     18  C   UNL     1       3.613   2.113  17.426  0.00  0.00    +0.000 C 
ATOM     19  C   UNL     1       4.324   3.207  18.207  0.00  0.00    +0.000 C 
ENDBRANCH   1  19
BRANCH  10  20
ATOM     20  O   UNL     1       4.140   5.660  16.864  0.00  0.00    +0.000 OA
BRANCH  20  21
ATOM     21  C   UNL     1       5.099   6.445  16.159  0.00  0.00    +0.000 C 
BRANCH  21  22
ATOM     22  C   UNL     1       6.350   6.591  17.031  0.00  0.00    +0.000 C 
ATOM     23  O   UNL     1       6.853   5.627  17.613  0.00  0.00    +0.000 OA
ATOM     24  N   UNL     1       6.861   7.872  17.137  0.00  0.00    +0.000 N 
ATOM     25  H   UNL     1       6.437   8.630  16.614  0.00  0.00    +0.000 HD
BRANCH  24  26
ATOM     26  C   UNL     1       8.048   8.129  17.931  0.00  0.00    +0.000 C 
BRANCH  26  27
ATOM     27  C   UNL     1       8.485   9.592  17.884  0.00  0.00    +0.000 C 
BRANCH  27  28
ATOM     28  C   UNL     1       9.148  10.036  19.193  0.00  0.00    +0.000 C 
BRANCH  28  29
ATOM     29  C   UNL     1      10.161  11.153  18.946  0.00  0.00    +0.000 C 
BRANCH  29  30
ATOM     30  C   UNL     1       9.596  12.544  19.250  0.00  0.00    +0.000 C 
BRANCH  30  31
ATOM     31  C   UNL     1       9.505  13.371  17.986  0.00  0.00    +0.000 C 
ATOM     32  O   UNL     1      10.285  14.256  17.667  0.00  0.00    +0.000 OA
BRANCH  31  33
ATOM     33  O   UNL     1       8.448  13.035  17.210  0.00  0.00    +0.000 OA
ATOM     34  H   UNL     1       7.642  12.814  17.711  0.00  0.00    +0.000 HD
ENDBRANCH  31  33
ENDBRANCH  30  31
ENDBRANCH  29  30
ENDBRANCH  28  29
ENDBRANCH  27  28
ENDBRANCH  26  27
ENDBRANCH  24  26
ENDBRANCH  21  22
ENDBRANCH  20  21
ENDBRANCH  10  20
TORSDOF 11
ENDMDL
MODEL 2
REMARK VINA RESULT:      -7.7      1.045      1.182
REMARK  Name = 
REMARK  14 active torsions:
REMARK  status: ('A' for Active; 'I' for Inactive)
REMARK    1  A    between atoms: C_1  and  C_2
REMARK    2  A    between atoms: C_2  and  C_3
REMARK    3  A    between atoms: C_12  and  O_13
REMARK    4  A    between atoms: O_13  and  C_14
REMARK    5  A    between atoms: C_14  and  C_15
REMARK    6  A    between atoms: N_17  and  C_18
REMARK    7  A    between atoms: C_18  and  C_19
REMARK    8  A    between atoms: C_19  and  C_20
REMARK    9  A    between atoms: C_20  and  C_21
REMARK   10  A    between atoms: C_21  and  C_22
REMARK   11  A    between atoms: C_22  and  C_23
REMARK   12  A    between atoms: C_23  and  O_25
REMARK   13  A    between atoms: C_28  and  C_29
REMARK   14  A    between atoms: C_28  and  C_30
REMARK                            x       y       z     vdW  Elec       q    Type
REMARK                         _______ _______ _______ _____ _____    ______ ____
ROOT
ATOM      1  C   UNL     1       3.505   3.923  19.165  0.00  0.00    +0.000 A 
ATOM      2  C   UNL     1       3.015   3.317  20.258  0.00  0.00    +0.000 A 
ATOM      3  C   UNL     1       2.192   3.973  21.276  0.00  0.00    +0.000 A 
ATOM      4  O   UNL     1       1.799   3.372  22.265  0.00  0.00    +0.000 OA
ATOM      5  O   UNL     1       1.918   5.301  21.054  0.00  0.00    +0.000 OA
ATOM      6  C   UNL     1       2.385   5.993  19.911  0.00  0.00    +0.000 A 
ATOM      7  C   UNL     1       1.992   7.339  19.843  0.00  0.00    +0.000 A 
ATOM      8  C   UNL     1       2.383   8.072  18.733  0.00  0.00    +0.000 A 
ATOM      9  C   UNL     1       3.167   7.488  17.734  0.00  0.00    +0.000 A 
ATOM     10  C   UNL     1       3.555   6.140  17.806  0.00  0.00    +0.000 A 
ATOM     11  C   UNL     1       3.171   5.357  18.925  0.00  0.00    +0.000 A 
ATOM     12  O   UNL     1       2.047   9.382  18.526  0.00  0.00    +0.000 OA
ATOM     13  C   UNL     1       0.980   9.906  19.338  0.00  0.00    +0.000 C 
ATOM     14  C   UNL     1       1.130  11.431  19.269  0.00  0.00    +0.000 C 
ATOM     15  C   UNL     1      -0.366   9.508  18.713  0.00  0.00    +0.000 C 
ATOM     16  C   UNL     1       1.117   9.462  20.800  0.00  0.00    +0.000 C 
ATOM     17  C   UNL     1       1.130   7.946  20.914  0.00  0.00    +0.000 C 
ENDROOT
BRANCH   1  19
ATOM     18  C   UNL     1       3.737   1.980  17.548  0.00  0.00    +0.000 C 
ATOM     19  C   UNL     1       4.425   3.138  18.255  0.00  0.00    +0.000 C 
ENDBRANCH   1  19
BRANCH  10  20
ATOM     20  O   UNL     1       4.291   5.539  16.814  0.00  0.00    +0.000 OA
BRANCH  20  21
ATOM     21  C   UNL     1       5.138   6.326  15.980  0.00  0.00    +0.000 C 
BRANCH  21  22
ATOM     22  C   UNL     1       6.493   6.493  16.674  0.00  0.00    +0.000 C 
ATOM     23  O   UNL     1       7.318   5.577  16.718  0.00  0.00    +0.000 OA
ATOM     24  N   UNL     1       6.718   7.724  17.262  0.00  0.00    +0.000 N 
ATOM     25  H   UNL     1       6.028   8.460  17.172  0.00  0.00    +0.000 HD
BRANCH  24  26
ATOM     26  C   UNL     1       7.970   7.999  17.941  0.00  0.00    +0.000 C 
BRANCH  26  27
ATOM     27  C   UNL     1       8.382   9.467  17.853  0.00  0.00    +0.000 C 
BRANCH  27  28
ATOM     28  C   UNL     1       9.124   9.933  19.111  0.00  0.00    +0.000 C 
BRANCH  28  29
ATOM     29  C   UNL     1       9.838  11.262  18.869  0.00  0.00    +0.000 C 
BRANCH  29  30
ATOM     30  C   UNL     1      11.009  11.491  19.830  0.00  0.00    +0.000 C 
BRANCH  30  31
ATOM     31  C   UNL     1      11.081  12.944  20.248  0.00  0.00    +0.000 C 
ATOM     32  O   UNL     1      10.398  13.460  21.119  0.00  0.00    +0.000 OA
BRANCH  31  33
ATOM     33  O   UNL     1      12.003  13.647  19.550  0.00  0.00    +0.000 OA
ATOM     34  H   UNL     1      12.915  13.323  19.657  0.00  0.00    +0.000 HD
ENDBRANCH  31  33
ENDBRANCH  30  31
ENDBRANCH  29  30
ENDBRANCH  28  29
ENDBRANCH  27  28
ENDBRANCH  26  27
ENDBRANCH  24  26
ENDBRANCH  21  22
ENDBRANCH  20  21
ENDBRANCH  10  20
TORSDOF 11
ENDMDL
MODEL 3
REMARK VINA RESULT:      -7.4      3.951      8.095
REMARK  Name = 
REMARK  14 active torsions:
REMARK  status: ('A' for Active; 'I' for Inactive)
REMARK    1  A    between atoms: C_1  and  C_2
REMARK    2  A    between atoms: C_2  and  C_3
REMARK    3  A    between atoms: C_12  and  O_13
REMARK    4  A    between atoms: O_13  and  C_14
REMARK    5  A    between atoms: C_14  and  C_15
REMARK    6  A    between atoms: N_17  and  C_18
REMARK    7  A    between atoms: C_18  and  C_19
REMARK    8  A    between atoms: C_19  and  C_20
REMARK    9  A    between atoms: C_20  and  C_21
REMARK   10  A    between atoms: C_21  and  C_22
REMARK   11  A    between atoms: C_22  and  C_23
REMARK   12  A    between atoms: C_23  and  O_25
REMARK   13  A    between atoms: C_28  and  C_29
REMARK   14  A    between atoms: C_28  and  C_30
REMARK                            x       y       z     vdW  Elec       q    Type
REMARK                         _______ _______ _______ _____ _____    ______ ____
ROOT
ATOM      1  C   UNL     1       1.749   6.243  20.479  0.00  0.00    +0.000 A 
ATOM      2  C   UNL     1       1.674   5.103  21.183  0.00  0.00    +0.000 A 
ATOM      3  C   UNL     1       2.370   3.862  20.835  0.00  0.00    +0.000 A 
ATOM      4  O   UNL     1       2.240   2.847  21.502  0.00  0.00    +0.000 OA
ATOM      5  O   UNL     1       3.150   3.915  19.705  0.00  0.00    +0.000 OA
ATOM      6  C   UNL     1       3.288   5.091  18.930  0.00  0.00    +0.000 A 
ATOM      7  C   UNL     1       4.139   4.963  17.822  0.00  0.00    +0.000 A 
ATOM      8  C   UNL     1       4.351   6.086  17.035  0.00  0.00    +0.000 A 
ATOM      9  C   UNL     1       3.711   7.292  17.329  0.00  0.00    +0.000 A 
ATOM     10  C   UNL     1       2.863   7.416  18.442  0.00  0.00    +0.000 A 
ATOM     11  C   UNL     1       2.625   6.290  19.272  0.00  0.00    +0.000 A 
ATOM     12  O   UNL     1       5.176   6.108  15.944  0.00  0.00    +0.000 OA
ATOM     13  C   UNL     1       6.098   5.011  15.814  0.00  0.00    +0.000 C 
ATOM     14  C   UNL     1       6.528   5.014  14.341  0.00  0.00    +0.000 C 
ATOM     15  C   UNL     1       7.328   5.283  16.694  0.00  0.00    +0.000 C 
ATOM     16  C   UNL     1       5.422   3.669  16.127  0.00  0.00    +0.000 C 
ATOM     17  C   UNL     1       4.838   3.664  17.531  0.00  0.00    +0.000 C 
ENDROOT
BRANCH   1  19
ATOM     18  C   UNL     1       1.609   8.388  21.830  0.00  0.00    +0.000 C 
ATOM     19  C   UNL     1       0.891   7.414  20.908  0.00  0.00    +0.000 C 
ENDBRANCH   1  19
BRANCH  10  20
ATOM     20  O   UNL     1       2.258   8.605  18.770  0.00  0.00    +0.000 OA
BRANCH  20  21
ATOM     21  C   UNL     1       1.762   9.458  17.741  0.00  0.00    +0.000 C 
BRANCH  21  22
ATOM     22  C   UNL     1       0.941  10.579  18.386  0.00  0.00    +0.000 C 
ATOM     23  O   UNL     1       1.348  11.198  19.373  0.00  0.00    +0.000 OA
ATOM     24  N   UNL     1      -0.286  10.834  17.803  0.00  0.00    +0.000 N 
ATOM     25  H   UNL     1      -0.567  10.326  16.973  0.00  0.00    +0.000 HD
BRANCH  24  26
ATOM     26  C   UNL     1      -1.147  11.879  18.325  0.00  0.00    +0.000 C 
BRANCH  26  27
ATOM     27  C   UNL     1      -2.270  11.336  19.206  0.00  0.00    +0.000 C 
BRANCH  27  28
ATOM     28  C   UNL     1      -3.656  11.732  18.680  0.00  0.00    +0.000 C 
BRANCH  28  29
ATOM     29  C   UNL     1      -4.169  10.714  17.662  0.00  0.00    +0.000 C 
BRANCH  29  30
ATOM     30  C   UNL     1      -4.179  11.261  16.231  0.00  0.00    +0.000 C 
BRANCH  30  31
ATOM     31  C   UNL     1      -3.395  10.354  15.307  0.00  0.00    +0.000 C 
ATOM     32  O   UNL     1      -3.639  10.175  14.123  0.00  0.00    +0.000 OA
BRANCH  31  33
ATOM     33  O   UNL     1      -2.361   9.738  15.926  0.00  0.00    +0.000 OA
ATOM     34  H   UNL     1      -1.486   9.968  15.563  0.00  0.00    +0.000 HD
ENDBRANCH  31  33
ENDBRANCH  30  31
ENDBRANCH  29  30
ENDBRANCH  28  29
ENDBRANCH  27  28
ENDBRANCH  26  27
ENDBRANCH  24  26
ENDBRANCH  21  22
ENDBRANCH  20  21
ENDBRANCH  10  20
TORSDOF 11
ENDMDL
MODEL 4
REMARK VINA RESULT:      -7.1      3.946      8.727
REMARK  Name = 
REMARK  14 active torsions:
REMARK  status: ('A' for Active; 'I' for Inactive)
REMARK    1  A    between atoms: C_1  and  C_2
REMARK    2  A    between atoms: C_2  and  C_3
REMARK    3  A    between atoms: C_12  and  O_13
REMARK    4  A    between atoms: O_13  and  C_14
REMARK    5  A    between atoms: C_14  and  C_15
REMARK    6  A    between atoms: N_17  and  C_18
REMARK    7  A    between atoms: C_18  and  C_19
REMARK    8  A    between atoms: C_19  and  C_20
REMARK    9  A    between atoms: C_20  and  C_21
REMARK   10  A    between atoms: C_21  and  C_22
REMARK   11  A    between atoms: C_22  and  C_23
REMARK   12  A    between atoms: C_23  and  O_25
REMARK   13  A    between atoms: C_28  and  C_29
REMARK   14  A    between atoms: C_28  and  C_30
REMARK                            x       y       z     vdW  Elec       q    Type
REMARK                         _______ _______ _______ _____ _____    ______ ____
ROOT
ATOM      1  C   UNL     1       1.739   6.047  20.487  0.00  0.00    +0.000 A 
ATOM      2  C   UNL     1       1.737   4.903  21.188  0.00  0.00    +0.000 A 
ATOM      3  C   UNL     1       2.500   3.705  20.829  0.00  0.00    +0.000 A 
ATOM      4  O   UNL     1       2.435   2.682  21.494  0.00  0.00    +0.000 OA
ATOM      5  O   UNL     1       3.263   3.805  19.691  0.00  0.00    +0.000 OA
ATOM      6  C   UNL     1       3.324   4.990  18.918  0.00  0.00    +0.000 A 
ATOM      7  C   UNL     1       4.169   4.913  17.800  0.00  0.00    +0.000 A 
ATOM      8  C   UNL     1       4.308   6.049  17.014  0.00  0.00    +0.000 A 
ATOM      9  C   UNL     1       3.603   7.215  17.320  0.00  0.00    +0.000 A 
ATOM     10  C   UNL     1       2.761   7.287  18.442  0.00  0.00    +0.000 A 
ATOM     11  C   UNL     1       2.597   6.147  19.271  0.00  0.00    +0.000 A 
ATOM     12  O   UNL     1       5.118   6.121  15.915  0.00  0.00    +0.000 OA
ATOM     13  C   UNL     1       6.100   5.079  15.771  0.00  0.00    +0.000 C 
ATOM     14  C   UNL     1       6.513   5.111  14.294  0.00  0.00    +0.000 C 
ATOM     15  C   UNL     1       7.322   5.419  16.639  0.00  0.00    +0.000 C 
ATOM     16  C   UNL     1       5.506   3.700  16.088  0.00  0.00    +0.000 C 
ATOM     17  C   UNL     1       4.938   3.658  17.498  0.00  0.00    +0.000 C 
ENDROOT
BRANCH   1  19
ATOM     18  C   UNL     1       1.523   8.248  21.734  0.00  0.00    +0.000 C 
ATOM     19  C   UNL     1       0.819   7.166  20.929  0.00  0.00    +0.000 C 
ENDBRANCH   1  19
BRANCH  10  20
ATOM     20  O   UNL     1       2.092   8.438  18.781  0.00  0.00    +0.000 OA
BRANCH  20  21
ATOM     21  C   UNL     1       2.056   9.534  17.869  0.00  0.00    +0.000 C 
BRANCH  21  22
ATOM     22  C   UNL     1       0.787  10.350  18.132  0.00  0.00    +0.000 C 
ATOM     23  O   UNL     1       0.802  11.372  18.823  0.00  0.00    +0.000 OA
ATOM     24  N   UNL     1      -0.372   9.856  17.562  0.00  0.00    +0.000 N 
ATOM     25  H   UNL     1      -0.334   9.032  16.973  0.00  0.00    +0.000 HD
BRANCH  24  26
ATOM     26  C   UNL     1      -1.634  10.550  17.738  0.00  0.00    +0.000 C 
BRANCH  26  27
ATOM     27  C   UNL     1      -2.812   9.802  17.117  0.00  0.00    +0.000 C 
BRANCH  27  28
ATOM     28  C   UNL     1      -3.834  10.758  16.489  0.00  0.00    +0.000 C 
BRANCH  28  29
ATOM     29  C   UNL     1      -4.342  11.771  17.515  0.00  0.00    +0.000 C 
BRANCH  29  30
ATOM     30  C   UNL     1      -5.165  11.122  18.632  0.00  0.00    +0.000 C 
BRANCH  30  31
ATOM     31  C   UNL     1      -6.639  11.141  18.290  0.00  0.00    +0.000 C 
ATOM     32  O   UNL     1      -7.208  12.033  17.680  0.00  0.00    +0.000 OA
BRANCH  31  33
ATOM     33  O   UNL     1      -7.297  10.044  18.733  0.00  0.00    +0.000 OA
ATOM     34  H   UNL     1      -6.854   9.585  19.470  0.00  0.00    +0.000 HD
ENDBRANCH  31  33
ENDBRANCH  30  31
ENDBRANCH  29  30
ENDBRANCH  28  29
ENDBRANCH  27  28
ENDBRANCH  26  27
ENDBRANCH  24  26
ENDBRANCH  21  22
ENDBRANCH  20  21
ENDBRANCH  10  20
TORSDOF 11
ENDMDL
MODEL 5
REMARK VINA RESULT:      -7.0      3.895      7.990
REMARK  Name = 
REMARK  14 active torsions:
REMARK  status: ('A' for Active; 'I' for Inactive)
REMARK    1  A    between atoms: C_1  and  C_2
REMARK    2  A    between atoms: C_2  and  C_3
REMARK    3  A    between atoms: C_12  and  O_13
REMARK    4  A    between atoms: O_13  and  C_14
REMARK    5  A    between atoms: C_14  and  C_15
REMARK    6  A    between atoms: N_17  and  C_18
REMARK    7  A    between atoms: C_18  and  C_19
REMARK    8  A    between atoms: C_19  and  C_20
REMARK    9  A    between atoms: C_20  and  C_21
REMARK   10  A    between atoms: C_21  and  C_22
REMARK   11  A    between atoms: C_22  and  C_23
REMARK   12  A    between atoms: C_23  and  O_25
REMARK   13  A    between atoms: C_28  and  C_29
REMARK   14  A    between atoms: C_28  and  C_30
REMARK                            x       y       z     vdW  Elec       q    Type
REMARK                         _______ _______ _______ _____ _____    ______ ____
ROOT
ATOM      1  C   UNL     1       1.670   6.018  20.235  0.00  0.00    +0.000 A 
ATOM      2  C   UNL     1       1.470   4.840  20.846  0.00  0.00    +0.000 A 
ATOM      3  C   UNL     1       2.099   3.578  20.448  0.00  0.00    +0.000 A 
ATOM      4  O   UNL     1       1.854   2.530  21.028  0.00  0.00    +0.000 OA
ATOM      5  O   UNL     1       2.952   3.652  19.373  0.00  0.00    +0.000 OA
ATOM      6  C   UNL     1       3.221   4.867  18.698  0.00  0.00    +0.000 A 
ATOM      7  C   UNL     1       4.131   4.754  17.636  0.00  0.00    +0.000 A 
ATOM      8  C   UNL     1       4.472   5.911  16.949  0.00  0.00    +0.000 A 
ATOM      9  C   UNL     1       3.900   7.138  17.295  0.00  0.00    +0.000 A 
ATOM     10  C   UNL     1       2.992   7.245  18.362  0.00  0.00    +0.000 A 
ATOM     11  C   UNL     1       2.623   6.084  19.089  0.00  0.00    +0.000 A 
ATOM     12  O   UNL     1       5.365   5.948  15.914  0.00  0.00    +0.000 OA
ATOM     13  C   UNL     1       6.214   4.797  15.757  0.00  0.00    +0.000 C 
ATOM     14  C   UNL     1       6.738   4.873  14.317  0.00  0.00    +0.000 C 
ATOM     15  C   UNL     1       7.401   4.914  16.726  0.00  0.00    +0.000 C 
ATOM     16  C   UNL     1       5.427   3.491  15.928  0.00  0.00    +0.000 C 
ATOM     17  C   UNL     1       4.755   3.431  17.290  0.00  0.00    +0.000 C 
ENDROOT
BRANCH   1  19
ATOM     18  C   UNL     1       1.631   8.120  21.657  0.00  0.00    +0.000 C 
ATOM     19  C   UNL     1       0.870   7.216  20.699  0.00  0.00    +0.000 C 
ENDBRANCH   1  19
BRANCH  10  20
ATOM     20  O   UNL     1       2.452   8.450  18.742  0.00  0.00    +0.000 OA
BRANCH  20  21
ATOM     21  C   UNL     1       1.833   9.289  17.770  0.00  0.00    +0.000 C 
BRANCH  21  22
ATOM     22  C   UNL     1       1.332  10.559  18.466  0.00  0.00    +0.000 C 
ATOM     23  O   UNL     1       1.972  11.613  18.433  0.00  0.00    +0.000 OA
ATOM     24  N   UNL     1       0.133  10.437  19.144  0.00  0.00    +0.000 N 
ATOM     25  H   UNL     1      -0.377   9.563  19.116  0.00  0.00    +0.000 HD
BRANCH  24  26
ATOM     26  C   UNL     1      -0.442  11.577  19.834  0.00  0.00    +0.000 C 
BRANCH  26  27
ATOM     27  C   UNL     1       0.007  11.675  21.291  0.00  0.00    +0.000 C 
BRANCH  27  28
ATOM     28  C   UNL     1      -0.793  10.737  22.203  0.00  0.00    +0.000 C 
BRANCH  28  29
ATOM     29  C   UNL     1      -1.610  11.528  23.225  0.00  0.00    +0.000 C 
BRANCH  29  30
ATOM     30  C   UNL     1      -2.596  12.500  22.571  0.00  0.00    +0.000 C 
BRANCH  30  31
ATOM     31  C   UNL     1      -3.825  12.678  23.436  0.00  0.00    +0.000 C 
ATOM     32  O   UNL     1      -4.171  11.920  24.329  0.00  0.00    +0.000 OA
BRANCH  31  33
ATOM     33  O   UNL     1      -4.533  13.788  23.125  0.00  0.00    +0.000 OA
ATOM     34  H   UNL     1      -4.199  14.603  23.542  0.00  0.00    +0.000 HD
ENDBRANCH  31  33
ENDBRANCH  30  31
ENDBRANCH  29  30
ENDBRANCH  28  29
ENDBRANCH  27  28
ENDBRANCH  26  27
ENDBRANCH  24  26
ENDBRANCH  21  22
ENDBRANCH  20  21
ENDBRANCH  10  20
TORSDOF 11
ENDMDL
MODEL 6
REMARK VINA RESULT:      -6.9      3.526      6.026
REMARK  Name = 
REMARK  14 active torsions:
REMARK  status: ('A' for Active; 'I' for Inactive)
REMARK    1  A    between atoms: C_1  and  C_2
REMARK    2  A    between atoms: C_2  and  C_3
REMARK    3  A    between atoms: C_12  and  O_13
REMARK    4  A    between atoms: O_13  and  C_14
REMARK    5  A    between atoms: C_14  and  C_15
REMARK    6  A    between atoms: N_17  and  C_18
REMARK    7  A    between atoms: C_18  and  C_19
REMARK    8  A    between atoms: C_19  and  C_20
REMARK    9  A    between atoms: C_20  and  C_21
REMARK   10  A    between atoms: C_21  and  C_22
REMARK   11  A    between atoms: C_22  and  C_23
REMARK   12  A    between atoms: C_23  and  O_25
REMARK   13  A    between atoms: C_28  and  C_29
REMARK   14  A    between atoms: C_28  and  C_30
REMARK                            x       y       z     vdW  Elec       q    Type
REMARK                         _______ _______ _______ _____ _____    ______ ____
ROOT
ATOM      1  C   UNL     1       3.356   3.782  19.491  0.00  0.00    +0.000 A 
ATOM      2  C   UNL     1       2.709   3.035  20.399  0.00  0.00    +0.000 A 
ATOM      3  C   UNL     1       1.709   3.547  21.340  0.00  0.00    +0.000 A 
ATOM      4  O   UNL     1       1.174   2.821  22.163  0.00  0.00    +0.000 OA
ATOM      5  O   UNL     1       1.440   4.892  21.247  0.00  0.00    +0.000 OA
ATOM      6  C   UNL     1       2.073   5.730  20.298  0.00  0.00    +0.000 A 
ATOM      7  C   UNL     1       1.660   7.071  20.339  0.00  0.00    +0.000 A 
ATOM      8  C   UNL     1       2.211   7.947  19.413  0.00  0.00    +0.000 A 
ATOM      9  C   UNL     1       3.166   7.503  18.495  0.00  0.00    +0.000 A 
ATOM     10  C   UNL     1       3.573   6.159  18.457  0.00  0.00    +0.000 A 
ATOM     11  C   UNL     1       3.028   5.233  19.385  0.00  0.00    +0.000 A 
ATOM     12  O   UNL     1       1.878   9.270  19.324  0.00  0.00    +0.000 OA
ATOM     13  C   UNL     1       0.678   9.678  20.004  0.00  0.00    +0.000 C 
ATOM     14  C   UNL     1       0.796  11.199  20.158  0.00  0.00    +0.000 C 
ATOM     15  C   UNL     1      -0.535   9.359  19.116  0.00  0.00    +0.000 C 
ATOM     16  C   UNL     1       0.581   9.046  21.399  0.00  0.00    +0.000 C 
ATOM     17  C   UNL     1       0.616   7.528  21.318  0.00  0.00    +0.000 C 
ENDROOT
BRANCH   1  19
ATOM     18  C   UNL     1       3.920   2.011  17.763  0.00  0.00    +0.000 C 
ATOM     19  C   UNL     1       4.437   3.128  18.657  0.00  0.00    +0.000 C 
ENDBRANCH   1  19
BRANCH  10  20
ATOM     20  O   UNL     1       4.480   5.696  17.535  0.00  0.00    +0.000 OA
BRANCH  20  21
ATOM     21  C   UNL     1       5.635   6.471  17.223  0.00  0.00    +0.000 C 
BRANCH  21  22
ATOM     22  C   UNL     1       6.532   5.660  16.283  0.00  0.00    +0.000 C 
ATOM     23  O   UNL     1       7.447   4.951  16.709  0.00  0.00    +0.000 OA
ATOM     24  N   UNL     1       6.260   5.791  14.934  0.00  0.00    +0.000 N 
ATOM     25  H   UNL     1       5.477   6.357  14.629  0.00  0.00    +0.000 HD
BRANCH  24  26
ATOM     26  C   UNL     1       7.040   5.064  13.950  0.00  0.00    +0.000 C 
BRANCH  26  27
ATOM     27  C   UNL     1       6.523   3.646  13.716  0.00  0.00    +0.000 C 
BRANCH  27  28
ATOM     28  C   UNL     1       5.147   3.640  13.039  0.00  0.00    +0.000 C 
BRANCH  28  29
ATOM     29  C   UNL     1       5.273   3.373  11.539  0.00  0.00    +0.000 C 
BRANCH  29  30
ATOM     30  C   UNL     1       5.089   1.894  11.184  0.00  0.00    +0.000 C 
BRANCH  30  31
ATOM     31  C   UNL     1       6.419   1.173  11.190  0.00  0.00    +0.000 C 
ATOM     32  O   UNL     1       7.504   1.696  10.987  0.00  0.00    +0.000 OA
BRANCH  31  33
ATOM     33  O   UNL     1       6.300  -0.150  11.452  0.00  0.00    +0.000 OA
ATOM     34  H   UNL     1       6.791  -0.723  10.836  0.00  0.00    +0.000 HD
ENDBRANCH  31  33
ENDBRANCH  30  31
ENDBRANCH  29  30
ENDBRANCH  28  29
ENDBRANCH  27  28
ENDBRANCH  26  27
ENDBRANCH  24  26
ENDBRANCH  21  22
ENDBRANCH  20  21
ENDBRANCH  10  20
TORSDOF 11
ENDMDL
MODEL 7
REMARK VINA RESULT:      -6.9      4.195      8.076
REMARK  Name = 
REMARK  14 active torsions:
REMARK  status: ('A' for Active; 'I' for Inactive)
REMARK    1  A    between atoms: C_1  and  C_2
REMARK    2  A    between atoms: C_2  and  C_3
REMARK    3  A    between atoms: C_12  and  O_13
REMARK    4  A    between atoms: O_13  and  C_14
REMARK    5  A    between atoms: C_14  and  C_15
REMARK    6  A    between atoms: N_17  and  C_18
REMARK    7  A    between atoms: C_18  and  C_19
REMARK    8  A    between atoms: C_19  and  C_20
REMARK    9  A    between atoms: C_20  and  C_21
REMARK   10  A    between atoms: C_21  and  C_22
REMARK   11  A    between atoms: C_22  and  C_23
REMARK   12  A    between atoms: C_23  and  O_25
REMARK   13  A    between atoms: C_28  and  C_29
REMARK   14  A    between atoms: C_28  and  C_30
REMARK                            x       y       z     vdW  Elec       q    Type
REMARK                         _______ _______ _______ _____ _____    ______ ____
ROOT
ATOM      1  C   UNL     1      -3.290  10.843  17.260  0.00  0.00    +0.000 A 
ATOM      2  C   UNL     1      -4.554  11.149  16.932  0.00  0.00    +0.000 A 
ATOM      3  C   UNL     1      -5.443  11.993  17.735  0.00  0.00    +0.000 A 
ATOM      4  O   UNL     1      -6.596  12.213  17.396  0.00  0.00    +0.000 OA
ATOM      5  O   UNL     1      -4.899  12.493  18.894  0.00  0.00    +0.000 OA
ATOM      6  C   UNL     1      -3.566  12.226  19.286  0.00  0.00    +0.000 A 
ATOM      7  C   UNL     1      -3.180  12.834  20.491  0.00  0.00    +0.000 A 
ATOM      8  C   UNL     1      -1.874  12.646  20.921  0.00  0.00    +0.000 A 
ATOM      9  C   UNL     1      -0.990  11.852  20.187  0.00  0.00    +0.000 A 
ATOM     10  C   UNL     1      -1.381  11.247  18.981  0.00  0.00    +0.000 A 
ATOM     11  C   UNL     1      -2.708  11.420  18.506  0.00  0.00    +0.000 A 
ATOM     12  O   UNL     1      -1.359  13.203  22.059  0.00  0.00    +0.000 OA
ATOM     13  C   UNL     1      -2.112  14.279  22.645  0.00  0.00    +0.000 C 
ATOM     14  C   UNL     1      -1.614  14.383  24.092  0.00  0.00    +0.000 C 
ATOM     15  C   UNL     1      -1.777  15.585  21.908  0.00  0.00    +0.000 C 
ATOM     16  C   UNL     1      -3.615  13.969  22.661  0.00  0.00    +0.000 C 
ATOM     17  C   UNL     1      -4.135  13.704  21.258  0.00  0.00    +0.000 C 
ENDROOT
BRANCH   1  19
ATOM     18  C   UNL     1      -2.919   9.957  14.910  0.00  0.00    +0.000 C 
ATOM     19  C   UNL     1      -2.529   9.875  16.379  0.00  0.00    +0.000 C 
ENDBRANCH   1  19
BRANCH  10  20
ATOM     20  O   UNL     1      -0.514  10.497  18.225  0.00  0.00    +0.000 OA
BRANCH  20  21
ATOM     21  C   UNL     1       0.889  10.577  18.463  0.00  0.00    +0.000 C 
BRANCH  21  22
ATOM     22  C   UNL     1       1.394   9.198  18.896  0.00  0.00    +0.000 C 
ATOM     23  O   UNL     1       1.185   8.755  20.029  0.00  0.00    +0.000 OA
ATOM     24  N   UNL     1       2.111   8.496  17.945  0.00  0.00    +0.000 N 
ATOM     25  H   UNL     1       2.230   8.881  17.016  0.00  0.00    +0.000 HD
BRANCH  24  26
ATOM     26  C   UNL     1       2.632   7.174  18.241  0.00  0.00    +0.000 C 
BRANCH  26  27
ATOM     27  C   UNL     1       4.034   6.951  17.677  0.00  0.00    +0.000 C 
BRANCH  27  28
ATOM     28  C   UNL     1       4.215   5.527  17.137  0.00  0.00    +0.000 C 
BRANCH  28  29
ATOM     29  C   UNL     1       4.876   4.624  18.178  0.00  0.00    +0.000 C 
BRANCH  29  30
ATOM     30  C   UNL     1       5.824   5.386  19.108  0.00  0.00    +0.000 C 
BRANCH  30  31
ATOM     31  C   UNL     1       7.219   5.441  18.522  0.00  0.00    +0.000 C 
ATOM     32  O   UNL     1       7.901   6.449  18.422  0.00  0.00    +0.000 OA
BRANCH  31  33
ATOM     33  O   UNL     1       7.662   4.232  18.105  0.00  0.00    +0.000 OA
ATOM     34  H   UNL     1       7.005   3.518  18.187  0.00  0.00    +0.000 HD
ENDBRANCH  31  33
ENDBRANCH  30  31
ENDBRANCH  29  30
ENDBRANCH  28  29
ENDBRANCH  27  28
ENDBRANCH  26  27
ENDBRANCH  24  26
ENDBRANCH  21  22
ENDBRANCH  20  21
ENDBRANCH  10  20
TORSDOF 11
ENDMDL
MODEL 8
REMARK VINA RESULT:      -6.9      3.922      7.554
REMARK  Name = 
REMARK  14 active torsions:
REMARK  status: ('A' for Active; 'I' for Inactive)
REMARK    1  A    between atoms: C_1  and  C_2
REMARK    2  A    between atoms: C_2  and  C_3
REMARK    3  A    between atoms: C_12  and  O_13
REMARK    4  A    between atoms: O_13  and  C_14
REMARK    5  A    between atoms: C_14  and  C_15
REMARK    6  A    between atoms: N_17  and  C_18
REMARK    7  A    between atoms: C_18  and  C_19
REMARK    8  A    between atoms: C_19  and  C_20
REMARK    9  A    between atoms: C_20  and  C_21
REMARK   10  A    between atoms: C_21  and  C_22
REMARK   11  A    between atoms: C_22  and  C_23
REMARK   12  A    between atoms: C_23  and  O_25
REMARK   13  A    between atoms: C_28  and  C_29
REMARK   14  A    between atoms: C_28  and  C_30
REMARK                            x       y       z     vdW  Elec       q    Type
REMARK                         _______ _______ _______ _____ _____    ______ ____
ROOT
ATOM      1  C   UNL     1       1.764   6.209  20.378  0.00  0.00    +0.000 A 
ATOM      2  C   UNL     1       1.653   5.070  21.078  0.00  0.00    +0.000 A 
ATOM      3  C   UNL     1       2.335   3.817  20.743  0.00  0.00    +0.000 A 
ATOM      4  O   UNL     1       2.171   2.803  21.405  0.00  0.00    +0.000 OA
ATOM      5  O   UNL     1       3.141   3.858  19.631  0.00  0.00    +0.000 OA
ATOM      6  C   UNL     1       3.317   5.033  18.862  0.00  0.00    +0.000 A 
ATOM      7  C   UNL     1       4.191   4.891  17.773  0.00  0.00    +0.000 A 
ATOM      8  C   UNL     1       4.440   6.011  16.993  0.00  0.00    +0.000 A 
ATOM      9  C   UNL     1       3.816   7.228  17.275  0.00  0.00    +0.000 A 
ATOM     10  C   UNL     1       2.945   7.365  18.369  0.00  0.00    +0.000 A 
ATOM     11  C   UNL     1       2.668   6.242  19.192  0.00  0.00    +0.000 A 
ATOM     12  O   UNL     1       5.290   6.020  15.921  0.00  0.00    +0.000 OA
ATOM     13  C   UNL     1       6.195   4.907  15.809  0.00  0.00    +0.000 C 
ATOM     14  C   UNL     1       6.658   4.905  14.347  0.00  0.00    +0.000 C 
ATOM     15  C   UNL     1       7.409   5.156  16.717  0.00  0.00    +0.000 C 
ATOM     16  C   UNL     1       5.488   3.577  16.105  0.00  0.00    +0.000 C 
ATOM     17  C   UNL     1       4.872   3.581  17.495  0.00  0.00    +0.000 C 
ENDROOT
BRANCH   1  19
ATOM     18  C   UNL     1       1.628   8.347  21.739  0.00  0.00    +0.000 C 
ATOM     19  C   UNL     1       0.918   7.395  20.790  0.00  0.00    +0.000 C 
ENDBRANCH   1  19
BRANCH  10  20
ATOM     20  O   UNL     1       2.353   8.564  18.686  0.00  0.00    +0.000 OA
BRANCH  20  21
ATOM     21  C   UNL     1       1.509   9.213  17.738  0.00  0.00    +0.000 C 
BRANCH  21  22
ATOM     22  C   UNL     1       0.769  10.355  18.440  0.00  0.00    +0.000 C 
ATOM     23  O   UNL     1      -0.328  10.184  18.979  0.00  0.00    +0.000 OA
ATOM     24  N   UNL     1       1.399  11.585  18.413  0.00  0.00    +0.000 N 
ATOM     25  H   UNL     1       2.316  11.674  17.990  0.00  0.00    +0.000 HD
BRANCH  24  26
ATOM     26  C   UNL     1       0.794  12.739  19.053  0.00  0.00    +0.000 C 
BRANCH  26  27
ATOM     27  C   UNL     1       1.416  13.055  20.411  0.00  0.00    +0.000 C 
BRANCH  27  28
ATOM     28  C   UNL     1       0.374  13.555  21.418  0.00  0.00    +0.000 C 
BRANCH  28  29
ATOM     29  C   UNL     1      -0.887  12.692  21.379  0.00  0.00    +0.000 C 
BRANCH  29  30
ATOM     30  C   UNL     1      -1.922  13.105  22.430  0.00  0.00    +0.000 C 
BRANCH  30  31
ATOM     31  C   UNL     1      -2.359  11.910  23.249  0.00  0.00    +0.000 C 
ATOM     32  O   UNL     1      -3.415  11.821  23.856  0.00  0.00    +0.000 OA
BRANCH  31  33
ATOM     33  O   UNL     1      -1.447  10.910  23.250  0.00  0.00    +0.000 OA
ATOM     34  H   UNL     1      -0.931  10.842  22.427  0.00  0.00    +0.000 HD
ENDBRANCH  31  33
ENDBRANCH  30  31
ENDBRANCH  29  30
ENDBRANCH  28  29
ENDBRANCH  27  28
ENDBRANCH  26  27
ENDBRANCH  24  26
ENDBRANCH  21  22
ENDBRANCH  20  21
ENDBRANCH  10  20
TORSDOF 11
ENDMDL
MODEL 9
REMARK VINA RESULT:      -6.8      3.688      8.526
REMARK  Name = 
REMARK  14 active torsions:
REMARK  status: ('A' for Active; 'I' for Inactive)
REMARK    1  A    between atoms: C_1  and  C_2
REMARK    2  A    between atoms: C_2  and  C_3
REMARK    3  A    between atoms: C_12  and  O_13
REMARK    4  A    between atoms: O_13  and  C_14
REMARK    5  A    between atoms: C_14  and  C_15
REMARK    6  A    between atoms: N_17  and  C_18
REMARK    7  A    between atoms: C_18  and  C_19
REMARK    8  A    between atoms: C_19  and  C_20
REMARK    9  A    between atoms: C_20  and  C_21
REMARK   10  A    between atoms: C_21  and  C_22
REMARK   11  A    between atoms: C_22  and  C_23
REMARK   12  A    between atoms: C_23  and  O_25
REMARK   13  A    between atoms: C_28  and  C_29
REMARK   14  A    between atoms: C_28  and  C_30
REMARK                            x       y       z     vdW  Elec       q    Type
REMARK                         _______ _______ _______ _____ _____    ______ ____
ROOT
ATOM      1  C   UNL     1       1.645   6.685  20.520  0.00  0.00    +0.000 A 
ATOM      2  C   UNL     1       1.645   5.635  21.356  0.00  0.00    +0.000 A 
ATOM      3  C   UNL     1       2.405   4.401  21.145  0.00  0.00    +0.000 A 
ATOM      4  O   UNL     1       2.340   3.468  21.930  0.00  0.00    +0.000 OA
ATOM      5  O   UNL     1       3.165   4.361  20.001  0.00  0.00    +0.000 OA
ATOM      6  C   UNL     1       3.226   5.441  19.089  0.00  0.00    +0.000 A 
ATOM      7  C   UNL     1       4.069   5.227  17.987  0.00  0.00    +0.000 A 
ATOM      8  C   UNL     1       4.207   6.258  17.068  0.00  0.00    +0.000 A 
ATOM      9  C   UNL     1       3.504   7.454  17.229  0.00  0.00    +0.000 A 
ATOM     10  C   UNL     1       2.665   7.664  18.336  0.00  0.00    +0.000 A 
ATOM     11  C   UNL     1       2.501   6.634  19.299  0.00  0.00    +0.000 A 
ATOM     12  O   UNL     1       5.015   6.193  15.966  0.00  0.00    +0.000 OA
ATOM     13  C   UNL     1       5.995   5.140  15.949  0.00  0.00    +0.000 C 
ATOM     14  C   UNL     1       6.404   4.991  14.478  0.00  0.00    +0.000 C 
ATOM     15  C   UNL     1       7.219   5.583  16.766  0.00  0.00    +0.000 C 
ATOM     16  C   UNL     1       5.400   3.811  16.433  0.00  0.00    +0.000 C 
ATOM     17  C   UNL     1       4.835   3.943  17.839  0.00  0.00    +0.000 C 
ENDROOT
BRANCH   1  19
ATOM     18  C   UNL     1       1.269   8.785  21.895  0.00  0.00    +0.000 C 
ATOM     19  C   UNL     1       0.728   7.851  20.823  0.00  0.00    +0.000 C 
ENDBRANCH   1  19
BRANCH  10  20
ATOM     20  O   UNL     1       1.998   8.849  18.533  0.00  0.00    +0.000 OA
BRANCH  20  21
ATOM     21  C   UNL     1       2.514  10.056  17.976  0.00  0.00    +0.000 C 
BRANCH  21  22
ATOM     22  C   UNL     1       1.598  11.215  18.383  0.00  0.00    +0.000 C 
ATOM     23  O   UNL     1       2.050  12.298  18.762  0.00  0.00    +0.000 OA
ATOM     24  N   UNL     1       0.241  10.959  18.314  0.00  0.00    +0.000 N 
ATOM     25  H   UNL     1      -0.088  10.067  17.964  0.00  0.00    +0.000 HD
BRANCH  24  26
ATOM     26  C   UNL     1      -0.722  11.985  18.668  0.00  0.00    +0.000 C 
BRANCH  26  27
ATOM     27  C   UNL     1      -2.166  11.500  18.568  0.00  0.00    +0.000 C 
BRANCH  27  28
ATOM     28  C   UNL     1      -2.534  11.078  17.140  0.00  0.00    +0.000 C 
BRANCH  28  29
ATOM     29  C   UNL     1      -4.046  10.929  16.983  0.00  0.00    +0.000 C 
BRANCH  29  30
ATOM     30  C   UNL     1      -4.831  11.643  18.088  0.00  0.00    +0.000 C 
BRANCH  30  31
ATOM     31  C   UNL     1      -6.321  11.513  17.855  0.00  0.00    +0.000 C 
ATOM     32  O   UNL     1      -7.066  10.766  18.469  0.00  0.00    +0.000 OA
BRANCH  31  33
ATOM     33  O   UNL     1      -6.773  12.328  16.873  0.00  0.00    +0.000 OA
ATOM     34  H   UNL     1      -7.591  12.017  16.444  0.00  0.00    +0.000 HD
ENDBRANCH  31  33
ENDBRANCH  30  31
ENDBRANCH  29  30
ENDBRANCH  28  29
ENDBRANCH  27  28
ENDBRANCH  26  27
ENDBRANCH  24  26
ENDBRANCH  21  22
ENDBRANCH  20  21
ENDBRANCH  10  20
TORSDOF 11
ENDMDL
