MODEL 1
REMARK VINA RESULT:      -7.6      0.000      0.000
REMARK  Name = 
REMARK  10 active torsions:
REMARK  status: ('A' for Active; 'I' for Inactive)
REMARK    1  A    between atoms: C_1  and  O_2
REMARK    2  A    between atoms: O_2  and  C_3
REMARK    3  A    between atoms: N_9  and  S_10
REMARK    4  A    between atoms: S_10  and  C_13
REMARK    5  A    between atoms: C_17  and  C_18
REMARK    6  A    between atoms: C_18  and  O_19
REMARK    7  A    between atoms: O_19  and  C_20
REMARK    8  A    between atoms: C_20  and  C_21
REMARK    9  A    between atoms: C_24  and  O_25
REMARK   10  A    between atoms: O_25  and  C_26
REMARK                            x       y       z     vdW  Elec       q    Type
REMARK                         _______ _______ _______ _____ _____    ______ ____
ROOT
ATOM      1  C   UNL     1       1.019   9.884  19.725  0.00  0.00    +0.000 A 
ATOM      2  N   UNL     1       1.513   8.668  19.592  0.00  0.00    +0.000 NA
ATOM      3  C   UNL     1       1.584   7.942  20.692  0.00  0.00    +0.000 A 
ATOM      4  N   UNL     1       2.141   6.669  20.632  0.00  0.00    +0.000 N 
ATOM      5  C   UNL     1       2.814   6.213  19.534  0.00  0.00    +0.000 C 
ATOM      6  O   UNL     1       3.037   6.848  18.519  0.00  0.00    +0.000 OA
ATOM      7  N   UNL     1       3.317   4.928  19.676  0.00  0.00    +0.000 N 
ATOM      8  N   UNL     1       1.170   8.348  21.883  0.00  0.00    +0.000 NA
ATOM      9  C   UNL     1       0.709   9.599  21.902  0.00  0.00    +0.000 A 
ATOM     10  N   UNL     1       0.608  10.416  20.860  0.00  0.00    +0.000 NA
ATOM     11  H   UNL     1       2.078   6.131  21.476  0.00  0.00    +0.000 HD
ATOM     12  H   UNL     1       3.239   4.373  20.517  0.00  0.00    +0.000 HD
ENDROOT
BRANCH   7  13
ATOM     13  S   UNL     1       4.141   4.168  18.440  0.00  0.00    +0.000 S 
ATOM     14  O   UNL     1       4.341   2.805  18.886  0.00  0.00    +0.000 OA
ATOM     15  O   UNL     1       3.495   4.453  17.181  0.00  0.00    +0.000 OA
BRANCH  13  16
ATOM     16  C   UNL     1       5.735   4.799  18.351  0.00  0.00    +0.000 A 
ATOM     17  C   UNL     1       6.396   5.469  19.417  0.00  0.00    +0.000 A 
ATOM     18  C   UNL     1       7.626   5.837  18.931  0.00  0.00    +0.000 A 
ATOM     19  O   UNL     1       7.772   5.424  17.647  0.00  0.00    +0.000 OA
ATOM     20  C   UNL     1       6.603   4.804  17.280  0.00  0.00    +0.000 A 
BRANCH  20  21
ATOM     21  C   UNL     1       6.545   4.328  15.876  0.00  0.00    +0.000 C 
BRANCH  21  22
ATOM     22  O   UNL     1       7.279   5.213  15.027  0.00  0.00    +0.000 OA
BRANCH  22  23
ATOM     23  C   UNL     1       7.273   4.915  13.628  0.00  0.00    +0.000 C 
BRANCH  23  24
ATOM     24  C   UNL     1       6.299   3.820  13.209  0.00  0.00    +0.000 C 
ATOM     25  F   UNL     1       6.761   3.208  12.084  0.00  0.00    +0.000 F 
ENDBRANCH  23  24
ENDBRANCH  22  23
ENDBRANCH  21  22
ENDBRANCH  20  21
ENDBRANCH  13  16
ENDBRANCH   7  13
BRANCH   1  27
ATOM     26  C   UNL     1       2.117  10.696  17.835  0.00  0.00    +0.000 C 
ATOM     27  O   UNL     1       0.926  10.701  18.618  0.00  0.00    +0.000 OA
ENDBRANCH   1  27
BRANCH   9  28
ATOM     28  O   UNL     1       0.346  10.056  23.154  0.00  0.00    +0.000 OA
ATOM     29  C   UNL     1      -0.985  10.565  23.190  0.00  0.00    +0.000 C 
ENDBRANCH   9  28
TORSDOF 8
ENDMDL
MODEL 2
REMARK VINA RESULT:      -7.6      1.213      1.329
REMARK  Name = 
REMARK  10 active torsions:
REMARK  status: ('A' for Active; 'I' for Inactive)
REMARK    1  A    between atoms: C_1  and  O_2
REMARK    2  A    between atoms: O_2  and  C_3
REMARK    3  A    between atoms: N_9  and  S_10
REMARK    4  A    between atoms: S_10  and  C_13
REMARK    5  A    between atoms: C_17  and  C_18
REMARK    6  A    between atoms: C_18  and  O_19
REMARK    7  A    between atoms: O_19  and  C_20
REMARK    8  A    between atoms: C_20  and  C_21
REMARK    9  A    between atoms: C_24  and  O_25
REMARK   10  A    between atoms: O_25  and  C_26
REMARK                            x       y       z     vdW  Elec       q    Type
REMARK                         _______ _______ _______ _____ _____    ______ ____
ROOT
ATOM      1  C   UNL     1       0.317  10.023  19.770  0.00  0.00    +0.000 A 
ATOM      2  N   UNL     1       0.959   8.871  19.750  0.00  0.00    +0.000 NA
ATOM      3  C   UNL     1       1.220   8.328  20.925  0.00  0.00    +0.000 A 
ATOM      4  N   UNL     1       1.938   7.137  20.978  0.00  0.00    +0.000 N 
ATOM      5  C   UNL     1       2.571   6.612  19.889  0.00  0.00    +0.000 C 
ATOM      6  O   UNL     1       2.620   7.114  18.780  0.00  0.00    +0.000 OA
ATOM      7  N   UNL     1       3.254   5.433  20.149  0.00  0.00    +0.000 N 
ATOM      8  N   UNL     1       0.856   8.849  22.086  0.00  0.00    +0.000 NA
ATOM      9  C   UNL     1       0.233  10.024  21.985  0.00  0.00    +0.000 A 
ATOM     10  N   UNL     1      -0.065  10.661  20.859  0.00  0.00    +0.000 NA
ATOM     11  H   UNL     1       2.020   6.725  21.889  0.00  0.00    +0.000 HD
ATOM     12  H   UNL     1       3.323   5.001  21.061  0.00  0.00    +0.000 HD
ENDROOT
BRANCH   7  13
ATOM     13  S   UNL     1       4.066   4.607  18.948  0.00  0.00    +0.000 S 
ATOM     14  O   UNL     1       4.540   3.387  19.567  0.00  0.00    +0.000 OA
ATOM     15  O   UNL     1       3.258   4.573  17.753  0.00  0.00    +0.000 OA
BRANCH  13  16
ATOM     16  C   UNL     1       5.513   5.448  18.563  0.00  0.00    +0.000 A 
ATOM     17  C   UNL     1       6.695   5.421  19.353  0.00  0.00    +0.000 A 
ATOM     18  C   UNL     1       7.597   6.239  18.719  0.00  0.00    +0.000 A 
ATOM     19  O   UNL     1       7.055   6.753  17.586  0.00  0.00    +0.000 OA
ATOM     20  C   UNL     1       5.768   6.285  17.498  0.00  0.00    +0.000 A 
BRANCH  20  21
ATOM     21  C   UNL     1       4.983   6.787  16.343  0.00  0.00    +0.000 C 
BRANCH  21  22
ATOM     22  O   UNL     1       5.556   6.319  15.120  0.00  0.00    +0.000 OA
BRANCH  22  23
ATOM     23  C   UNL     1       5.434   4.920  14.847  0.00  0.00    +0.000 C 
BRANCH  23  24
ATOM     24  C   UNL     1       6.718   4.242  14.382  0.00  0.00    +0.000 C 
ATOM     25  F   UNL     1       6.810   4.325  13.027  0.00  0.00    +0.000 F 
ENDBRANCH  23  24
ENDBRANCH  22  23
ENDBRANCH  21  22
ENDBRANCH  20  21
ENDBRANCH  13  16
ENDBRANCH   7  13
BRANCH   1  27
ATOM     26  C   UNL     1      -1.377  10.660  18.297  0.00  0.00    +0.000 C 
ATOM     27  O   UNL     1       0.021  10.653  18.578  0.00  0.00    +0.000 OA
ENDBRANCH   1  27
BRANCH   9  28
ATOM     28  O   UNL     1      -0.082  10.611  23.195  0.00  0.00    +0.000 OA
ATOM     29  C   UNL     1      -1.419  11.102  23.238  0.00  0.00    +0.000 C 
ENDBRANCH   9  28
TORSDOF 8
ENDMDL
MODEL 3
REMARK VINA RESULT:      -7.3      5.312      6.998
REMARK  Name = 
REMARK  10 active torsions:
REMARK  status: ('A' for Active; 'I' for Inactive)
REMARK    1  A    between atoms: C_1  and  O_2
REMARK    2  A    between atoms: O_2  and  C_3
REMARK    3  A    between atoms: N_9  and  S_10
REMARK    4  A    between atoms: S_10  and  C_13
REMARK    5  A    between atoms: C_17  and  C_18
REMARK    6  A    between atoms: C_18  and  O_19
REMARK    7  A    between atoms: O_19  and  C_20
REMARK    8  A    between atoms: C_20  and  C_21
REMARK    9  A    between atoms: C_24  and  O_25
REMARK   10  A    between atoms: O_25  and  C_26
REMARK                            x       y       z     vdW  Elec       q    Type
REMARK                         _______ _______ _______ _____ _____    ______ ____
ROOT
ATOM      1  C   UNL     1       8.656  12.160  17.930  0.00  0.00    +0.000 A 
ATOM      2  N   UNL     1       8.386  10.874  18.054  0.00  0.00    +0.000 NA
ATOM      3  C   UNL     1       9.100  10.210  18.943  0.00  0.00    +0.000 A 
ATOM      4  N   UNL     1       8.901   8.842  19.091  0.00  0.00    +0.000 N 
ATOM      5  C   UNL     1       8.154   8.110  18.212  0.00  0.00    +0.000 C 
ATOM      6  O   UNL     1       7.617   8.534  17.206  0.00  0.00    +0.000 OA
ATOM      7  N   UNL     1       8.095   6.757  18.516  0.00  0.00    +0.000 N 
ATOM      8  N   UNL     1      10.027  10.757  19.715  0.00  0.00    +0.000 NA
ATOM      9  C   UNL     1      10.229  12.056  19.488  0.00  0.00    +0.000 A 
ATOM     10  N   UNL     1       9.578  12.811  18.612  0.00  0.00    +0.000 NA
ATOM     11  H   UNL     1       9.402   8.413  19.847  0.00  0.00    +0.000 HD
ATOM     12  H   UNL     1       8.580   6.322  19.288  0.00  0.00    +0.000 HD
ENDROOT
BRANCH   7  13
ATOM     13  S   UNL     1       7.205   5.690  17.591  0.00  0.00    +0.000 S 
ATOM     14  O   UNL     1       7.399   6.110  16.218  0.00  0.00    +0.000 OA
ATOM     15  O   UNL     1       7.489   4.337  18.004  0.00  0.00    +0.000 OA
BRANCH  13  16
ATOM     16  C   UNL     1       5.532   5.968  17.861  0.00  0.00    +0.000 A 
ATOM     17  C   UNL     1       4.772   6.988  17.225  0.00  0.00    +0.000 A 
ATOM     18  C   UNL     1       3.501   6.890  17.735  0.00  0.00    +0.000 A 
ATOM     19  O   UNL     1       3.425   5.870  18.627  0.00  0.00    +0.000 OA
ATOM     20  C   UNL     1       4.677   5.314  18.722  0.00  0.00    +0.000 A 
BRANCH  20  21
ATOM     21  C   UNL     1       4.812   4.208  19.702  0.00  0.00    +0.000 C 
BRANCH  21  22
ATOM     22  O   UNL     1       4.614   2.950  19.052  0.00  0.00    +0.000 OA
BRANCH  22  23
ATOM     23  C   UNL     1       3.295   2.399  19.106  0.00  0.00    +0.000 C 
BRANCH  23  24
ATOM     24  C   UNL     1       2.646   2.155  17.748  0.00  0.00    +0.000 C 
ATOM     25  F   UNL     1       2.480   3.343  17.104  0.00  0.00    +0.000 F 
ENDBRANCH  23  24
ENDBRANCH  22  23
ENDBRANCH  21  22
ENDBRANCH  20  21
ENDBRANCH  13  16
ENDBRANCH   7  13
BRANCH   1  27
ATOM     26  C   UNL     1       7.180  13.941  17.624  0.00  0.00    +0.000 C 
ATOM     27  O   UNL     1       7.955  12.912  17.010  0.00  0.00    +0.000 OA
ENDBRANCH   1  27
BRANCH   9  28
ATOM     28  O   UNL     1      11.246  12.617  20.236  0.00  0.00    +0.000 OA
ATOM     29  C   UNL     1      12.174  13.351  19.442  0.00  0.00    +0.000 C 
ENDBRANCH   9  28
TORSDOF 8
ENDMDL
MODEL 4
REMARK VINA RESULT:      -7.1      1.123      1.261
REMARK  Name = 
REMARK  10 active torsions:
REMARK  status: ('A' for Active; 'I' for Inactive)
REMARK    1  A    between atoms: C_1  and  O_2
REMARK    2  A    between atoms: O_2  and  C_3
REMARK    3  A    between atoms: N_9  and  S_10
REMARK    4  A    between atoms: S_10  and  C_13
REMARK    5  A    between atoms: C_17  and  C_18
REMARK    6  A    between atoms: C_18  and  O_19
REMARK    7  A    between atoms: O_19  and  C_20
REMARK    8  A    between atoms: C_20  and  C_21
REMARK    9  A    between atoms: C_24  and  O_25
REMARK   10  A    between atoms: O_25  and  C_26
REMARK                            x       y       z     vdW  Elec       q    Type
REMARK                         _______ _______ _______ _____ _____    ______ ____
ROOT
ATOM      1  C   UNL     1      -0.003  10.279  19.608  0.00  0.00    +0.000 A 
ATOM      2  N   UNL     1       0.788   9.253  19.360  0.00  0.00    +0.000 NA
ATOM      3  C   UNL     1       1.253   8.605  20.412  0.00  0.00    +0.000 A 
ATOM      4  N   UNL     1       2.131   7.543  20.223  0.00  0.00    +0.000 N 
ATOM      5  C   UNL     1       2.705   7.271  19.014  0.00  0.00    +0.000 C 
ATOM      6  O   UNL     1       2.558   7.918  17.993  0.00  0.00    +0.000 OA
ATOM      7  N   UNL     1       3.571   6.188  19.034  0.00  0.00    +0.000 N 
ATOM      8  N   UNL     1       0.953   8.906  21.667  0.00  0.00    +0.000 NA
ATOM      9  C   UNL     1       0.164   9.974  21.798  0.00  0.00    +0.000 A 
ATOM     10  N   UNL     1      -0.345  10.700  20.811  0.00  0.00    +0.000 NA
ATOM     11  H   UNL     1       2.372   7.031  21.051  0.00  0.00    +0.000 HD
ATOM     12  H   UNL     1       3.801   5.654  19.861  0.00  0.00    +0.000 HD
ENDROOT
BRANCH   7  13
ATOM     13  S   UNL     1       4.349   5.664  17.654  0.00  0.00    +0.000 S 
ATOM     14  O   UNL     1       3.759   4.380  17.338  0.00  0.00    +0.000 OA
ATOM     15  O   UNL     1       4.381   6.730  16.681  0.00  0.00    +0.000 OA
BRANCH  13  16
ATOM     16  C   UNL     1       5.976   5.272  18.037  0.00  0.00    +0.000 A 
ATOM     17  C   UNL     1       6.604   5.565  19.279  0.00  0.00    +0.000 A 
ATOM     18  C   UNL     1       7.898   5.119  19.167  0.00  0.00    +0.000 A 
ATOM     19  O   UNL     1       8.102   4.559  17.949  0.00  0.00    +0.000 OA
ATOM     20  C   UNL     1       6.929   4.670  17.244  0.00  0.00    +0.000 A 
BRANCH  20  21
ATOM     21  C   UNL     1       6.970   4.159  15.851  0.00  0.00    +0.000 C 
BRANCH  21  22
ATOM     22  O   UNL     1       7.411   5.189  14.964  0.00  0.00    +0.000 OA
BRANCH  22  23
ATOM     23  C   UNL     1       7.167   4.985  13.569  0.00  0.00    +0.000 C 
BRANCH  23  24
ATOM     24  C   UNL     1       6.296   3.777  13.240  0.00  0.00    +0.000 C 
ATOM     25  F   UNL     1       6.675   3.258  12.040  0.00  0.00    +0.000 F 
ENDBRANCH  23  24
ENDBRANCH  22  23
ENDBRANCH  21  22
ENDBRANCH  20  21
ENDBRANCH  13  16
ENDBRANCH   7  13
BRANCH   1  27
ATOM     26  C   UNL     1      -1.418  10.249  17.754  0.00  0.00    +0.000 C 
ATOM     27  O   UNL     1      -0.516  11.008  18.556  0.00  0.00    +0.000 OA
ENDBRANCH   1  27
BRANCH   9  28
ATOM     28  O   UNL     1      -0.092  10.339  23.105  0.00  0.00    +0.000 OA
ATOM     29  C   UNL     1      -1.334  11.020  23.254  0.00  0.00    +0.000 C 
ENDBRANCH   9  28
TORSDOF 8
ENDMDL
MODEL 5
REMARK VINA RESULT:      -6.9      2.647      3.466
REMARK  Name = 
REMARK  10 active torsions:
REMARK  status: ('A' for Active; 'I' for Inactive)
REMARK    1  A    between atoms: C_1  and  O_2
REMARK    2  A    between atoms: O_2  and  C_3
REMARK    3  A    between atoms: N_9  and  S_10
REMARK    4  A    between atoms: S_10  and  C_13
REMARK    5  A    between atoms: C_17  and  C_18
REMARK    6  A    between atoms: C_18  and  O_19
REMARK    7  A    between atoms: O_19  and  C_20
REMARK    8  A    between atoms: C_20  and  C_21
REMARK    9  A    between atoms: C_24  and  O_25
REMARK   10  A    between atoms: O_25  and  C_26
REMARK                            x       y       z     vdW  Elec       q    Type
REMARK                         _______ _______ _______ _____ _____    ______ ____
ROOT
ATOM      1  C   UNL     1      -0.664  11.340  19.724  0.00  0.00    +0.000 A 
ATOM      2  N   UNL     1       0.000  10.201  19.676  0.00  0.00    +0.000 NA
ATOM      3  C   UNL     1       0.485   9.758  20.821  0.00  0.00    +0.000 A 
ATOM      4  N   UNL     1       1.238   8.588  20.834  0.00  0.00    +0.000 N 
ATOM      5  C   UNL     1       1.681   7.988  19.690  0.00  0.00    +0.000 C 
ATOM      6  O   UNL     1       1.514   8.400  18.557  0.00  0.00    +0.000 OA
ATOM      7  N   UNL     1       2.436   6.845  19.912  0.00  0.00    +0.000 N 
ATOM      8  N   UNL     1       0.320  10.366  21.986  0.00  0.00    +0.000 NA
ATOM      9  C   UNL     1      -0.347  11.518  21.911  0.00  0.00    +0.000 A 
ATOM     10  N   UNL     1      -0.863  12.057  20.812  0.00  0.00    +0.000 NA
ATOM     11  H   UNL     1       1.495   8.252  21.743  0.00  0.00    +0.000 HD
ATOM     12  H   UNL     1       2.681   6.490  20.826  0.00  0.00    +0.000 HD
ENDROOT
BRANCH   7  13
ATOM     13  S   UNL     1       3.044   5.939  18.649  0.00  0.00    +0.000 S 
ATOM     14  O   UNL     1       1.887   5.472  17.914  0.00  0.00    +0.000 OA
ATOM     15  O   UNL     1       4.100   6.671  17.992  0.00  0.00    +0.000 OA
BRANCH  13  16
ATOM     16  C   UNL     1       3.733   4.494  19.271  0.00  0.00    +0.000 A 
ATOM     17  C   UNL     1       3.039   3.555  20.083  0.00  0.00    +0.000 A 
ATOM     18  C   UNL     1       3.946   2.571  20.388  0.00  0.00    +0.000 A 
ATOM     19  O   UNL     1       5.144   2.833  19.808  0.00  0.00    +0.000 OA
ATOM     20  C   UNL     1       5.022   4.025  19.137  0.00  0.00    +0.000 A 
BRANCH  20  21
ATOM     21  C   UNL     1       6.257   4.516  18.476  0.00  0.00    +0.000 C 
BRANCH  21  22
ATOM     22  O   UNL     1       7.071   5.220  19.417  0.00  0.00    +0.000 OA
BRANCH  22  23
ATOM     23  C   UNL     1       7.920   6.245  18.893  0.00  0.00    +0.000 C 
BRANCH  23  24
ATOM     24  C   UNL     1       7.403   6.922  17.629  0.00  0.00    +0.000 C 
ATOM     25  F   UNL     1       8.101   8.070  17.411  0.00  0.00    +0.000 F 
ENDBRANCH  23  24
ENDBRANCH  22  23
ENDBRANCH  21  22
ENDBRANCH  20  21
ENDBRANCH  13  16
ENDBRANCH   7  13
BRANCH   1  27
ATOM     26  C   UNL     1      -2.490  11.361  18.272  0.00  0.00    +0.000 C 
ATOM     27  O   UNL     1      -1.188  11.866  18.561  0.00  0.00    +0.000 OA
ENDBRANCH   1  27
BRANCH   9  28
ATOM     28  O   UNL     1      -0.458  12.195  23.109  0.00  0.00    +0.000 OA
ATOM     29  C   UNL     1      -1.090  13.464  22.969  0.00  0.00    +0.000 C 
ENDBRANCH   9  28
TORSDOF 8
ENDMDL
MODEL 6
REMARK VINA RESULT:      -6.9      2.917      4.171
REMARK  Name = 
REMARK  10 active torsions:
REMARK  status: ('A' for Active; 'I' for Inactive)
REMARK    1  A    between atoms: C_1  and  O_2
REMARK    2  A    between atoms: O_2  and  C_3
REMARK    3  A    between atoms: N_9  and  S_10
REMARK    4  A    between atoms: S_10  and  C_13
REMARK    5  A    between atoms: C_17  and  C_18
REMARK    6  A    between atoms: C_18  and  O_19
REMARK    7  A    between atoms: O_19  and  C_20
REMARK    8  A    between atoms: C_20  and  C_21
REMARK    9  A    between atoms: C_24  and  O_25
REMARK   10  A    between atoms: O_25  and  C_26
REMARK                            x       y       z     vdW  Elec       q    Type
REMARK                         _______ _______ _______ _____ _____    ______ ____
ROOT
ATOM      1  C   UNL     1      -0.066   9.852  20.674  0.00  0.00    +0.000 A 
ATOM      2  N   UNL     1       0.865   9.177  20.027  0.00  0.00    +0.000 NA
ATOM      3  C   UNL     1       1.217   9.653  18.847  0.00  0.00    +0.000 A 
ATOM      4  N   UNL     1       2.158   8.964  18.089  0.00  0.00    +0.000 N 
ATOM      5  C   UNL     1       2.579   7.705  18.410  0.00  0.00    +0.000 C 
ATOM      6  O   UNL     1       2.177   7.033  19.342  0.00  0.00    +0.000 OA
ATOM      7  N   UNL     1       3.502   7.177  17.518  0.00  0.00    +0.000 N 
ATOM      8  N   UNL     1       0.720  10.756  18.307  0.00  0.00    +0.000 NA
ATOM      9  C   UNL     1      -0.228  11.342  19.040  0.00  0.00    +0.000 A 
ATOM     10  N   UNL     1      -0.663  10.940  20.228  0.00  0.00    +0.000 NA
ATOM     11  H   UNL     1       2.455   9.425  17.249  0.00  0.00    +0.000 HD
ATOM     12  H   UNL     1       3.821   7.645  16.681  0.00  0.00    +0.000 HD
ENDROOT
BRANCH   7  13
ATOM     13  S   UNL     1       4.172   5.665  17.744  0.00  0.00    +0.000 S 
ATOM     14  O   UNL     1       4.792   5.706  19.052  0.00  0.00    +0.000 OA
ATOM     15  O   UNL     1       3.202   4.650  17.410  0.00  0.00    +0.000 OA
BRANCH  13  16
ATOM     16  C   UNL     1       5.503   5.472  16.677  0.00  0.00    +0.000 A 
ATOM     17  C   UNL     1       5.476   4.690  15.490  0.00  0.00    +0.000 A 
ATOM     18  C   UNL     1       6.736   4.774  14.950  0.00  0.00    +0.000 A 
ATOM     19  O   UNL     1       7.528   5.566  15.714  0.00  0.00    +0.000 OA
ATOM     20  C   UNL     1       6.779   5.981  16.788  0.00  0.00    +0.000 A 
BRANCH  20  21
ATOM     21  C   UNL     1       7.495   6.820  17.781  0.00  0.00    +0.000 C 
BRANCH  21  22
ATOM     22  O   UNL     1       7.995   8.003  17.154  0.00  0.00    +0.000 OA
BRANCH  22  23
ATOM     23  C   UNL     1       7.816   9.232  17.864  0.00  0.00    +0.000 C 
BRANCH  23  24
ATOM     24  C   UNL     1       9.072   9.774  18.537  0.00  0.00    +0.000 C 
ATOM     25  F   UNL     1       8.730  10.766  19.403  0.00  0.00    +0.000 F 
ENDBRANCH  23  24
ENDBRANCH  22  23
ENDBRANCH  21  22
ENDBRANCH  20  21
ENDBRANCH  13  16
ENDBRANCH   7  13
BRANCH   1  27
ATOM     26  C   UNL     1       0.558   9.398  22.876  0.00  0.00    +0.000 C 
ATOM     27  O   UNL     1      -0.490   9.404  21.908  0.00  0.00    +0.000 OA
ENDBRANCH   1  27
BRANCH   9  28
ATOM     28  O   UNL     1      -0.805  12.450  18.451  0.00  0.00    +0.000 OA
ATOM     29  C   UNL     1      -0.530  13.656  19.157  0.00  0.00    +0.000 C 
ENDBRANCH   9  28
TORSDOF 8
ENDMDL
MODEL 7
REMARK VINA RESULT:      -6.7      3.691      8.698
REMARK  Name = 
REMARK  10 active torsions:
REMARK  status: ('A' for Active; 'I' for Inactive)
REMARK    1  A    between atoms: C_1  and  O_2
REMARK    2  A    between atoms: O_2  and  C_3
REMARK    3  A    between atoms: N_9  and  S_10
REMARK    4  A    between atoms: S_10  and  C_13
REMARK    5  A    between atoms: C_17  and  C_18
REMARK    6  A    between atoms: C_18  and  O_19
REMARK    7  A    between atoms: O_19  and  C_20
REMARK    8  A    between atoms: C_20  and  C_21
REMARK    9  A    between atoms: C_24  and  O_25
REMARK   10  A    between atoms: O_25  and  C_26
REMARK                            x       y       z     vdW  Elec       q    Type
REMARK                         _______ _______ _______ _____ _____    ______ ____
ROOT
ATOM      1  C   UNL     1       3.273   3.976  18.942  0.00  0.00    +0.000 A 
ATOM      2  N   UNL     1       2.654   5.073  19.332  0.00  0.00    +0.000 NA
ATOM      3  C   UNL     1       2.873   6.156  18.608  0.00  0.00    +0.000 A 
ATOM      4  N   UNL     1       2.289   7.359  18.991  0.00  0.00    +0.000 N 
ATOM      5  C   UNL     1       1.674   7.525  20.199  0.00  0.00    +0.000 C 
ATOM      6  O   UNL     1       1.590   6.687  21.079  0.00  0.00    +0.000 OA
ATOM      7  N   UNL     1       1.177   8.803  20.406  0.00  0.00    +0.000 N 
ATOM      8  N   UNL     1       3.637   6.189  17.527  0.00  0.00    +0.000 NA
ATOM      9  C   UNL     1       4.229   5.029  17.241  0.00  0.00    +0.000 A 
ATOM     10  N   UNL     1       4.087   3.889  17.908  0.00  0.00    +0.000 NA
ATOM     11  H   UNL     1       2.413   8.120  18.350  0.00  0.00    +0.000 HD
ATOM     12  H   UNL     1       1.280   9.569  19.755  0.00  0.00    +0.000 HD
ENDROOT
BRANCH   7  13
ATOM     13  S   UNL     1       0.357   9.209  21.802  0.00  0.00    +0.000 S 
ATOM     14  O   UNL     1      -0.727   8.255  21.907  0.00  0.00    +0.000 OA
ATOM     15  O   UNL     1       1.298   9.391  22.881  0.00  0.00    +0.000 OA
BRANCH  13  16
ATOM     16  C   UNL     1      -0.450  10.707  21.568  0.00  0.00    +0.000 A 
ATOM     17  C   UNL     1      -0.895  11.554  22.619  0.00  0.00    +0.000 A 
ATOM     18  C   UNL     1      -1.510  12.622  22.013  0.00  0.00    +0.000 A 
ATOM     19  O   UNL     1      -1.457  12.496  20.663  0.00  0.00    +0.000 OA
ATOM     20  C   UNL     1      -0.824  11.310  20.386  0.00  0.00    +0.000 A 
BRANCH  20  21
ATOM     21  C   UNL     1      -0.719  10.962  18.947  0.00  0.00    +0.000 C 
BRANCH  21  22
ATOM     22  O   UNL     1      -1.472  11.889  18.162  0.00  0.00    +0.000 OA
BRANCH  22  23
ATOM     23  C   UNL     1      -2.450  11.337  17.277  0.00  0.00    +0.000 C 
BRANCH  23  24
ATOM     24  C   UNL     1      -2.370   9.826  17.094  0.00  0.00    +0.000 C 
ATOM     25  F   UNL     1      -3.455   9.241  17.670  0.00  0.00    +0.000 F 
ENDBRANCH  23  24
ENDBRANCH  22  23
ENDBRANCH  21  22
ENDBRANCH  20  21
ENDBRANCH  13  16
ENDBRANCH   7  13
BRANCH   1  27
ATOM     26  C   UNL     1       4.333   2.253  20.104  0.00  0.00    +0.000 C 
ATOM     27  O   UNL     1       3.098   2.810  19.659  0.00  0.00    +0.000 OA
ENDBRANCH   1  27
BRANCH   9  28
ATOM     28  O   UNL     1       5.086   5.074  16.160  0.00  0.00    +0.000 OA
ATOM     29  C   UNL     1       5.250   6.391  15.641  0.00  0.00    +0.000 C 
ENDBRANCH   9  28
TORSDOF 8
ENDMDL
MODEL 8
REMARK VINA RESULT:      -6.7      3.195      4.945
REMARK  Name = 
REMARK  10 active torsions:
REMARK  status: ('A' for Active; 'I' for Inactive)
REMARK    1  A    between atoms: C_1  and  O_2
REMARK    2  A    between atoms: O_2  and  C_3
REMARK    3  A    between atoms: N_9  and  S_10
REMARK    4  A    between atoms: S_10  and  C_13
REMARK    5  A    between atoms: C_17  and  C_18
REMARK    6  A    between atoms: C_18  and  O_19
REMARK    7  A    between atoms: O_19  and  C_20
REMARK    8  A    between atoms: C_20  and  C_21
REMARK    9  A    between atoms: C_24  and  O_25
REMARK   10  A    between atoms: O_25  and  C_26
REMARK                            x       y       z     vdW  Elec       q    Type
REMARK                         _______ _______ _______ _____ _____    ______ ____
ROOT
ATOM      1  C   UNL     1       0.285   9.166  20.832  0.00  0.00    +0.000 A 
ATOM      2  N   UNL     1       1.267   8.513  20.240  0.00  0.00    +0.000 NA
ATOM      3  C   UNL     1       1.509   8.836  18.983  0.00  0.00    +0.000 A 
ATOM      4  N   UNL     1       2.498   8.152  18.284  0.00  0.00    +0.000 N 
ATOM      5  C   UNL     1       3.087   7.018  18.766  0.00  0.00    +0.000 C 
ATOM      6  O   UNL     1       2.810   6.459  19.812  0.00  0.00    +0.000 OA
ATOM      7  N   UNL     1       4.032   6.469  17.912  0.00  0.00    +0.000 N 
ATOM      8  N   UNL     1       0.855   9.773  18.314  0.00  0.00    +0.000 NA
ATOM      9  C   UNL     1      -0.129  10.350  19.005  0.00  0.00    +0.000 A 
ATOM     10  N   UNL     1      -0.462  10.092  20.263  0.00  0.00    +0.000 NA
ATOM     11  H   UNL     1       2.701   8.506  17.368  0.00  0.00    +0.000 HD
ATOM     12  H   UNL     1       4.257   6.834  16.996  0.00  0.00    +0.000 HD
ENDROOT
BRANCH   7  13
ATOM     13  S   UNL     1       4.897   5.102  18.324  0.00  0.00    +0.000 S 
ATOM     14  O   UNL     1       5.886   4.938  17.280  0.00  0.00    +0.000 OA
ATOM     15  O   UNL     1       5.282   5.173  19.714  0.00  0.00    +0.000 OA
BRANCH  13  16
ATOM     16  C   UNL     1       3.891   3.722  18.143  0.00  0.00    +0.000 A 
ATOM     17  C   UNL     1       2.921   3.562  17.116  0.00  0.00    +0.000 A 
ATOM     18  C   UNL     1       2.320   2.348  17.344  0.00  0.00    +0.000 A 
ATOM     19  O   UNL     1       2.867   1.746  18.430  0.00  0.00    +0.000 OA
ATOM     20  C   UNL     1       3.818   2.597  18.936  0.00  0.00    +0.000 A 
BRANCH  20  21
ATOM     21  C   UNL     1       4.495   2.135  20.174  0.00  0.00    +0.000 C 
BRANCH  21  22
ATOM     22  O   UNL     1       3.817   2.646  21.323  0.00  0.00    +0.000 OA
BRANCH  22  23
ATOM     23  C   UNL     1       2.465   2.221  21.513  0.00  0.00    +0.000 C 
BRANCH  23  24
ATOM     24  C   UNL     1       1.435   3.345  21.526  0.00  0.00    +0.000 C 
ATOM     25  F   UNL     1       0.962   3.541  20.264  0.00  0.00    +0.000 F 
ENDBRANCH  23  24
ENDBRANCH  22  23
ENDBRANCH  21  22
ENDBRANCH  20  21
ENDBRANCH  13  16
ENDBRANCH   7  13
BRANCH   1  27
ATOM     26  C   UNL     1      -0.450  10.021  22.875  0.00  0.00    +0.000 C 
ATOM     27  O   UNL     1      -0.029   8.872  22.143  0.00  0.00    +0.000 OA
ENDBRANCH   1  27
BRANCH   9  28
ATOM     28  O   UNL     1      -0.864  11.275  18.289  0.00  0.00    +0.000 OA
ATOM     29  C   UNL     1      -1.413  12.300  19.114  0.00  0.00    +0.000 C 
ENDBRANCH   9  28
TORSDOF 8
ENDMDL
MODEL 9
REMARK VINA RESULT:      -6.7      6.881      9.309
REMARK  Name = 
REMARK  10 active torsions:
REMARK  status: ('A' for Active; 'I' for Inactive)
REMARK    1  A    between atoms: C_1  and  O_2
REMARK    2  A    between atoms: O_2  and  C_3
REMARK    3  A    between atoms: N_9  and  S_10
REMARK    4  A    between atoms: S_10  and  C_13
REMARK    5  A    between atoms: C_17  and  C_18
REMARK    6  A    between atoms: C_18  and  O_19
REMARK    7  A    between atoms: O_19  and  C_20
REMARK    8  A    between atoms: C_20  and  C_21
REMARK    9  A    between atoms: C_24  and  O_25
REMARK   10  A    between atoms: O_25  and  C_26
REMARK                            x       y       z     vdW  Elec       q    Type
REMARK                         _______ _______ _______ _____ _____    ______ ____
ROOT
ATOM      1  C   UNL     1       6.779   5.669  16.312  0.00  0.00    +0.000 A 
ATOM      2  N   UNL     1       7.439   6.646  16.903  0.00  0.00    +0.000 NA
ATOM      3  C   UNL     1       7.570   6.554  18.214  0.00  0.00    +0.000 A 
ATOM      4  N   UNL     1       8.213   7.575  18.906  0.00  0.00    +0.000 N 
ATOM      5  C   UNL     1       8.527   8.770  18.326  0.00  0.00    +0.000 C 
ATOM      6  O   UNL     1       8.265   9.101  17.184  0.00  0.00    +0.000 OA
ATOM      7  N   UNL     1       9.142   9.668  19.187  0.00  0.00    +0.000 N 
ATOM      8  N   UNL     1       7.112   5.546  18.941  0.00  0.00    +0.000 NA
ATOM      9  C   UNL     1       6.443   4.629  18.241  0.00  0.00    +0.000 A 
ATOM     10  N   UNL     1       6.243   4.633  16.929  0.00  0.00    +0.000 NA
ATOM     11  H   UNL     1       8.367   7.402  19.882  0.00  0.00    +0.000 HD
ATOM     12  H   UNL     1       9.320   9.492  20.166  0.00  0.00    +0.000 HD
ENDROOT
BRANCH   7  13
ATOM     13  S   UNL     1       9.642  11.175  18.670  0.00  0.00    +0.000 S 
ATOM     14  O   UNL     1      11.012  11.002  18.237  0.00  0.00    +0.000 OA
ATOM     15  O   UNL     1       8.646  11.740  17.791  0.00  0.00    +0.000 OA
BRANCH  13  16
ATOM     16  C   UNL     1       9.779  12.219  20.026  0.00  0.00    +0.000 A 
ATOM     17  C   UNL     1       9.142  12.002  21.278  0.00  0.00    +0.000 A 
ATOM     18  C   UNL     1       9.480  13.072  22.069  0.00  0.00    +0.000 A 
ATOM     19  O   UNL     1      10.294  13.922  21.394  0.00  0.00    +0.000 OA
ATOM     20  C   UNL     1      10.463  13.412  20.131  0.00  0.00    +0.000 A 
BRANCH  20  21
ATOM     21  C   UNL     1      11.286  14.238  19.212  0.00  0.00    +0.000 C 
BRANCH  21  22
ATOM     22  O   UNL     1      10.531  14.572  18.045  0.00  0.00    +0.000 OA
BRANCH  22  23
ATOM     23  C   UNL     1       9.977  15.889  17.992  0.00  0.00    +0.000 C 
BRANCH  23  24
ATOM     24  C   UNL     1      10.529  16.774  16.880  0.00  0.00    +0.000 C 
ATOM     25  F   UNL     1      11.838  17.052  17.130  0.00  0.00    +0.000 F 
ENDBRANCH  23  24
ENDBRANCH  22  23
ENDBRANCH  21  22
ENDBRANCH  20  21
ENDBRANCH  13  16
ENDBRANCH   7  13
BRANCH   1  27
ATOM     26  C   UNL     1       6.511   4.405  14.370  0.00  0.00    +0.000 C 
ATOM     27  O   UNL     1       6.595   5.707  14.946  0.00  0.00    +0.000 OA
ENDBRANCH   1  27
BRANCH   9  28
ATOM     28  O   UNL     1       5.897   3.614  19.002  0.00  0.00    +0.000 OA
ATOM     29  C   UNL     1       4.479   3.540  18.887  0.00  0.00    +0.000 C 
ENDBRANCH   9  28
TORSDOF 8
ENDMDL
