MODEL 1
REMARK VINA RESULT:      -7.4      0.000      0.000
REMARK  Name = 
REMARK  5 active torsions:
REMARK  status: ('A' for Active; 'I' for Inactive)
REMARK    1  A    between atoms: C_1  and  C_2
REMARK    2  A    between atoms: C_6  and  O_7
REMARK    3  A    between atoms: O_7  and  C_8
REMARK    4  A    between atoms: N_11  and  S_12
REMARK    5  A    between atoms: S_12  and  C_15
REMARK                            x       y       z     vdW  Elec       q    Type
REMARK                         _______ _______ _______ _____ _____    ______ ____
ROOT
ATOM      1  C   UNL     1       4.221   6.030  18.701  0.00  0.00    +0.000 C 
ATOM      2  C   UNL     1       5.026   4.869  19.265  0.00  0.00    +0.000 C 
ATOM      3  C   UNL     1       6.440   5.407  19.244  0.00  0.00    +0.000 C 
ATOM      4  N   UNL     1       6.538   6.138  17.948  0.00  0.00    +0.000 NA
ATOM      5  C   UNL     1       5.169   6.679  17.679  0.00  0.00    +0.000 C 
ENDROOT
BRANCH   4   6
ATOM      6  S   UNL     1       7.218   5.203  16.688  0.00  0.00    +0.000 S 
ATOM      7  O   UNL     1       7.727   6.129  15.700  0.00  0.00    +0.000 OA
ATOM      8  O   UNL     1       8.082   4.213  17.295  0.00  0.00    +0.000 OA
BRANCH   6   9
ATOM      9  C   UNL     1       5.857   4.258  15.933  0.00  0.00    +0.000 C 
ATOM     10  C   UNL     1       5.289   4.863  14.678  0.00  0.00    +0.000 C 
ATOM     11  C   UNL     1       6.177   3.650  14.593  0.00  0.00    +0.000 C 
ENDBRANCH   6   9
ENDBRANCH   4   6
BRANCH   1  12
ATOM     12  O   UNL     1       3.045   5.572  18.034  0.00  0.00    +0.000 OA
BRANCH  12  18
ATOM     13  C   UNL     1       1.254   2.766  21.462  0.00  0.00    +0.000 C 
ATOM     14  C   UNL     1       1.718   2.928  20.047  0.00  0.00    +0.000 A 
ATOM     15  C   UNL     1       1.679   1.869  19.147  0.00  0.00    +0.000 A 
ATOM     16  C   UNL     1       2.147   2.070  17.851  0.00  0.00    +0.000 A 
ATOM     17  C   UNL     1       2.628   3.323  17.490  0.00  0.00    +0.000 A 
ATOM     18  C   UNL     1       2.611   4.327  18.441  0.00  0.00    +0.000 A 
ATOM     19  N   UNL     1       2.177   4.155  19.707  0.00  0.00    +0.000 NA
ENDBRANCH  12  18
ENDBRANCH   1  12
TORSDOF 4
ENDMDL
MODEL 2
REMARK VINA RESULT:      -7.2      3.385      5.639
REMARK  Name = 
REMARK  5 active torsions:
REMARK  status: ('A' for Active; 'I' for Inactive)
REMARK    1  A    between atoms: C_1  and  C_2
REMARK    2  A    between atoms: C_6  and  O_7
REMARK    3  A    between atoms: O_7  and  C_8
REMARK    4  A    between atoms: N_11  and  S_12
REMARK    5  A    between atoms: S_12  and  C_15
REMARK                            x       y       z     vdW  Elec       q    Type
REMARK                         _______ _______ _______ _____ _____    ______ ____
ROOT
ATOM      1  C   UNL     1       3.344   5.764  17.779  0.00  0.00    +0.000 C 
ATOM      2  C   UNL     1       4.457   4.728  17.726  0.00  0.00    +0.000 C 
ATOM      3  C   UNL     1       3.816   3.595  16.954  0.00  0.00    +0.000 C 
ATOM      4  N   UNL     1       2.426   3.523  17.488  0.00  0.00    +0.000 NA
ATOM      5  C   UNL     1       2.058   4.926  17.860  0.00  0.00    +0.000 C 
ENDROOT
BRANCH   4   6
ATOM      6  S   UNL     1       2.231   2.361  18.727  0.00  0.00    +0.000 S 
ATOM      7  O   UNL     1       0.848   1.939  18.698  0.00  0.00    +0.000 OA
ATOM      8  O   UNL     1       3.306   1.399  18.597  0.00  0.00    +0.000 OA
BRANCH   6   9
ATOM      9  C   UNL     1       2.533   3.212  20.307  0.00  0.00    +0.000 C 
ATOM     10  C   UNL     1       1.294   3.688  21.014  0.00  0.00    +0.000 C 
ATOM     11  C   UNL     1       2.034   2.480  21.525  0.00  0.00    +0.000 C 
ENDBRANCH   6   9
ENDBRANCH   4   6
BRANCH   1  12
ATOM     12  O   UNL     1       3.452   6.583  18.944  0.00  0.00    +0.000 OA
BRANCH  12  18
ATOM     13  C   UNL     1       0.234   9.117  21.404  0.00  0.00    +0.000 C 
ATOM     14  C   UNL     1       1.006   8.905  20.137  0.00  0.00    +0.000 A 
ATOM     15  C   UNL     1       0.852   9.753  19.046  0.00  0.00    +0.000 A 
ATOM     16  C   UNL     1       1.577   9.492  17.885  0.00  0.00    +0.000 A 
ATOM     17  C   UNL     1       2.439   8.402  17.853  0.00  0.00    +0.000 A 
ATOM     18  C   UNL     1       2.548   7.623  18.991  0.00  0.00    +0.000 A 
ATOM     19  N   UNL     1       1.847   7.845  20.123  0.00  0.00    +0.000 NA
ENDBRANCH  12  18
ENDBRANCH   1  12
TORSDOF 4
ENDMDL
MODEL 3
REMARK VINA RESULT:      -7.1      1.453      1.721
REMARK  Name = 
REMARK  5 active torsions:
REMARK  status: ('A' for Active; 'I' for Inactive)
REMARK    1  A    between atoms: C_1  and  C_2
REMARK    2  A    between atoms: C_6  and  O_7
REMARK    3  A    between atoms: O_7  and  C_8
REMARK    4  A    between atoms: N_11  and  S_12
REMARK    5  A    between atoms: S_12  and  C_15
REMARK                            x       y       z     vdW  Elec       q    Type
REMARK                         _______ _______ _______ _____ _____    ______ ____
ROOT
ATOM      1  C   UNL     1       5.608   4.745  19.206  0.00  0.00    +0.000 C 
ATOM      2  C   UNL     1       7.036   5.122  18.839  0.00  0.00    +0.000 C 
ATOM      3  C   UNL     1       6.876   6.522  18.287  0.00  0.00    +0.000 C 
ATOM      4  N   UNL     1       5.632   6.457  17.468  0.00  0.00    +0.000 NA
ATOM      5  C   UNL     1       4.751   5.451  18.142  0.00  0.00    +0.000 C 
ENDROOT
BRANCH   4   6
ATOM      6  S   UNL     1       5.923   6.182  15.807  0.00  0.00    +0.000 S 
ATOM      7  O   UNL     1       5.175   7.181  15.074  0.00  0.00    +0.000 OA
ATOM      8  O   UNL     1       7.353   6.044  15.629  0.00  0.00    +0.000 OA
BRANCH   6   9
ATOM      9  C   UNL     1       5.228   4.547  15.408  0.00  0.00    +0.000 C 
ATOM     10  C   UNL     1       5.770   3.920  14.153  0.00  0.00    +0.000 C 
ATOM     11  C   UNL     1       6.204   3.405  15.500  0.00  0.00    +0.000 C 
ENDBRANCH   6   9
ENDBRANCH   4   6
BRANCH   1  12
ATOM     12  O   UNL     1       5.405   3.335  19.121  0.00  0.00    +0.000 OA
BRANCH  12  18
ATOM     13  C   UNL     1       1.363   2.765  21.605  0.00  0.00    +0.000 C 
ATOM     14  C   UNL     1       2.090   2.680  20.297  0.00  0.00    +0.000 A 
ATOM     15  C   UNL     1       1.446   2.262  19.138  0.00  0.00    +0.000 A 
ATOM     16  C   UNL     1       2.179   2.178  17.956  0.00  0.00    +0.000 A 
ATOM     17  C   UNL     1       3.526   2.523  17.966  0.00  0.00    +0.000 A 
ATOM     18  C   UNL     1       4.081   2.949  19.159  0.00  0.00    +0.000 A 
ATOM     19  N   UNL     1       3.398   3.025  20.320  0.00  0.00    +0.000 NA
ENDBRANCH  12  18
ENDBRANCH   1  12
TORSDOF 4
ENDMDL
MODEL 4
REMARK VINA RESULT:      -7.0      1.048      1.680
REMARK  Name = 
REMARK  5 active torsions:
REMARK  status: ('A' for Active; 'I' for Inactive)
REMARK    1  A    between atoms: C_1  and  C_2
REMARK    2  A    between atoms: C_6  and  O_7
REMARK    3  A    between atoms: O_7  and  C_8
REMARK    4  A    between atoms: N_11  and  S_12
REMARK    5  A    between atoms: S_12  and  C_15
REMARK                            x       y       z     vdW  Elec       q    Type
REMARK                         _______ _______ _______ _____ _____    ______ ____
ROOT
ATOM      1  C   UNL     1       4.515   6.456  18.321  0.00  0.00    +0.000 C 
ATOM      2  C   UNL     1       5.238   5.297  18.992  0.00  0.00    +0.000 C 
ATOM      3  C   UNL     1       6.694   5.681  18.836  0.00  0.00    +0.000 C 
ATOM      4  N   UNL     1       6.784   6.232  17.453  0.00  0.00    +0.000 NA
ATOM      5  C   UNL     1       5.459   6.873  17.181  0.00  0.00    +0.000 C 
ENDROOT
BRANCH   4   6
ATOM      6  S   UNL     1       7.295   5.084  16.294  0.00  0.00    +0.000 S 
ATOM      7  O   UNL     1       7.783   5.825  15.151  0.00  0.00    +0.000 OA
ATOM      8  O   UNL     1       8.139   4.122  16.973  0.00  0.00    +0.000 OA
BRANCH   6   9
ATOM      9  C   UNL     1       5.819   4.153  15.780  0.00  0.00    +0.000 C 
ATOM     10  C   UNL     1       5.122   4.695  14.562  0.00  0.00    +0.000 C 
ATOM     11  C   UNL     1       5.948   3.440  14.459  0.00  0.00    +0.000 C 
ENDBRANCH   6   9
ENDBRANCH   4   6
BRANCH   1  12
ATOM     12  O   UNL     1       3.264   6.041  17.774  0.00  0.00    +0.000 OA
BRANCH  12  18
ATOM     13  C   UNL     1       0.703   2.130  18.762  0.00  0.00    +0.000 C 
ATOM     14  C   UNL     1       1.240   3.459  19.200  0.00  0.00    +0.000 A 
ATOM     15  C   UNL     1       0.981   3.959  20.471  0.00  0.00    +0.000 A 
ATOM     16  C   UNL     1       1.485   5.212  20.815  0.00  0.00    +0.000 A 
ATOM     17  C   UNL     1       2.239   5.919  19.886  0.00  0.00    +0.000 A 
ATOM     18  C   UNL     1       2.467   5.336  18.652  0.00  0.00    +0.000 A 
ATOM     19  N   UNL     1       1.978   4.133  18.288  0.00  0.00    +0.000 NA
ENDBRANCH  12  18
ENDBRANCH   1  12
TORSDOF 4
ENDMDL
MODEL 5
REMARK VINA RESULT:      -7.0      0.955      1.109
REMARK  Name = 
REMARK  5 active torsions:
REMARK  status: ('A' for Active; 'I' for Inactive)
REMARK    1  A    between atoms: C_1  and  C_2
REMARK    2  A    between atoms: C_6  and  O_7
REMARK    3  A    between atoms: O_7  and  C_8
REMARK    4  A    between atoms: N_11  and  S_12
REMARK    5  A    between atoms: S_12  and  C_15
REMARK                            x       y       z     vdW  Elec       q    Type
REMARK                         _______ _______ _______ _____ _____    ______ ____
ROOT
ATOM      1  C   UNL     1       3.821   6.351  18.360  0.00  0.00    +0.000 C 
ATOM      2  C   UNL     1       4.619   5.340  19.170  0.00  0.00    +0.000 C 
ATOM      3  C   UNL     1       6.049   5.685  18.813  0.00  0.00    +0.000 C 
ATOM      4  N   UNL     1       6.007   5.964  17.349  0.00  0.00    +0.000 NA
ATOM      5  C   UNL     1       4.653   6.544  17.081  0.00  0.00    +0.000 C 
ENDROOT
BRANCH   4   6
ATOM      6  S   UNL     1       6.431   4.616  16.386  0.00  0.00    +0.000 S 
ATOM      7  O   UNL     1       7.858   4.424  16.531  0.00  0.00    +0.000 OA
ATOM      8  O   UNL     1       5.502   3.549  16.693  0.00  0.00    +0.000 OA
BRANCH   6   9
ATOM      9  C   UNL     1       6.092   5.070  14.656  0.00  0.00    +0.000 C 
ATOM     10  C   UNL     1       7.233   4.831  13.706  0.00  0.00    +0.000 C 
ATOM     11  C   UNL     1       6.041   3.911  13.696  0.00  0.00    +0.000 C 
ENDBRANCH   6   9
ENDBRANCH   4   6
BRANCH   1  12
ATOM     12  O   UNL     1       2.533   5.842  18.017  0.00  0.00    +0.000 OA
BRANCH  12  18
ATOM     13  C   UNL     1       1.353   2.831  21.534  0.00  0.00    +0.000 C 
ATOM     14  C   UNL     1       1.707   3.049  20.095  0.00  0.00    +0.000 A 
ATOM     15  C   UNL     1       1.764   1.990  19.196  0.00  0.00    +0.000 A 
ATOM     16  C   UNL     1       2.123   2.249  17.875  0.00  0.00    +0.000 A 
ATOM     17  C   UNL     1       2.402   3.555  17.490  0.00  0.00    +0.000 A 
ATOM     18  C   UNL     1       2.301   4.551  18.445  0.00  0.00    +0.000 A 
ATOM     19  N   UNL     1       1.970   4.326  19.733  0.00  0.00    +0.000 NA
ENDBRANCH  12  18
ENDBRANCH   1  12
TORSDOF 4
ENDMDL
MODEL 6
REMARK VINA RESULT:      -7.0      2.416      6.248
REMARK  Name = 
REMARK  5 active torsions:
REMARK  status: ('A' for Active; 'I' for Inactive)
REMARK    1  A    between atoms: C_1  and  C_2
REMARK    2  A    between atoms: C_6  and  O_7
REMARK    3  A    between atoms: O_7  and  C_8
REMARK    4  A    between atoms: N_11  and  S_12
REMARK    5  A    between atoms: S_12  and  C_15
REMARK                            x       y       z     vdW  Elec       q    Type
REMARK                         _______ _______ _______ _____ _____    ______ ____
ROOT
ATOM      1  C   UNL     1       5.301   4.163  16.721  0.00  0.00    +0.000 C 
ATOM      2  C   UNL     1       5.750   4.780  18.038  0.00  0.00    +0.000 C 
ATOM      3  C   UNL     1       5.053   3.912  19.063  0.00  0.00    +0.000 C 
ATOM      4  N   UNL     1       3.694   3.684  18.493  0.00  0.00    +0.000 NA
ATOM      5  C   UNL     1       3.871   3.675  17.006  0.00  0.00    +0.000 C 
ENDROOT
BRANCH   4   6
ATOM      6  S   UNL     1       2.516   4.771  19.085  0.00  0.00    +0.000 S 
ATOM      7  O   UNL     1       3.071   5.397  20.266  0.00  0.00    +0.000 OA
ATOM      8  O   UNL     1       2.054   5.568  17.968  0.00  0.00    +0.000 OA
BRANCH   6   9
ATOM      9  C   UNL     1       1.080   3.774  19.593  0.00  0.00    +0.000 C 
ATOM     10  C   UNL     1       1.182   2.309  19.269  0.00  0.00    +0.000 C 
ATOM     11  C   UNL     1       1.356   2.779  20.689  0.00  0.00    +0.000 C 
ENDBRANCH   6   9
ENDBRANCH   4   6
BRANCH   1  12
ATOM     12  O   UNL     1       5.272   5.134  15.675  0.00  0.00    +0.000 OA
BRANCH  12  18
ATOM     13  C   UNL     1       5.172   2.578  11.640  0.00  0.00    +0.000 C 
ATOM     14  C   UNL     1       5.893   3.543  12.532  0.00  0.00    +0.000 A 
ATOM     15  C   UNL     1       7.137   4.057  12.185  0.00  0.00    +0.000 A 
ATOM     16  C   UNL     1       7.771   4.932  13.065  0.00  0.00    +0.000 A 
ATOM     17  C   UNL     1       7.140   5.274  14.255  0.00  0.00    +0.000 A 
ATOM     18  C   UNL     1       5.893   4.732  14.511  0.00  0.00    +0.000 A 
ATOM     19  N   UNL     1       5.264   3.872  13.684  0.00  0.00    +0.000 NA
ENDBRANCH  12  18
ENDBRANCH   1  12
TORSDOF 4
ENDMDL
MODEL 7
REMARK VINA RESULT:      -6.9      1.605      2.262
REMARK  Name = 
REMARK  5 active torsions:
REMARK  status: ('A' for Active; 'I' for Inactive)
REMARK    1  A    between atoms: C_1  and  C_2
REMARK    2  A    between atoms: C_6  and  O_7
REMARK    3  A    between atoms: O_7  and  C_8
REMARK    4  A    between atoms: N_11  and  S_12
REMARK    5  A    between atoms: S_12  and  C_15
REMARK                            x       y       z     vdW  Elec       q    Type
REMARK                         _______ _______ _______ _____ _____    ______ ____
ROOT
ATOM      1  C   UNL     1       4.776   5.751  17.786  0.00  0.00    +0.000 C 
ATOM      2  C   UNL     1       6.148   6.400  17.895  0.00  0.00    +0.000 C 
ATOM      3  C   UNL     1       6.358   6.960  16.504  0.00  0.00    +0.000 C 
ATOM      4  N   UNL     1       5.838   5.898  15.596  0.00  0.00    +0.000 NA
ATOM      5  C   UNL     1       4.720   5.235  16.339  0.00  0.00    +0.000 C 
ENDROOT
BRANCH   4   6
ATOM      6  S   UNL     1       7.053   4.848  15.008  0.00  0.00    +0.000 S 
ATOM      7  O   UNL     1       7.880   5.621  14.107  0.00  0.00    +0.000 OA
ATOM      8  O   UNL     1       7.629   4.165  16.147  0.00  0.00    +0.000 OA
BRANCH   6   9
ATOM      9  C   UNL     1       6.215   3.554  14.041  0.00  0.00    +0.000 C 
ATOM     10  C   UNL     1       5.159   4.056  13.095  0.00  0.00    +0.000 C 
ATOM     11  C   UNL     1       6.488   3.593  12.560  0.00  0.00    +0.000 C 
ENDBRANCH   6   9
ENDBRANCH   4   6
BRANCH   1  12
ATOM     12  O   UNL     1       4.649   4.651  18.688  0.00  0.00    +0.000 OA
BRANCH  12  18
ATOM     13  C   UNL     1       0.627   2.078  18.852  0.00  0.00    +0.000 C 
ATOM     14  C   UNL     1       1.419   3.255  19.333  0.00  0.00    +0.000 A 
ATOM     15  C   UNL     1       0.910   4.127  20.289  0.00  0.00    +0.000 A 
ATOM     16  C   UNL     1       1.681   5.219  20.680  0.00  0.00    +0.000 A 
ATOM     17  C   UNL     1       2.938   5.400  20.116  0.00  0.00    +0.000 A 
ATOM     18  C   UNL     1       3.376   4.472  19.188  0.00  0.00    +0.000 A 
ATOM     19  N   UNL     1       2.644   3.414  18.781  0.00  0.00    +0.000 NA
ENDBRANCH  12  18
ENDBRANCH   1  12
TORSDOF 4
ENDMDL
MODEL 8
REMARK VINA RESULT:      -6.9      2.091      5.921
REMARK  Name = 
REMARK  5 active torsions:
REMARK  status: ('A' for Active; 'I' for Inactive)
REMARK    1  A    between atoms: C_1  and  C_2
REMARK    2  A    between atoms: C_6  and  O_7
REMARK    3  A    between atoms: O_7  and  C_8
REMARK    4  A    between atoms: N_11  and  S_12
REMARK    5  A    between atoms: S_12  and  C_15
REMARK                            x       y       z     vdW  Elec       q    Type
REMARK                         _______ _______ _______ _____ _____    ______ ____
ROOT
ATOM      1  C   UNL     1       6.343   5.923  17.893  0.00  0.00    +0.000 C 
ATOM      2  C   UNL     1       5.087   6.088  17.049  0.00  0.00    +0.000 C 
ATOM      3  C   UNL     1       4.022   6.351  18.091  0.00  0.00    +0.000 C 
ATOM      4  N   UNL     1       4.350   5.410  19.200  0.00  0.00    +0.000 NA
ATOM      5  C   UNL     1       5.840   5.264  19.187  0.00  0.00    +0.000 C 
ENDROOT
BRANCH   4   6
ATOM      6  S   UNL     1       3.469   3.946  19.135  0.00  0.00    +0.000 S 
ATOM      7  O   UNL     1       2.583   4.035  17.994  0.00  0.00    +0.000 OA
ATOM      8  O   UNL     1       4.417   2.859  19.258  0.00  0.00    +0.000 OA
BRANCH   6   9
ATOM      9  C   UNL     1       2.449   3.871  20.641  0.00  0.00    +0.000 C 
ATOM     10  C   UNL     1       1.142   4.610  20.556  0.00  0.00    +0.000 C 
ATOM     11  C   UNL     1       1.160   3.105  20.495  0.00  0.00    +0.000 C 
ENDBRANCH   6   9
ENDBRANCH   4   6
BRANCH   1  12
ATOM     12  O   UNL     1       7.288   5.063  17.256  0.00  0.00    +0.000 OA
BRANCH  12  18
ATOM     13  C   UNL     1       8.157   5.700  12.602  0.00  0.00    +0.000 C 
ATOM     14  C   UNL     1       7.382   5.007  13.681  0.00  0.00    +0.000 A 
ATOM     15  C   UNL     1       6.412   4.058  13.378  0.00  0.00    +0.000 A 
ATOM     16  C   UNL     1       5.704   3.465  14.421  0.00  0.00    +0.000 A 
ATOM     17  C   UNL     1       5.994   3.828  15.731  0.00  0.00    +0.000 A 
ATOM     18  C   UNL     1       6.989   4.765  15.943  0.00  0.00    +0.000 A 
ATOM     19  N   UNL     1       7.679   5.366  14.951  0.00  0.00    +0.000 NA
ENDBRANCH  12  18
ENDBRANCH   1  12
TORSDOF 4
ENDMDL
MODEL 9
REMARK VINA RESULT:      -6.9      2.778      5.952
REMARK  Name = 
REMARK  5 active torsions:
REMARK  status: ('A' for Active; 'I' for Inactive)
REMARK    1  A    between atoms: C_1  and  C_2
REMARK    2  A    between atoms: C_6  and  O_7
REMARK    3  A    between atoms: O_7  and  C_8
REMARK    4  A    between atoms: N_11  and  S_12
REMARK    5  A    between atoms: S_12  and  C_15
REMARK                            x       y       z     vdW  Elec       q    Type
REMARK                         _______ _______ _______ _____ _____    ______ ____
ROOT
ATOM      1  C   UNL     1       3.882   2.871  17.784  0.00  0.00    +0.000 C 
ATOM      2  C   UNL     1       4.658   3.244  19.039  0.00  0.00    +0.000 C 
ATOM      3  C   UNL     1       4.095   2.290  20.070  0.00  0.00    +0.000 C 
ATOM      4  N   UNL     1       2.631   2.261  19.787  0.00  0.00    +0.000 NA
ATOM      5  C   UNL     1       2.496   2.463  18.310  0.00  0.00    +0.000 C 
ENDROOT
BRANCH   4   6
ATOM      6  S   UNL     1       1.727   3.338  20.760  0.00  0.00    +0.000 S 
ATOM      7  O   UNL     1       0.416   3.453  20.159  0.00  0.00    +0.000 OA
ATOM      8  O   UNL     1       1.881   2.918  22.137  0.00  0.00    +0.000 OA
BRANCH   6   9
ATOM      9  C   UNL     1       2.544   4.962  20.657  0.00  0.00    +0.000 C 
ATOM     10  C   UNL     1       2.155   5.789  19.462  0.00  0.00    +0.000 C 
ATOM     11  C   UNL     1       1.626   6.144  20.827  0.00  0.00    +0.000 C 
ENDBRANCH   6   9
ENDBRANCH   4   6
BRANCH   1  12
ATOM     12  O   UNL     1       3.747   3.988  16.905  0.00  0.00    +0.000 OA
BRANCH  12  18
ATOM     13  C   UNL     1       7.349   7.085  17.420  0.00  0.00    +0.000 C 
ATOM     14  C   UNL     1       6.728   5.951  16.662  0.00  0.00    +0.000 A 
ATOM     15  C   UNL     1       7.353   5.396  15.552  0.00  0.00    +0.000 A 
ATOM     16  C   UNL     1       6.717   4.360  14.871  0.00  0.00    +0.000 A 
ATOM     17  C   UNL     1       5.485   3.904  15.325  0.00  0.00    +0.000 A 
ATOM     18  C   UNL     1       4.945   4.500  16.451  0.00  0.00    +0.000 A 
ATOM     19  N   UNL     1       5.532   5.513  17.119  0.00  0.00    +0.000 NA
ENDBRANCH  12  18
ENDBRANCH   1  12
TORSDOF 4
ENDMDL
