MODEL 1
REMARK VINA RESULT:      -7.4      0.000      0.000
REMARK  Name = 
REMARK  6 active torsions:
REMARK  status: ('A' for Active; 'I' for Inactive)
REMARK    1  A    between atoms: C_1  and  C_2
REMARK    2  A    between atoms: C_6  and  C_7
REMARK    3  A    between atoms: C_8  and  C_9
REMARK    4  A    between atoms: C_15  and  C_16
REMARK    5  A    between atoms: C_15  and  O_17
REMARK    6  A    between atoms: C_20  and  O_21
REMARK                            x       y       z     vdW  Elec       q    Type
REMARK                         _______ _______ _______ _____ _____    ______ ____
ROOT
ATOM      1  C   UNL     1       1.070   9.707  19.114  0.00  0.00    +0.000 C 
ATOM      2  C   UNL     1       0.958   9.216  20.548  0.00  0.00    +0.000 C 
ATOM      3  C   UNL     1       1.403   7.974  20.878  0.00  0.00    +0.000 C 
ATOM      4  C   UNL     1       1.954   6.737  20.434  0.00  0.00    +0.000 C 
ATOM      5  C   UNL     1       1.987   5.525  21.328  0.00  0.00    +0.000 C 
ATOM      6  C   UNL     1       2.288   4.371  20.373  0.00  0.00    +0.000 C 
ATOM      7  C   UNL     1       1.278   4.136  19.210  0.00  0.00    +0.000 C 
ATOM      8  C   UNL     1       2.687   3.091  21.117  0.00  0.00    +0.000 C 
ATOM      9  C   UNL     1       1.418   2.454  21.619  0.00  0.00    +0.000 C 
ATOM     10  O   UNL     1       3.330   2.059  20.337  0.00  0.00    +0.000 OA
ATOM     11  C   UNL     1       4.696   2.147  20.258  0.00  0.00    +0.000 C 
ATOM     12  O   UNL     1       5.455   1.290  20.722  0.00  0.00    +0.000 OA
ATOM     13  C   UNL     1       5.103   3.391  19.532  0.00  0.00    +0.000 C 
ATOM     14  C   UNL     1       4.216   3.873  18.597  0.00  0.00    +0.000 C 
ATOM     15  C   UNL     1       3.936   5.127  17.504  0.00  0.00    +0.000 C 
ATOM     16  C   UNL     1       5.275   4.428  16.712  0.00  0.00    +0.000 C 
ATOM     17  C   UNL     1       3.091   6.849  17.997  0.00  0.00    +0.000 C 
ATOM     18  C   UNL     1       1.902   8.012  18.182  0.00  0.00    +0.000 C 
ATOM     19  C   UNL     1       1.070   9.707  19.114  0.00  0.00    +0.000 C 
ENDROOT
BRANCH  15  20
ATOM     20  O   UNL     1       2.907   4.481  16.639  0.00  0.00    +0.000 OA
ATOM     21  H   UNL     1       2.654   3.569  16.979  0.00  0.00    +0.000 HD
ENDBRANCH  15  20
BRANCH  19  22
ATOM     22  O   UNL     1       0.439  10.346  17.481  0.00  0.00    +0.000 OA
ATOM     23  H   UNL     1      -0.044   9.550  17.160  0.00  0.00    +0.000 HD
ENDBRANCH  19  22
TORSDOF 2
ENDMDL
MODEL 2
REMARK VINA RESULT:      -7.1      1.794      3.668
REMARK  Name = 
REMARK  6 active torsions:
REMARK  status: ('A' for Active; 'I' for Inactive)
REMARK    1  A    between atoms: C_1  and  C_2
REMARK    2  A    between atoms: C_6  and  C_7
REMARK    3  A    between atoms: C_8  and  C_9
REMARK    4  A    between atoms: C_15  and  C_16
REMARK    5  A    between atoms: C_15  and  O_17
REMARK    6  A    between atoms: C_20  and  O_21
REMARK                            x       y       z     vdW  Elec       q    Type
REMARK                         _______ _______ _______ _____ _____    ______ ____
ROOT
ATOM      1  C   UNL     1       0.975  10.046  19.688  0.00  0.00    +0.000 C 
ATOM      2  C   UNL     1       1.561   9.924  18.291  0.00  0.00    +0.000 C 
ATOM      3  C   UNL     1       2.117   8.750  17.888  0.00  0.00    +0.000 C 
ATOM      4  C   UNL     1       2.500   7.421  18.230  0.00  0.00    +0.000 C 
ATOM      5  C   UNL     1       3.403   6.609  17.339  0.00  0.00    +0.000 C 
ATOM      6  C   UNL     1       3.850   5.448  18.226  0.00  0.00    +0.000 C 
ATOM      7  C   UNL     1       4.603   5.815  19.540  0.00  0.00    +0.000 C 
ATOM      8  C   UNL     1       4.516   4.326  17.421  0.00  0.00    +0.000 C 
ATOM      9  C   UNL     1       5.928   4.760  17.136  0.00  0.00    +0.000 C 
ATOM     10  O   UNL     1       4.652   3.047  18.080  0.00  0.00    +0.000 OA
ATOM     11  C   UNL     1       3.591   2.192  17.930  0.00  0.00    +0.000 C 
ATOM     12  O   UNL     1       3.674   1.109  17.344  0.00  0.00    +0.000 OA
ATOM     13  C   UNL     1       2.366   2.754  18.583  0.00  0.00    +0.000 C 
ATOM     14  C   UNL     1       2.572   3.593  19.655  0.00  0.00    +0.000 C 
ATOM     15  C   UNL     1       1.796   4.577  20.783  0.00  0.00    +0.000 C 
ATOM     16  C   UNL     1       1.200   3.078  21.339  0.00  0.00    +0.000 C 
ATOM     17  C   UNL     1       1.305   6.465  20.444  0.00  0.00    +0.000 C 
ATOM     18  C   UNL     1       1.405   8.135  20.463  0.00  0.00    +0.000 C 
ATOM     19  C   UNL     1       0.975  10.046  19.688  0.00  0.00    +0.000 C 
ENDROOT
BRANCH  15  20
ATOM     20  O   UNL     1       2.876   4.687  21.805  0.00  0.00    +0.000 OA
ATOM     21  H   UNL     1       2.553   5.144  22.641  0.00  0.00    +0.000 HD
ENDBRANCH  15  20
BRANCH  19  22
ATOM     22  O   UNL     1       0.804  10.749  21.405  0.00  0.00    +0.000 OA
ATOM     23  H   UNL     1       0.312  10.016  21.843  0.00  0.00    +0.000 HD
ENDBRANCH  19  22
TORSDOF 2
ENDMDL
MODEL 3
REMARK VINA RESULT:      -6.6     10.143     11.776
REMARK  Name = 
REMARK  6 active torsions:
REMARK  status: ('A' for Active; 'I' for Inactive)
REMARK    1  A    between atoms: C_1  and  C_2
REMARK    2  A    between atoms: C_6  and  C_7
REMARK    3  A    between atoms: C_8  and  C_9
REMARK    4  A    between atoms: C_15  and  C_16
REMARK    5  A    between atoms: C_15  and  O_17
REMARK    6  A    between atoms: C_20  and  O_21
REMARK                            x       y       z     vdW  Elec       q    Type
REMARK                         _______ _______ _______ _____ _____    ______ ____
ROOT
ATOM      1  C   UNL     1      11.574  12.191  17.749  0.00  0.00    +0.000 C 
ATOM      2  C   UNL     1      11.730  11.569  19.127  0.00  0.00    +0.000 C 
ATOM      3  C   UNL     1      10.899  11.937  20.137  0.00  0.00    +0.000 C 
ATOM      4  C   UNL     1       9.840  12.784  20.575  0.00  0.00    +0.000 C 
ATOM      5  C   UNL     1       9.490  12.917  22.034  0.00  0.00    +0.000 C 
ATOM      6  C   UNL     1       8.601  14.158  22.089  0.00  0.00    +0.000 C 
ATOM      7  C   UNL     1       9.222  15.493  21.577  0.00  0.00    +0.000 C 
ATOM      8  C   UNL     1       7.869  14.288  23.430  0.00  0.00    +0.000 C 
ATOM      9  C   UNL     1       8.852  14.847  24.423  0.00  0.00    +0.000 C 
ATOM     10  O   UNL     1       6.749  15.200  23.473  0.00  0.00    +0.000 OA
ATOM     11  C   UNL     1       5.535  14.656  23.140  0.00  0.00    +0.000 C 
ATOM     12  O   UNL     1       4.593  14.571  23.935  0.00  0.00    +0.000 OA
ATOM     13  C   UNL     1       5.528  14.216  21.710  0.00  0.00    +0.000 C 
ATOM     14  C   UNL     1       6.358  14.903  20.853  0.00  0.00    +0.000 C 
ATOM     15  C   UNL     1       6.913  14.978  19.262  0.00  0.00    +0.000 C 
ATOM     16  C   UNL     1       5.292  15.416  18.959  0.00  0.00    +0.000 C 
ATOM     17  C   UNL     1       8.436  13.914  18.576  0.00  0.00    +0.000 C 
ATOM     18  C   UNL     1       9.998  13.541  18.105  0.00  0.00    +0.000 C 
ATOM     19  C   UNL     1      11.574  12.191  17.749  0.00  0.00    +0.000 C 
ENDROOT
BRANCH  15  20
ATOM     20  O   UNL     1       7.441  16.372  19.246  0.00  0.00    +0.000 OA
ATOM     21  H   UNL     1       6.771  17.021  18.868  0.00  0.00    +0.000 HD
ENDBRANCH  15  20
BRANCH  19  22
ATOM     22  O   UNL     1      12.112  13.152  16.246  0.00  0.00    +0.000 OA
ATOM     23  H   UNL     1      11.959  14.071  16.566  0.00  0.00    +0.000 HD
ENDBRANCH  19  22
TORSDOF 2
ENDMDL
MODEL 4
REMARK VINA RESULT:      -6.4      4.174      9.056
REMARK  Name = 
REMARK  6 active torsions:
REMARK  status: ('A' for Active; 'I' for Inactive)
REMARK    1  A    between atoms: C_1  and  C_2
REMARK    2  A    between atoms: C_6  and  C_7
REMARK    3  A    between atoms: C_8  and  C_9
REMARK    4  A    between atoms: C_15  and  C_16
REMARK    5  A    between atoms: C_15  and  O_17
REMARK    6  A    between atoms: C_20  and  O_21
REMARK                            x       y       z     vdW  Elec       q    Type
REMARK                         _______ _______ _______ _____ _____    ______ ____
ROOT
ATOM      1  C   UNL     1       2.112   7.947  18.957  0.00  0.00    +0.000 C 
ATOM      2  C   UNL     1       1.794   8.124  20.433  0.00  0.00    +0.000 C 
ATOM      3  C   UNL     1       0.803   8.972  20.818  0.00  0.00    +0.000 C 
ATOM      4  C   UNL     1      -0.171   9.936  20.431  0.00  0.00    +0.000 C 
ATOM      5  C   UNL     1      -0.862  10.808  21.448  0.00  0.00    +0.000 C 
ATOM      6  C   UNL     1      -1.508  11.911  20.610  0.00  0.00    +0.000 C 
ATOM      7  C   UNL     1      -0.556  12.781  19.736  0.00  0.00    +0.000 C 
ATOM      8  C   UNL     1      -2.532  12.723  21.412  0.00  0.00    +0.000 C 
ATOM      9  C   UNL     1      -1.761  13.702  22.256  0.00  0.00    +0.000 C 
ATOM     10  O   UNL     1      -3.451  13.540  20.653  0.00  0.00    +0.000 OA
ATOM     11  C   UNL     1      -4.610  12.918  20.267  0.00  0.00    +0.000 C 
ATOM     12  O   UNL     1      -5.727  13.267  20.663  0.00  0.00    +0.000 OA
ATOM     13  C   UNL     1      -4.318  11.802  19.313  0.00  0.00    +0.000 C 
ATOM     14  C   UNL     1      -3.189  11.938  18.538  0.00  0.00    +0.000 C 
ATOM     15  C   UNL     1      -2.233  11.173  17.378  0.00  0.00    +0.000 C 
ATOM     16  C   UNL     1      -3.619  11.412  16.412  0.00  0.00    +0.000 C 
ATOM     17  C   UNL     1      -0.790   9.889  17.812  0.00  0.00    +0.000 C 
ATOM     18  C   UNL     1       0.753   9.307  18.097  0.00  0.00    +0.000 C 
ATOM     19  C   UNL     1       2.112   7.947  18.957  0.00  0.00    +0.000 C 
ENDROOT
BRANCH  15  20
ATOM     20  O   UNL     1      -1.489  12.352  16.850  0.00  0.00    +0.000 OA
ATOM     21  H   UNL     1      -1.258  12.242  15.877  0.00  0.00    +0.000 HD
ENDBRANCH  15  20
BRANCH  19  22
ATOM     22  O   UNL     1       3.180   7.987  17.431  0.00  0.00    +0.000 OA
ATOM     23  H   UNL     1       3.915   8.561  17.750  0.00  0.00    +0.000 HD
ENDBRANCH  19  22
TORSDOF 2
ENDMDL
MODEL 5
REMARK VINA RESULT:      -6.4      2.230      4.077
REMARK  Name = 
REMARK  6 active torsions:
REMARK  status: ('A' for Active; 'I' for Inactive)
REMARK    1  A    between atoms: C_1  and  C_2
REMARK    2  A    between atoms: C_6  and  C_7
REMARK    3  A    between atoms: C_8  and  C_9
REMARK    4  A    between atoms: C_15  and  C_16
REMARK    5  A    between atoms: C_15  and  O_17
REMARK    6  A    between atoms: C_20  and  O_21
REMARK                            x       y       z     vdW  Elec       q    Type
REMARK                         _______ _______ _______ _____ _____    ______ ____
ROOT
ATOM      1  C   UNL     1       0.377  10.332  21.190  0.00  0.00    +0.000 C 
ATOM      2  C   UNL     1       0.801  10.618  19.759  0.00  0.00    +0.000 C 
ATOM      3  C   UNL     1       1.324   9.624  18.993  0.00  0.00    +0.000 C 
ATOM      4  C   UNL     1       1.763   8.271  18.915  0.00  0.00    +0.000 C 
ATOM      5  C   UNL     1       2.571   7.773  17.745  0.00  0.00    +0.000 C 
ATOM      6  C   UNL     1       3.134   6.437  18.227  0.00  0.00    +0.000 C 
ATOM      7  C   UNL     1       4.027   6.468  19.504  0.00  0.00    +0.000 C 
ATOM      8  C   UNL     1       3.719   5.605  17.080  0.00  0.00    +0.000 C 
ATOM      9  C   UNL     1       5.083   6.164  16.776  0.00  0.00    +0.000 C 
ATOM     10  O   UNL     1       3.949   4.204  17.345  0.00  0.00    +0.000 OA
ATOM     11  C   UNL     1       2.891   3.373  17.081  0.00  0.00    +0.000 C 
ATOM     12  O   UNL     1       2.923   2.494  16.215  0.00  0.00    +0.000 OA
ATOM     13  C   UNL     1       1.741   3.681  17.989  0.00  0.00    +0.000 C 
ATOM     14  C   UNL     1       2.056   4.208  19.221  0.00  0.00    +0.000 C 
ATOM     15  C   UNL     1       1.400   4.813  20.651  0.00  0.00    +0.000 C 
ATOM     16  C   UNL     1       0.894   3.195  20.836  0.00  0.00    +0.000 C 
ATOM     17  C   UNL     1       0.845   6.699  20.896  0.00  0.00    +0.000 C 
ATOM     18  C   UNL     1       0.921   8.304  21.361  0.00  0.00    +0.000 C 
ATOM     19  C   UNL     1       0.377  10.332  21.190  0.00  0.00    +0.000 C 
ENDROOT
BRANCH  15  20
ATOM     20  O   UNL     1       2.588   4.693  21.543  0.00  0.00    +0.000 OA
ATOM     21  H   UNL     1       3.033   3.795  21.453  0.00  0.00    +0.000 HD
ENDBRANCH  15  20
BRANCH  19  22
ATOM     22  O   UNL     1       0.394  10.535  23.042  0.00  0.00    +0.000 OA
ATOM     23  H   UNL     1       0.971   9.777  23.293  0.00  0.00    +0.000 HD
ENDBRANCH  19  22
TORSDOF 2
ENDMDL
MODEL 6
REMARK VINA RESULT:      -6.3      6.892      9.461
REMARK  Name = 
REMARK  6 active torsions:
REMARK  status: ('A' for Active; 'I' for Inactive)
REMARK    1  A    between atoms: C_1  and  C_2
REMARK    2  A    between atoms: C_6  and  C_7
REMARK    3  A    between atoms: C_8  and  C_9
REMARK    4  A    between atoms: C_15  and  C_16
REMARK    5  A    between atoms: C_15  and  O_17
REMARK    6  A    between atoms: C_20  and  O_21
REMARK                            x       y       z     vdW  Elec       q    Type
REMARK                         _______ _______ _______ _____ _____    ______ ____
ROOT
ATOM      1  C   UNL     1      -5.955  12.491  17.224  0.00  0.00    +0.000 C 
ATOM      2  C   UNL     1      -4.912  11.536  16.668  0.00  0.00    +0.000 C 
ATOM      3  C   UNL     1      -3.837  11.187  17.425  0.00  0.00    +0.000 C 
ATOM      4  C   UNL     1      -3.115  11.365  18.640  0.00  0.00    +0.000 C 
ATOM      5  C   UNL     1      -1.713  10.838  18.805  0.00  0.00    +0.000 C 
ATOM      6  C   UNL     1      -1.195  11.551  20.054  0.00  0.00    +0.000 C 
ATOM      7  C   UNL     1      -1.168  13.109  20.016  0.00  0.00    +0.000 C 
ATOM      8  C   UNL     1       0.095  10.920  20.590  0.00  0.00    +0.000 C 
ATOM      9  C   UNL     1       1.226  11.424  19.733  0.00  0.00    +0.000 C 
ATOM     10  O   UNL     1       0.477  11.267  21.939  0.00  0.00    +0.000 OA
ATOM     11  C   UNL     1      -0.037  10.460  22.921  0.00  0.00    +0.000 C 
ATOM     12  O   UNL     1       0.667   9.756  23.652  0.00  0.00    +0.000 OA
ATOM     13  C   UNL     1      -1.528  10.578  22.975  0.00  0.00    +0.000 C 
ATOM     14  C   UNL     1      -2.063  11.778  22.567  0.00  0.00    +0.000 C 
ATOM     15  C   UNL     1      -3.509  12.606  22.302  0.00  0.00    +0.000 C 
ATOM     16  C   UNL     1      -3.626  12.478  23.999  0.00  0.00    +0.000 C 
ATOM     17  C   UNL     1      -4.543  12.503  20.616  0.00  0.00    +0.000 C 
ATOM     18  C   UNL     1      -5.119  12.934  19.105  0.00  0.00    +0.000 C 
ATOM     19  C   UNL     1      -5.955  12.491  17.224  0.00  0.00    +0.000 C 
ENDROOT
BRANCH  15  20
ATOM     20  O   UNL     1      -2.999  14.007  22.301  0.00  0.00    +0.000 OA
ATOM     21  H   UNL     1      -3.713  14.663  22.032  0.00  0.00    +0.000 HD
ENDBRANCH  15  20
BRANCH  19  22
ATOM     22  O   UNL     1      -6.986  14.042  17.271  0.00  0.00    +0.000 OA
ATOM     23  H   UNL     1      -7.881  13.650  17.399  0.00  0.00    +0.000 HD
ENDBRANCH  19  22
TORSDOF 2
ENDMDL
MODEL 7
REMARK VINA RESULT:      -6.3      2.732      7.936
REMARK  Name = 
REMARK  6 active torsions:
REMARK  status: ('A' for Active; 'I' for Inactive)
REMARK    1  A    between atoms: C_1  and  C_2
REMARK    2  A    between atoms: C_6  and  C_7
REMARK    3  A    between atoms: C_8  and  C_9
REMARK    4  A    between atoms: C_15  and  C_16
REMARK    5  A    between atoms: C_15  and  O_17
REMARK    6  A    between atoms: C_20  and  O_21
REMARK                            x       y       z     vdW  Elec       q    Type
REMARK                         _______ _______ _______ _____ _____    ______ ____
ROOT
ATOM      1  C   UNL     1       3.502   6.090  18.418  0.00  0.00    +0.000 C 
ATOM      2  C   UNL     1       3.581   7.250  17.440  0.00  0.00    +0.000 C 
ATOM      3  C   UNL     1       2.859   8.380  17.666  0.00  0.00    +0.000 C 
ATOM      4  C   UNL     1       1.897   9.051  18.475  0.00  0.00    +0.000 C 
ATOM      5  C   UNL     1       1.239  10.326  18.020  0.00  0.00    +0.000 C 
ATOM      6  C   UNL     1       0.050  10.487  18.967  0.00  0.00    +0.000 C 
ATOM      7  C   UNL     1      -0.998   9.334  18.985  0.00  0.00    +0.000 C 
ATOM      8  C   UNL     1      -0.568  11.888  18.891  0.00  0.00    +0.000 C 
ATOM      9  C   UNL     1      -1.437  11.924  17.662  0.00  0.00    +0.000 C 
ATOM     10  O   UNL     1      -1.447  12.270  19.971  0.00  0.00    +0.000 OA
ATOM     11  C   UNL     1      -0.835  12.866  21.044  0.00  0.00    +0.000 C 
ATOM     12  O   UNL     1      -1.057  14.031  21.386  0.00  0.00    +0.000 OA
ATOM     13  C   UNL     1       0.096  11.907  21.719  0.00  0.00    +0.000 C 
ATOM     14  C   UNL     1      -0.222  10.571  21.620  0.00  0.00    +0.000 C 
ATOM     15  C   UNL     1       0.295   9.015  22.016  0.00  0.00    +0.000 C 
ATOM     16  C   UNL     1      -0.023   9.561  23.601  0.00  0.00    +0.000 C 
ATOM     17  C   UNL     1       1.555   7.960  20.911  0.00  0.00    +0.000 C 
ATOM     18  C   UNL     1       2.094   6.834  19.797  0.00  0.00    +0.000 C 
ATOM     19  C   UNL     1       3.502   6.090  18.418  0.00  0.00    +0.000 C 
ENDROOT
BRANCH  15  20
ATOM     20  O   UNL     1      -0.991   8.277  21.860  0.00  0.00    +0.000 OA
ATOM     21  H   UNL     1      -1.354   8.352  20.924  0.00  0.00    +0.000 HD
ENDBRANCH  15  20
BRANCH  19  22
ATOM     22  O   UNL     1       3.161   4.338  18.954  0.00  0.00    +0.000 OA
ATOM     23  H   UNL     1       2.176   4.355  18.981  0.00  0.00    +0.000 HD
ENDBRANCH  19  22
TORSDOF 2
ENDMDL
MODEL 8
REMARK VINA RESULT:      -6.2      9.901     11.716
REMARK  Name = 
REMARK  6 active torsions:
REMARK  status: ('A' for Active; 'I' for Inactive)
REMARK    1  A    between atoms: C_1  and  C_2
REMARK    2  A    between atoms: C_6  and  C_7
REMARK    3  A    between atoms: C_8  and  C_9
REMARK    4  A    between atoms: C_15  and  C_16
REMARK    5  A    between atoms: C_15  and  O_17
REMARK    6  A    between atoms: C_20  and  O_21
REMARK                            x       y       z     vdW  Elec       q    Type
REMARK                         _______ _______ _______ _____ _____    ______ ____
ROOT
ATOM      1  C   UNL     1      11.245  12.865  17.071  0.00  0.00    +0.000 C 
ATOM      2  C   UNL     1      10.936  11.622  17.889  0.00  0.00    +0.000 C 
ATOM      3  C   UNL     1      10.130  11.709  18.981  0.00  0.00    +0.000 C 
ATOM      4  C   UNL     1       9.381  12.545  19.858  0.00  0.00    +0.000 C 
ATOM      5  C   UNL     1       8.859  12.034  21.176  0.00  0.00    +0.000 C 
ATOM      6  C   UNL     1       8.470  13.302  21.935  0.00  0.00    +0.000 C 
ATOM      7  C   UNL     1       9.599  14.346  22.189  0.00  0.00    +0.000 C 
ATOM      8  C   UNL     1       7.615  12.999  23.171  0.00  0.00    +0.000 C 
ATOM      9  C   UNL     1       8.550  12.537  24.257  0.00  0.00    +0.000 C 
ATOM     10  O   UNL     1       6.899  14.110  23.754  0.00  0.00    +0.000 OA
ATOM     11  C   UNL     1       5.646  14.334  23.245  0.00  0.00    +0.000 C 
ATOM     12  O   UNL     1       4.616  14.227  23.917  0.00  0.00    +0.000 OA
ATOM     13  C   UNL     1       5.727  14.733  21.805  0.00  0.00    +0.000 C 
ATOM     14  C   UNL     1       6.877  15.377  21.409  0.00  0.00    +0.000 C 
ATOM     15  C   UNL     1       7.683  16.034  20.082  0.00  0.00    +0.000 C 
ATOM     16  C   UNL     1       6.398  17.153  20.145  0.00  0.00    +0.000 C 
ATOM     17  C   UNL     1       8.825  14.979  18.854  0.00  0.00    +0.000 C 
ATOM     18  C   UNL     1      10.210  14.329  18.177  0.00  0.00    +0.000 C 
ATOM     19  C   UNL     1      11.245  12.865  17.071  0.00  0.00    +0.000 C 
ENDROOT
BRANCH  15  20
ATOM     20  O   UNL     1       8.664  16.905  20.790  0.00  0.00    +0.000 OA
ATOM     21  H   UNL     1       8.238  17.404  21.553  0.00  0.00    +0.000 HD
ENDBRANCH  15  20
BRANCH  19  22
ATOM     22  O   UNL     1      12.333  14.163  16.294  0.00  0.00    +0.000 OA
ATOM     23  H   UNL     1      12.278  14.868  16.981  0.00  0.00    +0.000 HD
ENDBRANCH  19  22
TORSDOF 2
ENDMDL
MODEL 9
REMARK VINA RESULT:      -6.2      7.516     10.631
REMARK  Name = 
REMARK  6 active torsions:
REMARK  status: ('A' for Active; 'I' for Inactive)
REMARK    1  A    between atoms: C_1  and  C_2
REMARK    2  A    between atoms: C_6  and  C_7
REMARK    3  A    between atoms: C_8  and  C_9
REMARK    4  A    between atoms: C_15  and  C_16
REMARK    5  A    between atoms: C_15  and  O_17
REMARK    6  A    between atoms: C_20  and  O_21
REMARK                            x       y       z     vdW  Elec       q    Type
REMARK                         _______ _______ _______ _____ _____    ______ ____
ROOT
ATOM      1  C   UNL     1      -2.342  10.006  16.518  0.00  0.00    +0.000 C 
ATOM      2  C   UNL     1      -1.163   9.776  17.450  0.00  0.00    +0.000 C 
ATOM      3  C   UNL     1      -1.119  10.401  18.657  0.00  0.00    +0.000 C 
ATOM      4  C   UNL     1      -1.721  11.332  19.552  0.00  0.00    +0.000 C 
ATOM      5  C   UNL     1      -0.986  11.850  20.760  0.00  0.00    +0.000 C 
ATOM      6  C   UNL     1      -1.809  13.059  21.203  0.00  0.00    +0.000 C 
ATOM      7  C   UNL     1      -1.986  14.209  20.166  0.00  0.00    +0.000 C 
ATOM      8  C   UNL     1      -1.422  13.542  22.606  0.00  0.00    +0.000 C 
ATOM      9  C   UNL     1      -0.159  14.348  22.466  0.00  0.00    +0.000 C 
ATOM     10  O   UNL     1      -2.351  14.429  23.266  0.00  0.00    +0.000 OA
ATOM     11  C   UNL     1      -3.323  13.813  24.012  0.00  0.00    +0.000 C 
ATOM     12  O   UNL     1      -3.417  13.942  25.237  0.00  0.00    +0.000 OA
ATOM     13  C   UNL     1      -4.228  13.006  23.135  0.00  0.00    +0.000 C 
ATOM     14  C   UNL     1      -4.372  13.440  21.837  0.00  0.00    +0.000 C 
ATOM     15  C   UNL     1      -5.094  13.087  20.355  0.00  0.00    +0.000 C 
ATOM     16  C   UNL     1      -6.520  13.424  21.229  0.00  0.00    +0.000 C 
ATOM     17  C   UNL     1      -4.298  11.881  19.001  0.00  0.00    +0.000 C 
ATOM     18  C   UNL     1      -3.459  11.399  17.635  0.00  0.00    +0.000 C 
ATOM     19  C   UNL     1      -2.342  10.006  16.518  0.00  0.00    +0.000 C 
ENDROOT
BRANCH  15  20
ATOM     20  O   UNL     1      -5.006  14.427  19.707  0.00  0.00    +0.000 OA
ATOM     21  H   UNL     1      -4.933  15.166  20.386  0.00  0.00    +0.000 HD
ENDBRANCH  15  20
BRANCH  19  22
ATOM     22  O   UNL     1      -3.187  10.530  14.943  0.00  0.00    +0.000 OA
ATOM     23  H   UNL     1      -2.415  10.885  14.443  0.00  0.00    +0.000 HD
ENDBRANCH  19  22
TORSDOF 2
ENDMDL
