MODEL 1
REMARK VINA RESULT:      -7.5      0.000      0.000
REMARK  Name = 
REMARK  9 active torsions:
REMARK  status: ('A' for Active; 'I' for Inactive)
REMARK    1  A    between atoms: C_1  and  C_2
REMARK    2  A    between atoms: N_4  and  N_5
REMARK    3  A    between atoms: N_5  and  O_6
REMARK    4  A    between atoms: N_5  and  C_7
REMARK    5  A    between atoms: N_8  and  C_9
REMARK    6  A    between atoms: N_12  and  C_13
REMARK    7  A    between atoms: C_13  and  C_14
REMARK    8  A    between atoms: C_20  and  C_21
REMARK    9  A    between atoms: C_20  and  C_22
REMARK                            x       y       z     vdW  Elec       q    Type
REMARK                         _______ _______ _______ _____ _____    ______ ____
ROOT
ATOM      1  C   UNL     1       6.489   4.538  16.647  0.00  0.00    +0.000 C 
ATOM      2  N   UNL     1       6.789   5.033  17.978  0.00  0.00    +0.000 N 
ATOM      3  C   UNL     1       8.089   5.059  18.594  0.00  0.00    +0.000 C 
ATOM      4  C   UNL     1       5.622   5.158  18.735  0.00  0.00    +0.000 C 
ATOM      5  O   UNL     1       5.587   5.401  19.932  0.00  0.00    +0.000 OA
ATOM      6  N   UNL     1       4.512   5.042  17.875  0.00  0.00    +0.000 N 
ATOM      7  C   UNL     1       5.012   5.062  16.466  0.00  0.00    +0.000 C 
ATOM      8  C   UNL     1       5.002   6.510  15.923  0.00  0.00    +0.000 C 
ATOM      9  C   UNL     1       4.253   4.093  15.550  0.00  0.00    +0.000 C 
ENDROOT
BRANCH   1  10
ATOM     10  N   UNL     1       7.535   4.898  15.643  0.00  0.00    +0.000 NA
BRANCH  10  14
ATOM     11  C   UNL     1       7.359   4.822  11.923  0.00  0.00    +0.000 C 
ATOM     12  C   UNL     1       7.899   5.169  13.290  0.00  0.00    +0.000 C 
ATOM     13  O   UNL     1       8.845   5.919  13.434  0.00  0.00    +0.000 OA
ATOM     14  N   UNL     1       7.208   4.551  14.324  0.00  0.00    +0.000 N 
ATOM     15  H   UNL     1       6.260   4.255  14.155  0.00  0.00    +0.000 HD
ENDBRANCH  10  14
BRANCH  10  16
ATOM     16  O   UNL     1       7.788   6.320  15.695  0.00  0.00    +0.000 OA
ATOM     17  H   UNL     1       8.541   6.397  15.087  0.00  0.00    +0.000 HD
ENDBRANCH  10  16
ENDBRANCH   1  10
BRANCH   6  18
ATOM     18  C   UNL     1       3.250   5.639  18.313  0.00  0.00    +0.000 C 
BRANCH  18  19
ATOM     19  C   UNL     1       2.232   4.695  18.926  0.00  0.00    +0.000 A 
ATOM     20  C   UNL     1       1.571   3.727  18.149  0.00  0.00    +0.000 A 
ATOM     21  C   UNL     1       0.798   2.724  18.750  0.00  0.00    +0.000 A 
ATOM     22  C   UNL     1       0.684   2.668  20.138  0.00  0.00    +0.000 A 
ATOM     23  C   UNL     1       1.289   3.651  20.917  0.00  0.00    +0.000 A 
ATOM     24  C   UNL     1       2.033   4.671  20.315  0.00  0.00    +0.000 A 
ENDBRANCH  18  19
ENDBRANCH   6  18
TORSDOF 5
ENDMDL
MODEL 2
REMARK VINA RESULT:      -7.4      1.187      1.258
REMARK  Name = 
REMARK  9 active torsions:
REMARK  status: ('A' for Active; 'I' for Inactive)
REMARK    1  A    between atoms: C_1  and  C_2
REMARK    2  A    between atoms: N_4  and  N_5
REMARK    3  A    between atoms: N_5  and  O_6
REMARK    4  A    between atoms: N_5  and  C_7
REMARK    5  A    between atoms: N_8  and  C_9
REMARK    6  A    between atoms: N_12  and  C_13
REMARK    7  A    between atoms: C_13  and  C_14
REMARK    8  A    between atoms: C_20  and  C_21
REMARK    9  A    between atoms: C_20  and  C_22
REMARK                            x       y       z     vdW  Elec       q    Type
REMARK                         _______ _______ _______ _____ _____    ______ ____
ROOT
ATOM      1  C   UNL     1       6.075   4.132  16.699  0.00  0.00    +0.000 C 
ATOM      2  N   UNL     1       6.876   4.637  17.798  0.00  0.00    +0.000 N 
ATOM      3  C   UNL     1       8.310   4.574  17.895  0.00  0.00    +0.000 C 
ATOM      4  C   UNL     1       6.081   4.880  18.921  0.00  0.00    +0.000 C 
ATOM      5  O   UNL     1       6.505   5.159  20.032  0.00  0.00    +0.000 OA
ATOM      6  N   UNL     1       4.727   4.831  18.533  0.00  0.00    +0.000 N 
ATOM      7  C   UNL     1       4.673   4.770  17.041  0.00  0.00    +0.000 C 
ATOM      8  C   UNL     1       4.560   6.198  16.458  0.00  0.00    +0.000 C 
ATOM      9  C   UNL     1       3.568   3.841  16.522  0.00  0.00    +0.000 C 
ENDROOT
BRANCH   1  10
ATOM     10  N   UNL     1       6.699   4.375  15.364  0.00  0.00    +0.000 NA
BRANCH  10  14
ATOM     11  C   UNL     1       5.770   3.113  11.984  0.00  0.00    +0.000 C 
ATOM     12  C   UNL     1       6.546   3.889  13.023  0.00  0.00    +0.000 C 
ATOM     13  O   UNL     1       7.428   4.667  12.714  0.00  0.00    +0.000 OA
ATOM     14  N   UNL     1       6.141   3.619  14.324  0.00  0.00    +0.000 N 
ATOM     15  H   UNL     1       5.210   3.264  14.469  0.00  0.00    +0.000 HD
ENDBRANCH  10  14
BRANCH  10  16
ATOM     16  O   UNL     1       6.588   5.776  15.026  0.00  0.00    +0.000 OA
ATOM     17  H   UNL     1       6.872   5.766  14.097  0.00  0.00    +0.000 HD
ENDBRANCH  10  16
ENDBRANCH   1  10
BRANCH   6  18
ATOM     18  C   UNL     1       3.758   5.543  19.368  0.00  0.00    +0.000 C 
BRANCH  18  19
ATOM     19  C   UNL     1       2.687   4.697  20.031  0.00  0.00    +0.000 A 
ATOM     20  C   UNL     1       1.527   4.308  19.336  0.00  0.00    +0.000 A 
ATOM     21  C   UNL     1       0.648   3.357  19.874  0.00  0.00    +0.000 A 
ATOM     22  C   UNL     1       0.923   2.773  21.109  0.00  0.00    +0.000 A 
ATOM     23  C   UNL     1       2.039   3.187  21.832  0.00  0.00    +0.000 A 
ATOM     24  C   UNL     1       2.898   4.160  21.310  0.00  0.00    +0.000 A 
ENDBRANCH  18  19
ENDBRANCH   6  18
TORSDOF 5
ENDMDL
MODEL 3
REMARK VINA RESULT:      -7.4      2.739      3.982
REMARK  Name = 
REMARK  9 active torsions:
REMARK  status: ('A' for Active; 'I' for Inactive)
REMARK    1  A    between atoms: C_1  and  C_2
REMARK    2  A    between atoms: N_4  and  N_5
REMARK    3  A    between atoms: N_5  and  O_6
REMARK    4  A    between atoms: N_5  and  C_7
REMARK    5  A    between atoms: N_8  and  C_9
REMARK    6  A    between atoms: N_12  and  C_13
REMARK    7  A    between atoms: C_13  and  C_14
REMARK    8  A    between atoms: C_20  and  C_21
REMARK    9  A    between atoms: C_20  and  C_22
REMARK                            x       y       z     vdW  Elec       q    Type
REMARK                         _______ _______ _______ _____ _____    ______ ____
ROOT
ATOM      1  C   UNL     1       4.637   4.376  17.030  0.00  0.00    +0.000 C 
ATOM      2  N   UNL     1       3.576   3.598  17.644  0.00  0.00    +0.000 N 
ATOM      3  C   UNL     1       3.191   2.261  17.277  0.00  0.00    +0.000 C 
ATOM      4  C   UNL     1       2.732   4.418  18.396  0.00  0.00    +0.000 C 
ATOM      5  O   UNL     1       1.673   4.065  18.892  0.00  0.00    +0.000 OA
ATOM      6  N   UNL     1       3.346   5.676  18.551  0.00  0.00    +0.000 N 
ATOM      7  C   UNL     1       4.752   5.572  18.053  0.00  0.00    +0.000 C 
ATOM      8  C   UNL     1       5.700   5.210  19.221  0.00  0.00    +0.000 C 
ATOM      9  C   UNL     1       5.212   6.825  17.297  0.00  0.00    +0.000 C 
ENDROOT
BRANCH   1  10
ATOM     10  N   UNL     1       5.843   3.557  16.702  0.00  0.00    +0.000 NA
BRANCH  10  14
ATOM     11  C   UNL     1       6.188   3.655  12.995  0.00  0.00    +0.000 C 
ATOM     12  C   UNL     1       6.270   4.149  14.421  0.00  0.00    +0.000 C 
ATOM     13  O   UNL     1       6.601   5.288  14.686  0.00  0.00    +0.000 OA
ATOM     14  N   UNL     1       5.930   3.179  15.355  0.00  0.00    +0.000 N 
ATOM     15  H   UNL     1       5.344   2.416  15.059  0.00  0.00    +0.000 HD
ENDBRANCH  10  14
BRANCH  10  16
ATOM     16  O   UNL     1       7.037   4.293  17.052  0.00  0.00    +0.000 OA
ATOM     17  H   UNL     1       6.909   5.109  16.543  0.00  0.00    +0.000 HD
ENDBRANCH  10  16
ENDBRANCH   1  10
BRANCH   6  18
ATOM     18  C   UNL     1       2.931   6.497  19.690  0.00  0.00    +0.000 C 
BRANCH  18  19
ATOM     19  C   UNL     1       2.088   7.718  19.372  0.00  0.00    +0.000 A 
ATOM     20  C   UNL     1       1.396   8.412  20.380  0.00  0.00    +0.000 A 
ATOM     21  C   UNL     1       0.797   9.653  20.122  0.00  0.00    +0.000 A 
ATOM     22  C   UNL     1       0.892  10.223  18.854  0.00  0.00    +0.000 A 
ATOM     23  C   UNL     1       1.528   9.523  17.831  0.00  0.00    +0.000 A 
ATOM     24  C   UNL     1       2.097   8.269  18.082  0.00  0.00    +0.000 A 
ENDBRANCH  18  19
ENDBRANCH   6  18
TORSDOF 5
ENDMDL
MODEL 4
REMARK VINA RESULT:      -7.4      2.757      3.867
REMARK  Name = 
REMARK  9 active torsions:
REMARK  status: ('A' for Active; 'I' for Inactive)
REMARK    1  A    between atoms: C_1  and  C_2
REMARK    2  A    between atoms: N_4  and  N_5
REMARK    3  A    between atoms: N_5  and  O_6
REMARK    4  A    between atoms: N_5  and  C_7
REMARK    5  A    between atoms: N_8  and  C_9
REMARK    6  A    between atoms: N_12  and  C_13
REMARK    7  A    between atoms: C_13  and  C_14
REMARK    8  A    between atoms: C_20  and  C_21
REMARK    9  A    between atoms: C_20  and  C_22
REMARK                            x       y       z     vdW  Elec       q    Type
REMARK                         _______ _______ _______ _____ _____    ______ ____
ROOT
ATOM      1  C   UNL     1       4.620   4.417  17.041  0.00  0.00    +0.000 C 
ATOM      2  N   UNL     1       3.524   3.633  17.580  0.00  0.00    +0.000 N 
ATOM      3  C   UNL     1       3.139   2.315  17.151  0.00  0.00    +0.000 C 
ATOM      4  C   UNL     1       2.657   4.438  18.323  0.00  0.00    +0.000 C 
ATOM      5  O   UNL     1       1.573   4.082  18.760  0.00  0.00    +0.000 OA
ATOM      6  N   UNL     1       3.279   5.682  18.548  0.00  0.00    +0.000 N 
ATOM      7  C   UNL     1       4.704   5.575  18.108  0.00  0.00    +0.000 C 
ATOM      8  C   UNL     1       5.596   5.162  19.303  0.00  0.00    +0.000 C 
ATOM      9  C   UNL     1       5.212   6.847  17.417  0.00  0.00    +0.000 C 
ENDROOT
BRANCH   1  10
ATOM     10  N   UNL     1       5.829   3.594  16.737  0.00  0.00    +0.000 NA
BRANCH  10  14
ATOM     11  C   UNL     1       6.183   3.689  13.030  0.00  0.00    +0.000 C 
ATOM     12  C   UNL     1       6.234   4.194  14.453  0.00  0.00    +0.000 C 
ATOM     13  O   UNL     1       6.504   5.350  14.713  0.00  0.00    +0.000 OA
ATOM     14  N   UNL     1       5.941   3.213  15.392  0.00  0.00    +0.000 N 
ATOM     15  H   UNL     1       5.396   2.419  15.098  0.00  0.00    +0.000 HD
ENDBRANCH  10  14
BRANCH  10  16
ATOM     16  O   UNL     1       7.019   4.325  17.109  0.00  0.00    +0.000 OA
ATOM     17  H   UNL     1       6.679   4.878  17.831  0.00  0.00    +0.000 HD
ENDBRANCH  10  16
ENDBRANCH   1  10
BRANCH   6  18
ATOM     18  C   UNL     1       2.825   6.469  19.695  0.00  0.00    +0.000 C 
BRANCH  18  19
ATOM     19  C   UNL     1       2.140   7.786  19.383  0.00  0.00    +0.000 A 
ATOM     20  C   UNL     1       2.056   8.273  18.067  0.00  0.00    +0.000 A 
ATOM     21  C   UNL     1       1.244   9.373  17.754  0.00  0.00    +0.000 A 
ATOM     22  C   UNL     1       0.496   9.994  18.753  0.00  0.00    +0.000 A 
ATOM     23  C   UNL     1       0.611   9.557  20.070  0.00  0.00    +0.000 A 
ATOM     24  C   UNL     1       1.447   8.480  20.387  0.00  0.00    +0.000 A 
ENDBRANCH  18  19
ENDBRANCH   6  18
TORSDOF 5
ENDMDL
MODEL 5
REMARK VINA RESULT:      -7.3      2.103      6.916
REMARK  Name = 
REMARK  9 active torsions:
REMARK  status: ('A' for Active; 'I' for Inactive)
REMARK    1  A    between atoms: C_1  and  C_2
REMARK    2  A    between atoms: N_4  and  N_5
REMARK    3  A    between atoms: N_5  and  O_6
REMARK    4  A    between atoms: N_5  and  C_7
REMARK    5  A    between atoms: N_8  and  C_9
REMARK    6  A    between atoms: N_12  and  C_13
REMARK    7  A    between atoms: C_13  and  C_14
REMARK    8  A    between atoms: C_20  and  C_21
REMARK    9  A    between atoms: C_20  and  C_22
REMARK                            x       y       z     vdW  Elec       q    Type
REMARK                         _______ _______ _______ _____ _____    ______ ____
ROOT
ATOM      1  C   UNL     1       3.180   5.256  18.115  0.00  0.00    +0.000 C 
ATOM      2  N   UNL     1       3.711   6.490  17.566  0.00  0.00    +0.000 N 
ATOM      3  C   UNL     1       3.119   7.795  17.698  0.00  0.00    +0.000 C 
ATOM      4  C   UNL     1       4.677   6.225  16.593  0.00  0.00    +0.000 C 
ATOM      5  O   UNL     1       5.178   7.062  15.857  0.00  0.00    +0.000 OA
ATOM      6  N   UNL     1       5.029   4.863  16.666  0.00  0.00    +0.000 N 
ATOM      7  C   UNL     1       4.407   4.288  17.898  0.00  0.00    +0.000 C 
ATOM      8  C   UNL     1       5.399   4.380  19.082  0.00  0.00    +0.000 C 
ATOM      9  C   UNL     1       3.880   2.862  17.691  0.00  0.00    +0.000 C 
ENDROOT
BRANCH   1  10
ATOM     10  N   UNL     1       2.600   5.429  19.480  0.00  0.00    +0.000 NA
BRANCH  10  14
ATOM     11  C   UNL     1       1.772   2.493  21.618  0.00  0.00    +0.000 C 
ATOM     12  C   UNL     1       1.545   3.604  20.620  0.00  0.00    +0.000 C 
ATOM     13  O   UNL     1       0.442   3.845  20.169  0.00  0.00    +0.000 OA
ATOM     14  N   UNL     1       2.707   4.294  20.296  0.00  0.00    +0.000 N 
ATOM     15  H   UNL     1       3.470   4.277  20.953  0.00  0.00    +0.000 HD
ENDBRANCH  10  14
BRANCH  10  16
ATOM     16  O   UNL     1       3.247   6.537  20.145  0.00  0.00    +0.000 OA
ATOM     17  H   UNL     1       2.509   6.900  20.661  0.00  0.00    +0.000 HD
ENDBRANCH  10  16
ENDBRANCH   1  10
BRANCH   6  18
ATOM     18  C   UNL     1       6.338   4.471  16.140  0.00  0.00    +0.000 C 
BRANCH  18  19
ATOM     19  C   UNL     1       6.487   4.471  14.630  0.00  0.00    +0.000 A 
ATOM     20  C   UNL     1       7.495   5.219  13.995  0.00  0.00    +0.000 A 
ATOM     21  C   UNL     1       7.766   5.050  12.630  0.00  0.00    +0.000 A 
ATOM     22  C   UNL     1       7.040   4.125  11.883  0.00  0.00    +0.000 A 
ATOM     23  C   UNL     1       6.003   3.417  12.486  0.00  0.00    +0.000 A 
ATOM     24  C   UNL     1       5.712   3.609  13.841  0.00  0.00    +0.000 A 
ENDBRANCH  18  19
ENDBRANCH   6  18
TORSDOF 5
ENDMDL
MODEL 6
REMARK VINA RESULT:      -7.2      1.687      2.096
REMARK  Name = 
REMARK  9 active torsions:
REMARK  status: ('A' for Active; 'I' for Inactive)
REMARK    1  A    between atoms: C_1  and  C_2
REMARK    2  A    between atoms: N_4  and  N_5
REMARK    3  A    between atoms: N_5  and  O_6
REMARK    4  A    between atoms: N_5  and  C_7
REMARK    5  A    between atoms: N_8  and  C_9
REMARK    6  A    between atoms: N_12  and  C_13
REMARK    7  A    between atoms: C_13  and  C_14
REMARK    8  A    between atoms: C_20  and  C_21
REMARK    9  A    between atoms: C_20  and  C_22
REMARK                            x       y       z     vdW  Elec       q    Type
REMARK                         _______ _______ _______ _____ _____    ______ ____
ROOT
ATOM      1  C   UNL     1       6.166   5.037  17.702  0.00  0.00    +0.000 C 
ATOM      2  N   UNL     1       5.773   6.347  17.219  0.00  0.00    +0.000 N 
ATOM      3  C   UNL     1       6.639   7.307  16.586  0.00  0.00    +0.000 C 
ATOM      4  C   UNL     1       4.538   6.722  17.751  0.00  0.00    +0.000 C 
ATOM      5  O   UNL     1       4.036   7.831  17.644  0.00  0.00    +0.000 OA
ATOM      6  N   UNL     1       3.943   5.593  18.349  0.00  0.00    +0.000 N 
ATOM      7  C   UNL     1       4.754   4.392  17.981  0.00  0.00    +0.000 C 
ATOM      8  C   UNL     1       4.181   3.741  16.700  0.00  0.00    +0.000 C 
ATOM      9  C   UNL     1       4.889   3.388  19.134  0.00  0.00    +0.000 C 
ENDROOT
BRANCH   1  10
ATOM     10  N   UNL     1       7.134   4.348  16.795  0.00  0.00    +0.000 NA
BRANCH  10  14
ATOM     11  C   UNL     1       7.592   5.357  13.239  0.00  0.00    +0.000 C 
ATOM     12  C   UNL     1       7.065   4.561  14.410  0.00  0.00    +0.000 C 
ATOM     13  O   UNL     1       6.375   3.572  14.254  0.00  0.00    +0.000 OA
ATOM     14  N   UNL     1       7.453   5.075  15.640  0.00  0.00    +0.000 N 
ATOM     15  H   UNL     1       8.282   5.647  15.678  0.00  0.00    +0.000 HD
ENDBRANCH  10  14
BRANCH  10  16
ATOM     16  O   UNL     1       8.355   4.065  17.515  0.00  0.00    +0.000 OA
ATOM     17  H   UNL     1       8.016   3.535  18.254  0.00  0.00    +0.000 HD
ENDBRANCH  10  16
ENDBRANCH   1  10
BRANCH   6  18
ATOM     18  C   UNL     1       2.488   5.594  18.500  0.00  0.00    +0.000 C 
BRANCH  18  19
ATOM     19  C   UNL     1       1.911   4.611  19.502  0.00  0.00    +0.000 A 
ATOM     20  C   UNL     1       1.156   3.499  19.085  0.00  0.00    +0.000 A 
ATOM     21  C   UNL     1       0.810   2.483  19.987  0.00  0.00    +0.000 A 
ATOM     22  C   UNL     1       1.222   2.559  21.316  0.00  0.00    +0.000 A 
ATOM     23  C   UNL     1       1.924   3.679  21.755  0.00  0.00    +0.000 A 
ATOM     24  C   UNL     1       2.241   4.709  20.862  0.00  0.00    +0.000 A 
ENDBRANCH  18  19
ENDBRANCH   6  18
TORSDOF 5
ENDMDL
MODEL 7
REMARK VINA RESULT:      -7.2      0.298      1.068
REMARK  Name = 
REMARK  9 active torsions:
REMARK  status: ('A' for Active; 'I' for Inactive)
REMARK    1  A    between atoms: C_1  and  C_2
REMARK    2  A    between atoms: N_4  and  N_5
REMARK    3  A    between atoms: N_5  and  O_6
REMARK    4  A    between atoms: N_5  and  C_7
REMARK    5  A    between atoms: N_8  and  C_9
REMARK    6  A    between atoms: N_12  and  C_13
REMARK    7  A    between atoms: C_13  and  C_14
REMARK    8  A    between atoms: C_20  and  C_21
REMARK    9  A    between atoms: C_20  and  C_22
REMARK                            x       y       z     vdW  Elec       q    Type
REMARK                         _______ _______ _______ _____ _____    ______ ____
ROOT
ATOM      1  C   UNL     1       6.641   4.498  16.566  0.00  0.00    +0.000 C 
ATOM      2  N   UNL     1       6.999   4.877  17.921  0.00  0.00    +0.000 N 
ATOM      3  C   UNL     1       8.330   4.890  18.468  0.00  0.00    +0.000 C 
ATOM      4  C   UNL     1       5.873   4.891  18.746  0.00  0.00    +0.000 C 
ATOM      5  O   UNL     1       5.897   5.020  19.961  0.00  0.00    +0.000 OA
ATOM      6  N   UNL     1       4.721   4.816  17.938  0.00  0.00    +0.000 N 
ATOM      7  C   UNL     1       5.141   4.985  16.514  0.00  0.00    +0.000 C 
ATOM      8  C   UNL     1       5.058   6.476  16.112  0.00  0.00    +0.000 C 
ATOM      9  C   UNL     1       4.362   4.079  15.551  0.00  0.00    +0.000 C 
ENDROOT
BRANCH   1  10
ATOM     10  N   UNL     1       7.619   4.986  15.548  0.00  0.00    +0.000 NA
BRANCH  10  14
ATOM     11  C   UNL     1       7.412   5.056  11.829  0.00  0.00    +0.000 C 
ATOM     12  C   UNL     1       7.999   5.288  13.202  0.00  0.00    +0.000 C 
ATOM     13  O   UNL     1       9.030   5.914  13.360  0.00  0.00    +0.000 OA
ATOM     14  N   UNL     1       7.244   4.725  14.222  0.00  0.00    +0.000 N 
ATOM     15  H   UNL     1       6.266   4.552  14.053  0.00  0.00    +0.000 HD
ENDBRANCH  10  14
BRANCH  10  16
ATOM     16  O   UNL     1       7.808   6.411  15.701  0.00  0.00    +0.000 OA
ATOM     17  H   UNL     1       6.894   6.729  15.622  0.00  0.00    +0.000 HD
ENDBRANCH  10  16
ENDBRANCH   1  10
BRANCH   6  18
ATOM     18  C   UNL     1       3.468   5.326  18.497  0.00  0.00    +0.000 C 
BRANCH  18  19
ATOM     19  C   UNL     1       2.536   4.300  19.115  0.00  0.00    +0.000 A 
ATOM     20  C   UNL     1       2.296   4.271  20.501  0.00  0.00    +0.000 A 
ATOM     21  C   UNL     1       1.280   3.470  21.040  0.00  0.00    +0.000 A 
ATOM     22  C   UNL     1       0.482   2.695  20.201  0.00  0.00    +0.000 A 
ATOM     23  C   UNL     1       0.743   2.673  18.833  0.00  0.00    +0.000 A 
ATOM     24  C   UNL     1       1.779   3.447  18.299  0.00  0.00    +0.000 A 
ENDBRANCH  18  19
ENDBRANCH   6  18
TORSDOF 5
ENDMDL
MODEL 8
REMARK VINA RESULT:      -7.1      2.106      6.830
REMARK  Name = 
REMARK  9 active torsions:
REMARK  status: ('A' for Active; 'I' for Inactive)
REMARK    1  A    between atoms: C_1  and  C_2
REMARK    2  A    between atoms: N_4  and  N_5
REMARK    3  A    between atoms: N_5  and  O_6
REMARK    4  A    between atoms: N_5  and  C_7
REMARK    5  A    between atoms: N_8  and  C_9
REMARK    6  A    between atoms: N_12  and  C_13
REMARK    7  A    between atoms: C_13  and  C_14
REMARK    8  A    between atoms: C_20  and  C_21
REMARK    9  A    between atoms: C_20  and  C_22
REMARK                            x       y       z     vdW  Elec       q    Type
REMARK                         _______ _______ _______ _____ _____    ______ ____
ROOT
ATOM      1  C   UNL     1       3.202   5.346  18.118  0.00  0.00    +0.000 C 
ATOM      2  N   UNL     1       3.679   6.596  17.557  0.00  0.00    +0.000 N 
ATOM      3  C   UNL     1       2.992   7.859  17.606  0.00  0.00    +0.000 C 
ATOM      4  C   UNL     1       4.719   6.369  16.652  0.00  0.00    +0.000 C 
ATOM      5  O   UNL     1       5.204   7.215  15.917  0.00  0.00    +0.000 OA
ATOM      6  N   UNL     1       5.158   5.038  16.796  0.00  0.00    +0.000 N 
ATOM      7  C   UNL     1       4.504   4.461  18.009  0.00  0.00    +0.000 C 
ATOM      8  C   UNL     1       5.412   4.661  19.245  0.00  0.00    +0.000 C 
ATOM      9  C   UNL     1       4.089   2.995  17.824  0.00  0.00    +0.000 C 
ENDROOT
BRANCH   1  10
ATOM     10  N   UNL     1       2.528   5.521  19.440  0.00  0.00    +0.000 NA
BRANCH  10  14
ATOM     11  C   UNL     1       1.763   2.572  21.583  0.00  0.00    +0.000 C 
ATOM     12  C   UNL     1       1.536   3.634  20.532  0.00  0.00    +0.000 C 
ATOM     13  O   UNL     1       0.465   3.760  19.971  0.00  0.00    +0.000 OA
ATOM     14  N   UNL     1       2.657   4.420  20.299  0.00  0.00    +0.000 N 
ATOM     15  H   UNL     1       3.350   4.490  21.025  0.00  0.00    +0.000 HD
ENDBRANCH  10  14
BRANCH  10  16
ATOM     16  O   UNL     1       3.061   6.688  20.104  0.00  0.00    +0.000 OA
ATOM     17  H   UNL     1       3.437   7.174  19.352  0.00  0.00    +0.000 HD
ENDBRANCH  10  16
ENDBRANCH   1  10
BRANCH   6  18
ATOM     18  C   UNL     1       6.520   4.724  16.363  0.00  0.00    +0.000 C 
BRANCH  18  19
ATOM     19  C   UNL     1       6.712   4.443  14.884  0.00  0.00    +0.000 A 
ATOM     20  C   UNL     1       5.855   3.572  14.187  0.00  0.00    +0.000 A 
ATOM     21  C   UNL     1       5.900   3.481  12.788  0.00  0.00    +0.000 A 
ATOM     22  C   UNL     1       6.796   4.267  12.067  0.00  0.00    +0.000 A 
ATOM     23  C   UNL     1       7.688   5.093  12.746  0.00  0.00    +0.000 A 
ATOM     24  C   UNL     1       7.664   5.159  14.144  0.00  0.00    +0.000 A 
ENDBRANCH  18  19
ENDBRANCH   6  18
TORSDOF 5
ENDMDL
MODEL 9
REMARK VINA RESULT:      -6.9      2.173      3.539
REMARK  Name = 
REMARK  9 active torsions:
REMARK  status: ('A' for Active; 'I' for Inactive)
REMARK    1  A    between atoms: C_1  and  C_2
REMARK    2  A    between atoms: N_4  and  N_5
REMARK    3  A    between atoms: N_5  and  O_6
REMARK    4  A    between atoms: N_5  and  C_7
REMARK    5  A    between atoms: N_8  and  C_9
REMARK    6  A    between atoms: N_12  and  C_13
REMARK    7  A    between atoms: C_13  and  C_14
REMARK    8  A    between atoms: C_20  and  C_21
REMARK    9  A    between atoms: C_20  and  C_22
REMARK                            x       y       z     vdW  Elec       q    Type
REMARK                         _______ _______ _______ _____ _____    ______ ____
ROOT
ATOM      1  C   UNL     1       5.641   6.396  17.440  0.00  0.00    +0.000 C 
ATOM      2  N   UNL     1       4.272   6.873  17.368  0.00  0.00    +0.000 N 
ATOM      3  C   UNL     1       3.863   8.243  17.210  0.00  0.00    +0.000 C 
ATOM      4  C   UNL     1       3.383   5.896  17.822  0.00  0.00    +0.000 C 
ATOM      5  O   UNL     1       2.190   6.073  18.021  0.00  0.00    +0.000 OA
ATOM      6  N   UNL     1       4.073   4.672  17.929  0.00  0.00    +0.000 N 
ATOM      7  C   UNL     1       5.418   4.841  17.298  0.00  0.00    +0.000 C 
ATOM      8  C   UNL     1       5.359   4.426  15.809  0.00  0.00    +0.000 C 
ATOM      9  C   UNL     1       6.530   4.111  18.062  0.00  0.00    +0.000 C 
ENDROOT
BRANCH   1  10
ATOM     10  N   UNL     1       6.555   7.107  16.497  0.00  0.00    +0.000 NA
BRANCH  10  14
ATOM     11  C   UNL     1       8.584   9.291  18.730  0.00  0.00    +0.000 C 
ATOM     12  C   UNL     1       8.062   8.008  18.127  0.00  0.00    +0.000 C 
ATOM     13  O   UNL     1       8.379   6.919  18.564  0.00  0.00    +0.000 OA
ATOM     14  N   UNL     1       7.204   8.218  17.055  0.00  0.00    +0.000 N 
ATOM     15  H   UNL     1       6.727   9.102  16.991  0.00  0.00    +0.000 HD
ENDBRANCH  10  14
BRANCH  10  16
ATOM     16  O   UNL     1       7.556   6.188  16.006  0.00  0.00    +0.000 OA
ATOM     17  H   UNL     1       8.281   6.798  15.794  0.00  0.00    +0.000 HD
ENDBRANCH  10  16
ENDBRANCH   1  10
BRANCH   6  18
ATOM     18  C   UNL     1       3.282   3.442  17.874  0.00  0.00    +0.000 C 
BRANCH  18  19
ATOM     19  C   UNL     1       2.607   3.014  19.164  0.00  0.00    +0.000 A 
ATOM     20  C   UNL     1       3.355   2.709  20.315  0.00  0.00    +0.000 A 
ATOM     21  C   UNL     1       2.727   2.524  21.555  0.00  0.00    +0.000 A 
ATOM     22  C   UNL     1       1.344   2.652  21.663  0.00  0.00    +0.000 A 
ATOM     23  C   UNL     1       0.586   2.900  20.522  0.00  0.00    +0.000 A 
ATOM     24  C   UNL     1       1.209   3.052  19.278  0.00  0.00    +0.000 A 
ENDBRANCH  18  19
ENDBRANCH   6  18
TORSDOF 5
ENDMDL
