MODEL 1
REMARK VINA RESULT:      -9.5      0.000      0.000
REMARK  Name = 
REMARK  7 active torsions:
REMARK  status: ('A' for Active; 'I' for Inactive)
REMARK    1  A    between atoms: C_1  and  C_2
REMARK    2  A    between atoms: C_2  and  C_4
REMARK    3  A    between atoms: C_7  and  S_8
REMARK    4  A    between atoms: S_8  and  N_11
REMARK    5  A    between atoms: N_11  and  C_12
REMARK    6  A    between atoms: C_15  and  N_16
REMARK    7  A    between atoms: C_17  and  C_18
REMARK                            x       y       z     vdW  Elec       q    Type
REMARK                         _______ _______ _______ _____ _____    ______ ____
ROOT
ATOM      1  C   UNL     1       2.597   5.923  19.128  0.00  0.00    +0.000 A 
ATOM      2  C   UNL     1       2.728   6.978  18.225  0.00  0.00    +0.000 A 
ATOM      3  C   UNL     1       2.198   8.249  18.524  0.00  0.00    +0.000 A 
ATOM      4  C   UNL     1       1.547   8.490  19.739  0.00  0.00    +0.000 A 
ATOM      5  C   UNL     1       1.457   7.409  20.647  0.00  0.00    +0.000 A 
ATOM      6  C   UNL     1       1.980   6.143  20.349  0.00  0.00    +0.000 A 
ENDROOT
BRANCH   4   7
ATOM      7  N   UNL     1       0.952   9.748  20.083  0.00  0.00    +0.000 N 
ATOM      8  C   UNL     1       0.401  10.532  19.086  0.00  0.00    +0.000 A 
ATOM      9  C   UNL     1      -1.000  10.064  18.700  0.00  0.00    +0.000 C 
ATOM     10  N   UNL     1       0.673  11.802  19.042  0.00  0.00    +0.000 NA
ATOM     11  C   UNL     1       0.239  12.402  20.238  0.00  0.00    +0.000 A 
ATOM     12  C   UNL     1      -0.406  13.633  20.153  0.00  0.00    +0.000 A 
ATOM     13  C   UNL     1      -1.338  13.973  21.128  0.00  0.00    +0.000 A 
ATOM     14  C   UNL     1      -1.586  13.101  22.195  0.00  0.00    +0.000 A 
ATOM     15  C   UNL     1      -0.824  11.938  22.360  0.00  0.00    +0.000 A 
ATOM     16  C   UNL     1       0.118  11.609  21.391  0.00  0.00    +0.000 A 
ATOM     17  C   UNL     1       0.820  10.284  21.367  0.00  0.00    +0.000 A 
ATOM     18  O   UNL     1       1.174   9.789  22.430  0.00  0.00    +0.000 OA
ENDBRANCH   4   7
BRANCH   1  19
ATOM     19  N   UNL     1       3.088   4.628  18.798  0.00  0.00    +0.000 N 
ATOM     20  H   UNL     1       2.803   4.248  17.897  0.00  0.00    +0.000 HD
BRANCH  19  21
ATOM     21  S   UNL     1       4.709   4.272  19.085  0.00  0.00    +0.000 S 
ATOM     22  O   UNL     1       4.831   2.922  19.581  0.00  0.00    +0.000 OA
ATOM     23  O   UNL     1       5.236   5.397  19.833  0.00  0.00    +0.000 OA
BRANCH  21  27
ATOM     24  C   UNL     1       6.651   4.648  14.957  0.00  0.00    +0.000 A 
ATOM     25  C   UNL     1       5.294   4.312  15.076  0.00  0.00    +0.000 A 
ATOM     26  C   UNL     1       4.703   4.179  16.336  0.00  0.00    +0.000 A 
ATOM     27  C   UNL     1       5.482   4.357  17.483  0.00  0.00    +0.000 A 
ATOM     28  C   UNL     1       6.836   4.690  17.376  0.00  0.00    +0.000 A 
ATOM     29  C   UNL     1       7.420   4.840  16.111  0.00  0.00    +0.000 A 
BRANCH  24  31
ATOM     30  C   UNL     1       6.702   3.906  12.484  0.00  0.00    +0.000 C 
ATOM     31  C   UNL     1       7.226   4.784  13.590  0.00  0.00    +0.000 C 
ATOM     32  O   UNL     1       8.129   5.597  13.392  0.00  0.00    +0.000 OA
ENDBRANCH  24  31
ENDBRANCH  21  27
ENDBRANCH  19  21
ENDBRANCH   1  19
TORSDOF 5
ENDMDL
MODEL 2
REMARK VINA RESULT:      -9.4      0.299      1.261
REMARK  Name = 
REMARK  7 active torsions:
REMARK  status: ('A' for Active; 'I' for Inactive)
REMARK    1  A    between atoms: C_1  and  C_2
REMARK    2  A    between atoms: C_2  and  C_4
REMARK    3  A    between atoms: C_7  and  S_8
REMARK    4  A    between atoms: S_8  and  N_11
REMARK    5  A    between atoms: N_11  and  C_12
REMARK    6  A    between atoms: C_15  and  N_16
REMARK    7  A    between atoms: C_17  and  C_18
REMARK                            x       y       z     vdW  Elec       q    Type
REMARK                         _______ _______ _______ _____ _____    ______ ____
ROOT
ATOM      1  C   UNL     1       2.651   5.811  19.158  0.00  0.00    +0.000 A 
ATOM      2  C   UNL     1       1.995   6.035  20.369  0.00  0.00    +0.000 A 
ATOM      3  C   UNL     1       1.464   7.305  20.673  0.00  0.00    +0.000 A 
ATOM      4  C   UNL     1       1.562   8.363  19.763  0.00  0.00    +0.000 A 
ATOM      5  C   UNL     1       2.203   8.096  18.532  0.00  0.00    +0.000 A 
ATOM      6  C   UNL     1       2.736   6.835  18.229  0.00  0.00    +0.000 A 
ENDROOT
BRANCH   4   7
ATOM      7  N   UNL     1       1.078   9.686  20.031  0.00  0.00    +0.000 N 
ATOM      8  C   UNL     1       0.656  10.480  18.980  0.00  0.00    +0.000 A 
ATOM      9  C   UNL     1      -0.764  10.135  18.537  0.00  0.00    +0.000 C 
ATOM     10  N   UNL     1       1.055  11.714  18.907  0.00  0.00    +0.000 NA
ATOM     11  C   UNL     1       0.623  12.401  20.057  0.00  0.00    +0.000 A 
ATOM     12  C   UNL     1       0.108  13.683  19.896  0.00  0.00    +0.000 A 
ATOM     13  C   UNL     1      -0.833  14.150  20.808  0.00  0.00    +0.000 A 
ATOM     14  C   UNL     1      -1.218  13.349  21.890  0.00  0.00    +0.000 A 
ATOM     15  C   UNL     1      -0.583  12.125  22.135  0.00  0.00    +0.000 A 
ATOM     16  C   UNL     1       0.368  11.668  21.228  0.00  0.00    +0.000 A 
ATOM     17  C   UNL     1       0.936  10.282  21.287  0.00  0.00    +0.000 A 
ATOM     18  O   UNL     1       1.186   9.797  22.384  0.00  0.00    +0.000 OA
ENDBRANCH   4   7
BRANCH   1  19
ATOM     19  N   UNL     1       3.230   4.541  18.879  0.00  0.00    +0.000 N 
ATOM     20  H   UNL     1       2.896   4.061  18.045  0.00  0.00    +0.000 HD
BRANCH  19  21
ATOM     21  S   UNL     1       4.898   4.355  19.018  0.00  0.00    +0.000 S 
ATOM     22  O   UNL     1       5.202   3.027  19.495  0.00  0.00    +0.000 OA
ATOM     23  O   UNL     1       5.371   5.532  19.723  0.00  0.00    +0.000 OA
BRANCH  21  27
ATOM     24  C   UNL     1       6.519   4.600  14.745  0.00  0.00    +0.000 A 
ATOM     25  C   UNL     1       7.371   4.802  15.841  0.00  0.00    +0.000 A 
ATOM     26  C   UNL     1       6.875   4.746  17.147  0.00  0.00    +0.000 A 
ATOM     27  C   UNL     1       5.513   4.513  17.355  0.00  0.00    +0.000 A 
ATOM     28  C   UNL     1       4.653   4.312  16.269  0.00  0.00    +0.000 A 
ATOM     29  C   UNL     1       5.158   4.352  14.963  0.00  0.00    +0.000 A 
BRANCH  24  31
ATOM     30  C   UNL     1       6.656   3.666  12.340  0.00  0.00    +0.000 C 
ATOM     31  C   UNL     1       7.103   4.664  13.377  0.00  0.00    +0.000 C 
ATOM     32  O   UNL     1       7.952   5.518  13.122  0.00  0.00    +0.000 OA
ENDBRANCH  24  31
ENDBRANCH  21  27
ENDBRANCH  19  21
ENDBRANCH   1  19
TORSDOF 5
ENDMDL
MODEL 3
REMARK VINA RESULT:      -9.0      0.590      1.091
REMARK  Name = 
REMARK  7 active torsions:
REMARK  status: ('A' for Active; 'I' for Inactive)
REMARK    1  A    between atoms: C_1  and  C_2
REMARK    2  A    between atoms: C_2  and  C_4
REMARK    3  A    between atoms: C_7  and  S_8
REMARK    4  A    between atoms: S_8  and  N_11
REMARK    5  A    between atoms: N_11  and  C_12
REMARK    6  A    between atoms: C_15  and  N_16
REMARK    7  A    between atoms: C_17  and  C_18
REMARK                            x       y       z     vdW  Elec       q    Type
REMARK                         _______ _______ _______ _____ _____    ______ ____
ROOT
ATOM      1  C   UNL     1       2.659   5.839  19.144  0.00  0.00    +0.000 A 
ATOM      2  C   UNL     1       2.005   6.056  20.357  0.00  0.00    +0.000 A 
ATOM      3  C   UNL     1       1.466   7.321  20.666  0.00  0.00    +0.000 A 
ATOM      4  C   UNL     1       1.554   8.382  19.759  0.00  0.00    +0.000 A 
ATOM      5  C   UNL     1       2.195   8.124  18.526  0.00  0.00    +0.000 A 
ATOM      6  C   UNL     1       2.736   6.868  18.218  0.00  0.00    +0.000 A 
ENDROOT
BRANCH   4   7
ATOM      7  N   UNL     1       1.062   9.701  20.033  0.00  0.00    +0.000 N 
ATOM      8  C   UNL     1       0.634  10.496  18.985  0.00  0.00    +0.000 A 
ATOM      9  C   UNL     1      -0.785  10.143  18.543  0.00  0.00    +0.000 C 
ATOM     10  N   UNL     1       1.024  11.733  18.916  0.00  0.00    +0.000 NA
ATOM     11  C   UNL     1       0.590  12.413  20.068  0.00  0.00    +0.000 A 
ATOM     12  C   UNL     1       0.067  13.692  19.913  0.00  0.00    +0.000 A 
ATOM     13  C   UNL     1      -0.876  14.150  20.828  0.00  0.00    +0.000 A 
ATOM     14  C   UNL     1      -1.253  13.343  21.909  0.00  0.00    +0.000 A 
ATOM     15  C   UNL     1      -0.610  12.122  22.148  0.00  0.00    +0.000 A 
ATOM     16  C   UNL     1       0.342  11.675  21.238  0.00  0.00    +0.000 A 
ATOM     17  C   UNL     1       0.919  10.292  21.291  0.00  0.00    +0.000 A 
ATOM     18  O   UNL     1       1.175   9.805  22.385  0.00  0.00    +0.000 OA
ENDBRANCH   4   7
BRANCH   1  19
ATOM     19  N   UNL     1       3.246   4.575  18.859  0.00  0.00    +0.000 N 
ATOM     20  H   UNL     1       2.943   4.114  18.003  0.00  0.00    +0.000 HD
BRANCH  19  21
ATOM     21  S   UNL     1       4.908   4.381  19.057  0.00  0.00    +0.000 S 
ATOM     22  O   UNL     1       5.179   3.106  19.676  0.00  0.00    +0.000 OA
ATOM     23  O   UNL     1       5.383   5.618  19.647  0.00  0.00    +0.000 OA
BRANCH  21  27
ATOM     24  C   UNL     1       6.539   4.474  14.781  0.00  0.00    +0.000 A 
ATOM     25  C   UNL     1       5.207   4.106  15.027  0.00  0.00    +0.000 A 
ATOM     26  C   UNL     1       4.711   4.060  16.333  0.00  0.00    +0.000 A 
ATOM     27  C   UNL     1       5.562   4.357  17.402  0.00  0.00    +0.000 A 
ATOM     28  C   UNL     1       6.892   4.722  17.169  0.00  0.00    +0.000 A 
ATOM     29  C   UNL     1       7.380   4.784  15.857  0.00  0.00    +0.000 A 
BRANCH  24  31
ATOM     30  C   UNL     1       8.112   5.468  12.990  0.00  0.00    +0.000 C 
ATOM     31  C   UNL     1       7.010   4.513  13.369  0.00  0.00    +0.000 C 
ATOM     32  O   UNL     1       6.481   3.778  12.535  0.00  0.00    +0.000 OA
ENDBRANCH  24  31
ENDBRANCH  21  27
ENDBRANCH  19  21
ENDBRANCH   1  19
TORSDOF 5
ENDMDL
MODEL 4
REMARK VINA RESULT:      -8.9      1.366      2.019
REMARK  Name = 
REMARK  7 active torsions:
REMARK  status: ('A' for Active; 'I' for Inactive)
REMARK    1  A    between atoms: C_1  and  C_2
REMARK    2  A    between atoms: C_2  and  C_4
REMARK    3  A    between atoms: C_7  and  S_8
REMARK    4  A    between atoms: S_8  and  N_11
REMARK    5  A    between atoms: N_11  and  C_12
REMARK    6  A    between atoms: C_15  and  N_16
REMARK    7  A    between atoms: C_17  and  C_18
REMARK                            x       y       z     vdW  Elec       q    Type
REMARK                         _______ _______ _______ _____ _____    ______ ____
ROOT
ATOM      1  C   UNL     1       2.753   5.805  19.007  0.00  0.00    +0.000 A 
ATOM      2  C   UNL     1       2.214   6.272  20.206  0.00  0.00    +0.000 A 
ATOM      3  C   UNL     1       1.683   7.574  20.294  0.00  0.00    +0.000 A 
ATOM      4  C   UNL     1       1.664   8.422  19.181  0.00  0.00    +0.000 A 
ATOM      5  C   UNL     1       2.188   7.909  17.972  0.00  0.00    +0.000 A 
ATOM      6  C   UNL     1       2.721   6.615  17.883  0.00  0.00    +0.000 A 
ENDROOT
BRANCH   4   7
ATOM      7  N   UNL     1       1.175   9.769  19.219  0.00  0.00    +0.000 N 
ATOM      8  C   UNL     1       0.154  10.095  20.094  0.00  0.00    +0.000 A 
ATOM      9  C   UNL     1       0.668  10.324  21.513  0.00  0.00    +0.000 C 
ATOM     10  N   UNL     1      -0.856  10.795  19.671  0.00  0.00    +0.000 NA
ATOM     11  C   UNL     1      -0.386  12.037  19.207  0.00  0.00    +0.000 A 
ATOM     12  C   UNL     1      -1.112  13.175  19.540  0.00  0.00    +0.000 A 
ATOM     13  C   UNL     1      -0.447  14.392  19.645  0.00  0.00    +0.000 A 
ATOM     14  C   UNL     1       0.927  14.465  19.378  0.00  0.00    +0.000 A 
ATOM     15  C   UNL     1       1.620  13.351  18.892  0.00  0.00    +0.000 A 
ATOM     16  C   UNL     1       0.947  12.139  18.774  0.00  0.00    +0.000 A 
ATOM     17  C   UNL     1       1.655  10.850  18.476  0.00  0.00    +0.000 A 
ATOM     18  O   UNL     1       2.573  10.860  17.666  0.00  0.00    +0.000 OA
ENDBRANCH   4   7
BRANCH   1  19
ATOM     19  N   UNL     1       3.335   4.508  18.937  0.00  0.00    +0.000 N 
ATOM     20  H   UNL     1       3.005   3.900  18.189  0.00  0.00    +0.000 HD
BRANCH  19  21
ATOM     21  S   UNL     1       5.002   4.349  19.112  0.00  0.00    +0.000 S 
ATOM     22  O   UNL     1       5.310   3.069  19.703  0.00  0.00    +0.000 OA
ATOM     23  O   UNL     1       5.457   5.585  19.720  0.00  0.00    +0.000 OA
BRANCH  21  27
ATOM     24  C   UNL     1       6.578   4.559  14.820  0.00  0.00    +0.000 A 
ATOM     25  C   UNL     1       5.262   4.147  15.075  0.00  0.00    +0.000 A 
ATOM     26  C   UNL     1       4.783   4.065  16.386  0.00  0.00    +0.000 A 
ATOM     27  C   UNL     1       5.637   4.371  17.449  0.00  0.00    +0.000 A 
ATOM     28  C   UNL     1       6.953   4.780  17.207  0.00  0.00    +0.000 A 
ATOM     29  C   UNL     1       7.422   4.879  15.890  0.00  0.00    +0.000 A 
BRANCH  24  31
ATOM     30  C   UNL     1       6.482   3.651  12.404  0.00  0.00    +0.000 C 
ATOM     31  C   UNL     1       7.031   4.635  13.403  0.00  0.00    +0.000 C 
ATOM     32  O   UNL     1       7.857   5.488  13.078  0.00  0.00    +0.000 OA
ENDBRANCH  24  31
ENDBRANCH  21  27
ENDBRANCH  19  21
ENDBRANCH   1  19
TORSDOF 5
ENDMDL
MODEL 5
REMARK VINA RESULT:      -8.8      1.165      2.076
REMARK  Name = 
REMARK  7 active torsions:
REMARK  status: ('A' for Active; 'I' for Inactive)
REMARK    1  A    between atoms: C_1  and  C_2
REMARK    2  A    between atoms: C_2  and  C_4
REMARK    3  A    between atoms: C_7  and  S_8
REMARK    4  A    between atoms: S_8  and  N_11
REMARK    5  A    between atoms: N_11  and  C_12
REMARK    6  A    between atoms: C_15  and  N_16
REMARK    7  A    between atoms: C_17  and  C_18
REMARK                            x       y       z     vdW  Elec       q    Type
REMARK                         _______ _______ _______ _____ _____    ______ ____
ROOT
ATOM      1  C   UNL     1       2.667   5.521  19.265  0.00  0.00    +0.000 A 
ATOM      2  C   UNL     1       2.843   6.752  18.632  0.00  0.00    +0.000 A 
ATOM      3  C   UNL     1       2.246   7.918  19.152  0.00  0.00    +0.000 A 
ATOM      4  C   UNL     1       1.482   7.875  20.323  0.00  0.00    +0.000 A 
ATOM      5  C   UNL     1       1.348   6.620  20.959  0.00  0.00    +0.000 A 
ATOM      6  C   UNL     1       1.937   5.458  20.442  0.00  0.00    +0.000 A 
ENDROOT
BRANCH   4   7
ATOM      7  N   UNL     1       0.817   9.019  20.877  0.00  0.00    +0.000 N 
ATOM      8  C   UNL     1       0.561   9.061  22.236  0.00  0.00    +0.000 A 
ATOM      9  C   UNL     1       1.790   9.486  23.036  0.00  0.00    +0.000 C 
ATOM     10  N   UNL     1      -0.616   9.416  22.657  0.00  0.00    +0.000 NA
ATOM     11  C   UNL     1      -0.885  10.722  22.210  0.00  0.00    +0.000 A 
ATOM     12  C   UNL     1      -1.480  11.607  23.104  0.00  0.00    +0.000 A 
ATOM     13  C   UNL     1      -1.234  12.970  22.966  0.00  0.00    +0.000 A 
ATOM     14  C   UNL     1      -0.432  13.435  21.916  0.00  0.00    +0.000 A 
ATOM     15  C   UNL     1       0.035  12.557  20.931  0.00  0.00    +0.000 A 
ATOM     16  C   UNL     1      -0.226  11.197  21.064  0.00  0.00    +0.000 A 
ATOM     17  C   UNL     1       0.415  10.164  20.185  0.00  0.00    +0.000 A 
ATOM     18  O   UNL     1       0.556  10.414  18.995  0.00  0.00    +0.000 OA
ENDBRANCH   4   7
BRANCH   1  19
ATOM     19  N   UNL     1       3.229   4.338  18.708  0.00  0.00    +0.000 N 
ATOM     20  H   UNL     1       2.937   4.097  17.762  0.00  0.00    +0.000 HD
BRANCH  19  21
ATOM     21  S   UNL     1       4.878   4.052  18.891  0.00  0.00    +0.000 S 
ATOM     22  O   UNL     1       5.097   2.667  19.235  0.00  0.00    +0.000 OA
ATOM     23  O   UNL     1       5.375   5.122  19.735  0.00  0.00    +0.000 OA
BRANCH  21  27
ATOM     24  C   UNL     1       6.721   4.665  14.746  0.00  0.00    +0.000 A 
ATOM     25  C   UNL     1       7.470   4.927  15.903  0.00  0.00    +0.000 A 
ATOM     26  C   UNL     1       6.904   4.758  17.171  0.00  0.00    +0.000 A 
ATOM     27  C   UNL     1       5.571   4.350  17.279  0.00  0.00    +0.000 A 
ATOM     28  C   UNL     1       4.814   4.089  16.132  0.00  0.00    +0.000 A 
ATOM     29  C   UNL     1       5.392   4.243  14.864  0.00  0.00    +0.000 A 
BRANCH  24  31
ATOM     30  C   UNL     1       6.943   4.004  12.259  0.00  0.00    +0.000 C 
ATOM     31  C   UNL     1       7.378   4.856  13.424  0.00  0.00    +0.000 C 
ATOM     32  O   UNL     1       8.274   5.692  13.309  0.00  0.00    +0.000 OA
ENDBRANCH  24  31
ENDBRANCH  21  27
ENDBRANCH  19  21
ENDBRANCH   1  19
TORSDOF 5
ENDMDL
MODEL 6
REMARK VINA RESULT:      -8.6      1.282      1.893
REMARK  Name = 
REMARK  7 active torsions:
REMARK  status: ('A' for Active; 'I' for Inactive)
REMARK    1  A    between atoms: C_1  and  C_2
REMARK    2  A    between atoms: C_2  and  C_4
REMARK    3  A    between atoms: C_7  and  S_8
REMARK    4  A    between atoms: S_8  and  N_11
REMARK    5  A    between atoms: N_11  and  C_12
REMARK    6  A    between atoms: C_15  and  N_16
REMARK    7  A    between atoms: C_17  and  C_18
REMARK                            x       y       z     vdW  Elec       q    Type
REMARK                         _______ _______ _______ _____ _____    ______ ____
ROOT
ATOM      1  C   UNL     1       2.651   6.244  18.970  0.00  0.00    +0.000 A 
ATOM      2  C   UNL     1       2.630   7.094  17.864  0.00  0.00    +0.000 A 
ATOM      3  C   UNL     1       2.099   8.395  17.968  0.00  0.00    +0.000 A 
ATOM      4  C   UNL     1       1.601   8.874  19.184  0.00  0.00    +0.000 A 
ATOM      5  C   UNL     1       1.664   8.002  20.295  0.00  0.00    +0.000 A 
ATOM      6  C   UNL     1       2.188   6.706  20.192  0.00  0.00    +0.000 A 
ENDROOT
BRANCH   4   7
ATOM      7  N   UNL     1       1.012  10.172  19.343  0.00  0.00    +0.000 N 
ATOM      8  C   UNL     1      -0.114  10.314  20.133  0.00  0.00    +0.000 A 
ATOM      9  C   UNL     1       0.233  10.376  21.618  0.00  0.00    +0.000 C 
ATOM     10  N   UNL     1      -1.124  11.004  19.694  0.00  0.00    +0.000 NA
ATOM     11  C   UNL     1      -0.703  12.323  19.450  0.00  0.00    +0.000 A 
ATOM     12  C   UNL     1      -1.542  13.360  19.845  0.00  0.00    +0.000 A 
ATOM     13  C   UNL     1      -0.982  14.589  20.181  0.00  0.00    +0.000 A 
ATOM     14  C   UNL     1       0.402  14.779  20.080  0.00  0.00    +0.000 A 
ATOM     15  C   UNL     1       1.222  13.785  19.534  0.00  0.00    +0.000 A 
ATOM     16  C   UNL     1       0.656  12.563  19.186  0.00  0.00    +0.000 A 
ATOM     17  C   UNL     1       1.484  11.372  18.804  0.00  0.00    +0.000 A 
ATOM     18  O   UNL     1       2.477  11.547  18.110  0.00  0.00    +0.000 OA
ENDBRANCH   4   7
BRANCH   1  19
ATOM     19  N   UNL     1       3.140   4.914  18.846  0.00  0.00    +0.000 N 
ATOM     20  H   UNL     1       2.781   4.367  18.066  0.00  0.00    +0.000 HD
BRANCH  19  21
ATOM     21  S   UNL     1       4.789   4.628  19.039  0.00  0.00    +0.000 S 
ATOM     22  O   UNL     1       4.996   3.288  19.536  0.00  0.00    +0.000 OA
ATOM     23  O   UNL     1       5.311   5.780  19.748  0.00  0.00    +0.000 OA
BRANCH  21  27
ATOM     24  C   UNL     1       6.615   4.763  14.844  0.00  0.00    +0.000 A 
ATOM     25  C   UNL     1       7.216   5.459  15.904  0.00  0.00    +0.000 A 
ATOM     26  C   UNL     1       6.651   5.434  17.182  0.00  0.00    +0.000 A 
ATOM     27  C   UNL     1       5.461   4.730  17.394  0.00  0.00    +0.000 A 
ATOM     28  C   UNL     1       4.852   4.035  16.343  0.00  0.00    +0.000 A 
ATOM     29  C   UNL     1       5.432   4.049  15.068  0.00  0.00    +0.000 A 
BRANCH  24  31
ATOM     30  C   UNL     1       6.751   3.932  12.402  0.00  0.00    +0.000 C 
ATOM     31  C   UNL     1       7.266   4.819  13.506  0.00  0.00    +0.000 C 
ATOM     32  O   UNL     1       8.221   5.574  13.330  0.00  0.00    +0.000 OA
ENDBRANCH  24  31
ENDBRANCH  21  27
ENDBRANCH  19  21
ENDBRANCH   1  19
TORSDOF 5
ENDMDL
MODEL 7
REMARK VINA RESULT:      -8.5      1.536      2.059
REMARK  Name = 
REMARK  7 active torsions:
REMARK  status: ('A' for Active; 'I' for Inactive)
REMARK    1  A    between atoms: C_1  and  C_2
REMARK    2  A    between atoms: C_2  and  C_4
REMARK    3  A    between atoms: C_7  and  S_8
REMARK    4  A    between atoms: S_8  and  N_11
REMARK    5  A    between atoms: N_11  and  C_12
REMARK    6  A    between atoms: C_15  and  N_16
REMARK    7  A    between atoms: C_17  and  C_18
REMARK                            x       y       z     vdW  Elec       q    Type
REMARK                         _______ _______ _______ _____ _____    ______ ____
ROOT
ATOM      1  C   UNL     1       2.314   7.232  19.872  0.00  0.00    +0.000 A 
ATOM      2  C   UNL     1       1.541   7.292  21.032  0.00  0.00    +0.000 A 
ATOM      3  C   UNL     1       0.716   8.404  21.288  0.00  0.00    +0.000 A 
ATOM      4  C   UNL     1       0.634   9.465  20.380  0.00  0.00    +0.000 A 
ATOM      5  C   UNL     1       1.405   9.362  19.199  0.00  0.00    +0.000 A 
ATOM      6  C   UNL     1       2.230   8.258  18.944  0.00  0.00    +0.000 A 
ENDROOT
BRANCH   4   7
ATOM      7  N   UNL     1      -0.155  10.641  20.604  0.00  0.00    +0.000 N 
ATOM      8  C   UNL     1      -0.652  11.341  19.519  0.00  0.00    +0.000 A 
ATOM      9  C   UNL     1      -1.915  10.696  18.953  0.00  0.00    +0.000 C 
ATOM     10  N   UNL     1      -0.536  12.634  19.480  0.00  0.00    +0.000 NA
ATOM     11  C   UNL     1      -1.207  13.185  20.587  0.00  0.00    +0.000 A 
ATOM     12  C   UNL     1      -1.981  14.323  20.381  0.00  0.00    +0.000 A 
ATOM     13  C   UNL     1      -3.077  14.551  21.206  0.00  0.00    +0.000 A 
ATOM     14  C   UNL     1      -3.364  13.663  22.251  0.00  0.00    +0.000 A 
ATOM     15  C   UNL     1      -2.494  12.608  22.551  0.00  0.00    +0.000 A 
ATOM     16  C   UNL     1      -1.391  12.392  21.732  0.00  0.00    +0.000 A 
ATOM     17  C   UNL     1      -0.533  11.166  21.842  0.00  0.00    +0.000 A 
ATOM     18  O   UNL     1      -0.276  10.730  22.956  0.00  0.00    +0.000 OA
ENDBRANCH   4   7
BRANCH   1  19
ATOM     19  N   UNL     1       3.185   6.130  19.644  0.00  0.00    +0.000 N 
ATOM     20  H   UNL     1       3.658   5.746  20.460  0.00  0.00    +0.000 HD
BRANCH  19  21
ATOM     21  S   UNL     1       2.677   4.882  18.634  0.00  0.00    +0.000 S 
ATOM     22  O   UNL     1       1.383   5.201  18.079  0.00  0.00    +0.000 OA
ATOM     23  O   UNL     1       2.892   3.656  19.379  0.00  0.00    +0.000 OA
BRANCH  21  27
ATOM     24  C   UNL     1       5.860   4.827  15.345  0.00  0.00    +0.000 A 
ATOM     25  C   UNL     1       5.342   6.044  15.813  0.00  0.00    +0.000 A 
ATOM     26  C   UNL     1       4.357   6.063  16.805  0.00  0.00    +0.000 A 
ATOM     27  C   UNL     1       3.868   4.856  17.311  0.00  0.00    +0.000 A 
ATOM     28  C   UNL     1       4.375   3.636  16.850  0.00  0.00    +0.000 A 
ATOM     29  C   UNL     1       5.376   3.622  15.869  0.00  0.00    +0.000 A 
BRANCH  24  31
ATOM     30  C   UNL     1       6.719   4.068  13.030  0.00  0.00    +0.000 C 
ATOM     31  C   UNL     1       6.913   4.867  14.293  0.00  0.00    +0.000 C 
ATOM     32  O   UNL     1       7.929   5.536  14.480  0.00  0.00    +0.000 OA
ENDBRANCH  24  31
ENDBRANCH  21  27
ENDBRANCH  19  21
ENDBRANCH   1  19
TORSDOF 5
ENDMDL
MODEL 8
REMARK VINA RESULT:      -8.4      3.536     10.450
REMARK  Name = 
REMARK  7 active torsions:
REMARK  status: ('A' for Active; 'I' for Inactive)
REMARK    1  A    between atoms: C_1  and  C_2
REMARK    2  A    between atoms: C_2  and  C_4
REMARK    3  A    between atoms: C_7  and  S_8
REMARK    4  A    between atoms: S_8  and  N_11
REMARK    5  A    between atoms: N_11  and  C_12
REMARK    6  A    between atoms: C_15  and  N_16
REMARK    7  A    between atoms: C_17  and  C_18
REMARK                            x       y       z     vdW  Elec       q    Type
REMARK                         _______ _______ _______ _____ _____    ______ ____
ROOT
ATOM      1  C   UNL     1       1.210  10.042  19.315  0.00  0.00    +0.000 A 
ATOM      2  C   UNL     1       1.175   9.245  20.459  0.00  0.00    +0.000 A 
ATOM      3  C   UNL     1       1.565   7.892  20.403  0.00  0.00    +0.000 A 
ATOM      4  C   UNL     1       2.015   7.321  19.207  0.00  0.00    +0.000 A 
ATOM      5  C   UNL     1       2.068   8.162  18.073  0.00  0.00    +0.000 A 
ATOM      6  C   UNL     1       1.677   9.507  18.125  0.00  0.00    +0.000 A 
ENDROOT
BRANCH   4   7
ATOM      7  N   UNL     1       2.385   5.941  19.079  0.00  0.00    +0.000 N 
ATOM      8  C   UNL     1       2.834   5.471  17.858  0.00  0.00    +0.000 A 
ATOM      9  C   UNL     1       4.305   5.807  17.621  0.00  0.00    +0.000 C 
ATOM     10  N   UNL     1       2.360   4.358  17.384  0.00  0.00    +0.000 NA
ATOM     11  C   UNL     1       2.652   3.319  18.286  0.00  0.00    +0.000 A 
ATOM     12  C   UNL     1       3.090   2.106  17.764  0.00  0.00    +0.000 A 
ATOM     13  C   UNL     1       3.922   1.301  18.536  0.00  0.00    +0.000 A 
ATOM     14  C   UNL     1       4.274   1.698  19.833  0.00  0.00    +0.000 A 
ATOM     15  C   UNL     1       3.706   2.840  20.410  0.00  0.00    +0.000 A 
ATOM     16  C   UNL     1       2.863   3.634  19.639  0.00  0.00    +0.000 A 
ATOM     17  C   UNL     1       2.386   4.981  20.094  0.00  0.00    +0.000 A 
ATOM     18  O   UNL     1       2.084   5.129  21.271  0.00  0.00    +0.000 OA
ENDBRANCH   4   7
BRANCH   1  19
ATOM     19  N   UNL     1       0.766  11.393  19.366  0.00  0.00    +0.000 N 
ATOM     20  H   UNL     1       1.414  12.099  19.020  0.00  0.00    +0.000 HD
BRANCH  19  21
ATOM     21  S   UNL     1      -0.801  11.759  18.868  0.00  0.00    +0.000 S 
ATOM     22  O   UNL     1      -1.370  10.625  18.179  0.00  0.00    +0.000 OA
ATOM     23  O   UNL     1      -0.723  13.061  18.234  0.00  0.00    +0.000 OA
BRANCH  21  27
ATOM     24  C   UNL     1      -3.056  12.564  22.769  0.00  0.00    +0.000 A 
ATOM     25  C   UNL     1      -1.796  11.948  22.791  0.00  0.00    +0.000 A 
ATOM     26  C   UNL     1      -1.113  11.684  21.600  0.00  0.00    +0.000 A 
ATOM     27  C   UNL     1      -1.708  12.015  20.379  0.00  0.00    +0.000 A 
ATOM     28  C   UNL     1      -2.965  12.628  20.346  0.00  0.00    +0.000 A 
ATOM     29  C   UNL     1      -3.638  12.906  21.543  0.00  0.00    +0.000 A 
BRANCH  24  31
ATOM     30  C   UNL     1      -3.479  14.131  24.779  0.00  0.00    +0.000 C 
ATOM     31  C   UNL     1      -3.734  12.826  24.069  0.00  0.00    +0.000 C 
ATOM     32  O   UNL     1      -4.475  11.969  24.548  0.00  0.00    +0.000 OA
ENDBRANCH  24  31
ENDBRANCH  21  27
ENDBRANCH  19  21
ENDBRANCH   1  19
TORSDOF 5
ENDMDL
MODEL 9
REMARK VINA RESULT:      -8.3      1.765      2.326
REMARK  Name = 
REMARK  7 active torsions:
REMARK  status: ('A' for Active; 'I' for Inactive)
REMARK    1  A    between atoms: C_1  and  C_2
REMARK    2  A    between atoms: C_2  and  C_4
REMARK    3  A    between atoms: C_7  and  S_8
REMARK    4  A    between atoms: S_8  and  N_11
REMARK    5  A    between atoms: N_11  and  C_12
REMARK    6  A    between atoms: C_15  and  N_16
REMARK    7  A    between atoms: C_17  and  C_18
REMARK                            x       y       z     vdW  Elec       q    Type
REMARK                         _______ _______ _______ _____ _____    ______ ____
ROOT
ATOM      1  C   UNL     1       2.117   7.658  19.884  0.00  0.00    +0.000 A 
ATOM      2  C   UNL     1       1.320   7.582  21.026  0.00  0.00    +0.000 A 
ATOM      3  C   UNL     1       0.431   8.625  21.353  0.00  0.00    +0.000 A 
ATOM      4  C   UNL     1       0.310   9.752  20.531  0.00  0.00    +0.000 A 
ATOM      5  C   UNL     1       1.107   9.786  19.364  0.00  0.00    +0.000 A 
ATOM      6  C   UNL     1       1.995   8.751  19.040  0.00  0.00    +0.000 A 
ENDROOT
BRANCH   4   7
ATOM      7  N   UNL     1      -0.546  10.862  20.831  0.00  0.00    +0.000 N 
ATOM      8  C   UNL     1      -1.006  11.662  19.800  0.00  0.00    +0.000 A 
ATOM      9  C   UNL     1      -2.199  11.037  19.082  0.00  0.00    +0.000 C 
ATOM     10  N   UNL     1      -0.947  12.955  19.915  0.00  0.00    +0.000 NA
ATOM     11  C   UNL     1      -1.712  13.348  21.028  0.00  0.00    +0.000 A 
ATOM     12  C   UNL     1      -2.523  14.471  20.898  0.00  0.00    +0.000 A 
ATOM     13  C   UNL     1      -3.678  14.560  21.668  0.00  0.00    +0.000 A 
ATOM     14  C   UNL     1      -3.988  13.548  22.585  0.00  0.00    +0.000 A 
ATOM     15  C   UNL     1      -3.091  12.500  22.824  0.00  0.00    +0.000 A 
ATOM     16  C   UNL     1      -1.930  12.423  22.062  0.00  0.00    +0.000 A 
ATOM     17  C   UNL     1      -1.025  11.227  22.092  0.00  0.00    +0.000 A 
ATOM     18  O   UNL     1      -0.818  10.676  23.165  0.00  0.00    +0.000 OA
ENDBRANCH   4   7
BRANCH   1  19
ATOM     19  N   UNL     1       3.050   6.626  19.586  0.00  0.00    +0.000 N 
ATOM     20  H   UNL     1       3.606   6.276  20.365  0.00  0.00    +0.000 HD
BRANCH  19  21
ATOM     21  S   UNL     1       2.568   5.345  18.604  0.00  0.00    +0.000 S 
ATOM     22  O   UNL     1       1.338   5.686  17.929  0.00  0.00    +0.000 OA
ATOM     23  O   UNL     1       2.666   4.155  19.428  0.00  0.00    +0.000 OA
BRANCH  21  27
ATOM     24  C   UNL     1       5.772   4.978  15.357  0.00  0.00    +0.000 A 
ATOM     25  C   UNL     1       5.087   3.842  15.811  0.00  0.00    +0.000 A 
ATOM     26  C   UNL     1       4.120   3.948  16.816  0.00  0.00    +0.000 A 
ATOM     27  C   UNL     1       3.858   5.196  17.388  0.00  0.00    +0.000 A 
ATOM     28  C   UNL     1       4.538   6.336  16.944  0.00  0.00    +0.000 A 
ATOM     29  C   UNL     1       5.493   6.227  15.925  0.00  0.00    +0.000 A 
BRANCH  24  31
ATOM     30  C   UNL     1       6.502   3.848  13.152  0.00  0.00    +0.000 C 
ATOM     31  C   UNL     1       6.786   4.806  14.280  0.00  0.00    +0.000 C 
ATOM     32  O   UNL     1       7.843   5.434  14.339  0.00  0.00    +0.000 OA
ENDBRANCH  24  31
ENDBRANCH  21  27
ENDBRANCH  19  21
ENDBRANCH   1  19
TORSDOF 5
ENDMDL
