MODEL 1
REMARK VINA RESULT:      -7.1      0.000      0.000
REMARK  Name = 
REMARK  5 active torsions:
REMARK  status: ('A' for Active; 'I' for Inactive)
REMARK    1  A    between atoms: C_1  and  O_2
REMARK    2  A    between atoms: O_2  and  C_3
REMARK    3  A    between atoms: C_6  and  C_7
REMARK    4  A    between atoms: C_10  and  O_11
REMARK    5  A    between atoms: N_18  and  C_19
REMARK                            x       y       z     vdW  Elec       q    Type
REMARK                         _______ _______ _______ _____ _____    ______ ____
ROOT
ATOM      1  C   UNL     1       1.106   8.893  20.605  0.00  0.00    +0.000 A 
ATOM      2  C   UNL     1       1.691   9.072  19.370  0.00  0.00    +0.000 A 
ATOM      3  N   UNL     1       2.225   7.849  19.038  0.00  0.00    +0.000 N 
ATOM      4  C   UNL     1       2.926   7.410  17.918  0.00  0.00    +0.000 A 
ATOM      5  N   UNL     1       3.356   6.202  17.782  0.00  0.00    +0.000 NA
ATOM      6  C   UNL     1       3.080   5.323  18.816  0.00  0.00    +0.000 A 
ATOM      7  C   UNL     1       2.411   5.641  19.955  0.00  0.00    +0.000 A 
ATOM      8  C   UNL     1       1.951   6.990  20.081  0.00  0.00    +0.000 A 
ATOM      9  N   UNL     1       1.273   7.597  21.036  0.00  0.00    +0.000 NA
ATOM     10  C   UNL     1       2.163   4.595  21.029  0.00  0.00    +0.000 C 
ATOM     11  N   UNL     1       2.363   3.203  20.583  0.00  0.00    +0.000 NA
ATOM     12  C   UNL     1       2.300   2.283  21.715  0.00  0.00    +0.000 C 
ATOM     13  C   UNL     1       3.638   3.079  19.871  0.00  0.00    +0.000 C 
ATOM     14  C   UNL     1       3.603   3.921  18.593  0.00  0.00    +0.000 C 
ENDROOT
BRANCH   1  18
ATOM     15  C   UNL     1      -1.125  11.838  22.752  0.00  0.00    +0.000 A 
ATOM     16  C   UNL     1      -1.084  10.514  23.192  0.00  0.00    +0.000 A 
ATOM     17  C   UNL     1      -0.332   9.557  22.502  0.00  0.00    +0.000 A 
ATOM     18  C   UNL     1       0.369   9.906  21.343  0.00  0.00    +0.000 A 
ATOM     19  C   UNL     1       0.317  11.237  20.902  0.00  0.00    +0.000 A 
ATOM     20  C   UNL     1      -0.426  12.196  21.600  0.00  0.00    +0.000 A 
BRANCH  15  22
ATOM     21  C   UNL     1      -3.258  12.283  23.665  0.00  0.00    +0.000 C 
ATOM     22  O   UNL     1      -1.902  12.683  23.495  0.00  0.00    +0.000 OA
ENDBRANCH  15  22
ENDBRANCH   1  18
BRANCH   4  23
ATOM     23  O   UNL     1       3.140   8.348  16.968  0.00  0.00    +0.000 OA
ATOM     24  H   UNL     1       3.537   8.024  16.149  0.00  0.00    +0.000 HD
ENDBRANCH   4  23
TORSDOF 3
ENDMDL
MODEL 2
REMARK VINA RESULT:      -7.0      2.051      3.289
REMARK  Name = 
REMARK  5 active torsions:
REMARK  status: ('A' for Active; 'I' for Inactive)
REMARK    1  A    between atoms: C_1  and  O_2
REMARK    2  A    between atoms: O_2  and  C_3
REMARK    3  A    between atoms: C_6  and  C_7
REMARK    4  A    between atoms: C_10  and  O_11
REMARK    5  A    between atoms: N_18  and  C_19
REMARK                            x       y       z     vdW  Elec       q    Type
REMARK                         _______ _______ _______ _____ _____    ______ ____
ROOT
ATOM      1  C   UNL     1       1.466   7.642  20.556  0.00  0.00    +0.000 A 
ATOM      2  C   UNL     1       1.352   6.417  21.177  0.00  0.00    +0.000 A 
ATOM      3  N   UNL     1       2.100   5.550  20.417  0.00  0.00    +0.000 N 
ATOM      4  C   UNL     1       2.369   4.190  20.546  0.00  0.00    +0.000 A 
ATOM      5  N   UNL     1       3.109   3.534  19.717  0.00  0.00    +0.000 NA
ATOM      6  C   UNL     1       3.653   4.253  18.665  0.00  0.00    +0.000 A 
ATOM      7  C   UNL     1       3.455   5.577  18.439  0.00  0.00    +0.000 A 
ATOM      8  C   UNL     1       2.626   6.278  19.370  0.00  0.00    +0.000 A 
ATOM      9  N   UNL     1       2.260   7.544  19.436  0.00  0.00    +0.000 NA
ATOM     10  C   UNL     1       4.102   6.268  17.249  0.00  0.00    +0.000 C 
ATOM     11  N   UNL     1       5.202   5.507  16.625  0.00  0.00    +0.000 NA
ATOM     12  C   UNL     1       5.631   6.141  15.382  0.00  0.00    +0.000 C 
ATOM     13  C   UNL     1       4.788   4.119  16.396  0.00  0.00    +0.000 C 
ATOM     14  C   UNL     1       4.516   3.430  17.735  0.00  0.00    +0.000 C 
ENDROOT
BRANCH   1  18
ATOM     15  C   UNL     1      -0.327  11.262  21.947  0.00  0.00    +0.000 A 
ATOM     16  C   UNL     1      -0.252  10.141  22.774  0.00  0.00    +0.000 A 
ATOM     17  C   UNL     1       0.359   8.964  22.325  0.00  0.00    +0.000 A 
ATOM     18  C   UNL     1       0.880   8.885  21.029  0.00  0.00    +0.000 A 
ATOM     19  C   UNL     1       0.794  10.014  20.201  0.00  0.00    +0.000 A 
ATOM     20  C   UNL     1       0.193  11.193  20.656  0.00  0.00    +0.000 A 
BRANCH  15  22
ATOM     21  C   UNL     1      -2.232  12.099  23.066  0.00  0.00    +0.000 C 
ATOM     22  O   UNL     1      -0.957  12.350  22.485  0.00  0.00    +0.000 OA
ENDBRANCH  15  22
ENDBRANCH   1  18
BRANCH   4  23
ATOM     23  O   UNL     1       1.790   3.586  21.607  0.00  0.00    +0.000 OA
ATOM     24  H   UNL     1       2.199   2.756  21.885  0.00  0.00    +0.000 HD
ENDBRANCH   4  23
TORSDOF 3
ENDMDL
MODEL 3
REMARK VINA RESULT:      -7.0      0.563      1.177
REMARK  Name = 
REMARK  5 active torsions:
REMARK  status: ('A' for Active; 'I' for Inactive)
REMARK    1  A    between atoms: C_1  and  O_2
REMARK    2  A    between atoms: O_2  and  C_3
REMARK    3  A    between atoms: C_6  and  C_7
REMARK    4  A    between atoms: C_10  and  O_11
REMARK    5  A    between atoms: N_18  and  C_19
REMARK                            x       y       z     vdW  Elec       q    Type
REMARK                         _______ _______ _______ _____ _____    ______ ____
ROOT
ATOM      1  C   UNL     1       0.941   9.018  20.593  0.00  0.00    +0.000 A 
ATOM      2  C   UNL     1       1.508   9.235  19.355  0.00  0.00    +0.000 A 
ATOM      3  N   UNL     1       2.104   8.045  19.011  0.00  0.00    +0.000 N 
ATOM      4  C   UNL     1       2.821   7.651  17.884  0.00  0.00    +0.000 A 
ATOM      5  N   UNL     1       3.314   6.468  17.738  0.00  0.00    +0.000 NA
ATOM      6  C   UNL     1       3.093   5.570  18.769  0.00  0.00    +0.000 A 
ATOM      7  C   UNL     1       2.415   5.845  19.913  0.00  0.00    +0.000 A 
ATOM      8  C   UNL     1       1.884   7.166  20.051  0.00  0.00    +0.000 A 
ATOM      9  N   UNL     1       1.180   7.730  21.014  0.00  0.00    +0.000 NA
ATOM     10  C   UNL     1       2.231   4.780  20.982  0.00  0.00    +0.000 C 
ATOM     11  N   UNL     1       2.503   3.404  20.527  0.00  0.00    +0.000 NA
ATOM     12  C   UNL     1       2.498   2.475  21.653  0.00  0.00    +0.000 C 
ATOM     13  C   UNL     1       3.778   3.353  19.805  0.00  0.00    +0.000 C 
ATOM     14  C   UNL     1       3.689   4.200  18.534  0.00  0.00    +0.000 C 
ENDROOT
BRANCH   1  18
ATOM     15  C   UNL     1      -1.305  11.900  22.807  0.00  0.00    +0.000 A 
ATOM     16  C   UNL     1      -0.722  12.237  21.585  0.00  0.00    +0.000 A 
ATOM     17  C   UNL     1      -0.009  11.284  20.849  0.00  0.00    +0.000 A 
ATOM     18  C   UNL     1       0.156   9.985  21.341  0.00  0.00    +0.000 A 
ATOM     19  C   UNL     1      -0.427   9.656  22.573  0.00  0.00    +0.000 A 
ATOM     20  C   UNL     1      -1.150  10.607  23.303  0.00  0.00    +0.000 A 
BRANCH  15  22
ATOM     21  C   UNL     1      -1.233  14.124  23.601  0.00  0.00    +0.000 C 
ATOM     22  O   UNL     1      -1.966  12.914  23.444  0.00  0.00    +0.000 OA
ENDBRANCH  15  22
ENDBRANCH   1  18
BRANCH   4  23
ATOM     23  O   UNL     1       2.977   8.604  16.939  0.00  0.00    +0.000 OA
ATOM     24  H   UNL     1       3.860   8.990  16.882  0.00  0.00    +0.000 HD
ENDBRANCH   4  23
TORSDOF 3
ENDMDL
MODEL 4
REMARK VINA RESULT:      -6.9      2.054      3.440
REMARK  Name = 
REMARK  5 active torsions:
REMARK  status: ('A' for Active; 'I' for Inactive)
REMARK    1  A    between atoms: C_1  and  O_2
REMARK    2  A    between atoms: O_2  and  C_3
REMARK    3  A    between atoms: C_6  and  C_7
REMARK    4  A    between atoms: C_10  and  O_11
REMARK    5  A    between atoms: N_18  and  C_19
REMARK                            x       y       z     vdW  Elec       q    Type
REMARK                         _______ _______ _______ _____ _____    ______ ____
ROOT
ATOM      1  C   UNL     1       1.440   7.632  20.560  0.00  0.00    +0.000 A 
ATOM      2  C   UNL     1       1.350   6.416  21.202  0.00  0.00    +0.000 A 
ATOM      3  N   UNL     1       2.101   5.546  20.447  0.00  0.00    +0.000 N 
ATOM      4  C   UNL     1       2.391   4.193  20.594  0.00  0.00    +0.000 A 
ATOM      5  N   UNL     1       3.130   3.534  19.767  0.00  0.00    +0.000 NA
ATOM      6  C   UNL     1       3.651   4.243  18.697  0.00  0.00    +0.000 A 
ATOM      7  C   UNL     1       3.431   5.561  18.452  0.00  0.00    +0.000 A 
ATOM      8  C   UNL     1       2.604   6.265  19.382  0.00  0.00    +0.000 A 
ATOM      9  N   UNL     1       2.221   7.526  19.432  0.00  0.00    +0.000 NA
ATOM     10  C   UNL     1       4.054   6.240  17.243  0.00  0.00    +0.000 C 
ATOM     11  N   UNL     1       5.157   5.485  16.618  0.00  0.00    +0.000 NA
ATOM     12  C   UNL     1       5.562   6.105  15.360  0.00  0.00    +0.000 C 
ATOM     13  C   UNL     1       4.760   4.088  16.416  0.00  0.00    +0.000 C 
ATOM     14  C   UNL     1       4.514   3.417  17.769  0.00  0.00    +0.000 C 
ENDROOT
BRANCH   1  18
ATOM     15  C   UNL     1      -0.251  11.313  21.917  0.00  0.00    +0.000 A 
ATOM     16  C   UNL     1       0.326  11.219  20.651  0.00  0.00    +0.000 A 
ATOM     17  C   UNL     1       0.856  10.005  20.198  0.00  0.00    +0.000 A 
ATOM     18  C   UNL     1       0.841   8.874  21.020  0.00  0.00    +0.000 A 
ATOM     19  C   UNL     1       0.266   8.979  22.295  0.00  0.00    +0.000 A 
ATOM     20  C   UNL     1      -0.274  10.190  22.742  0.00  0.00    +0.000 A 
BRANCH  15  22
ATOM     21  C   UNL     1      -1.892  12.560  23.072  0.00  0.00    +0.000 C 
ATOM     22  O   UNL     1      -0.724  12.550  22.259  0.00  0.00    +0.000 OA
ENDBRANCH  15  22
ENDBRANCH   1  18
BRANCH   4  23
ATOM     23  O   UNL     1       1.834   3.598  21.672  0.00  0.00    +0.000 OA
ATOM     24  H   UNL     1       2.439   3.080  22.218  0.00  0.00    +0.000 HD
ENDBRANCH   4  23
TORSDOF 3
ENDMDL
MODEL 5
REMARK VINA RESULT:      -6.9      2.246      2.770
REMARK  Name = 
REMARK  5 active torsions:
REMARK  status: ('A' for Active; 'I' for Inactive)
REMARK    1  A    between atoms: C_1  and  O_2
REMARK    2  A    between atoms: O_2  and  C_3
REMARK    3  A    between atoms: C_6  and  C_7
REMARK    4  A    between atoms: C_10  and  O_11
REMARK    5  A    between atoms: N_18  and  C_19
REMARK                            x       y       z     vdW  Elec       q    Type
REMARK                         _______ _______ _______ _____ _____    ______ ____
ROOT
ATOM      1  C   UNL     1       1.983   8.663  18.634  0.00  0.00    +0.000 A 
ATOM      2  C   UNL     1       2.940   8.416  17.673  0.00  0.00    +0.000 A 
ATOM      3  N   UNL     1       3.332   7.113  17.873  0.00  0.00    +0.000 N 
ATOM      4  C   UNL     1       4.256   6.306  17.217  0.00  0.00    +0.000 A 
ATOM      5  N   UNL     1       4.493   5.083  17.554  0.00  0.00    +0.000 NA
ATOM      6  C   UNL     1       3.767   4.581  18.622  0.00  0.00    +0.000 A 
ATOM      7  C   UNL     1       2.846   5.277  19.338  0.00  0.00    +0.000 A 
ATOM      8  C   UNL     1       2.608   6.632  18.944  0.00  0.00    +0.000 A 
ATOM      9  N   UNL     1       1.785   7.548  19.416  0.00  0.00    +0.000 NA
ATOM     10  C   UNL     1       2.106   4.626  20.494  0.00  0.00    +0.000 C 
ATOM     11  N   UNL     1       2.191   3.153  20.521  0.00  0.00    +0.000 NA
ATOM     12  C   UNL     1       1.628   2.625  21.761  0.00  0.00    +0.000 C 
ATOM     13  C   UNL     1       3.582   2.725  20.347  0.00  0.00    +0.000 C 
ATOM     14  C   UNL     1       4.085   3.142  18.963  0.00  0.00    +0.000 C 
ENDROOT
BRANCH   1  18
ATOM     15  C   UNL     1      -0.153  12.329  19.133  0.00  0.00    +0.000 A 
ATOM     16  C   UNL     1       1.155  12.327  18.649  0.00  0.00    +0.000 A 
ATOM     17  C   UNL     1       1.844  11.124  18.461  0.00  0.00    +0.000 A 
ATOM     18  C   UNL     1       1.241   9.903  18.785  0.00  0.00    +0.000 A 
ATOM     19  C   UNL     1      -0.072   9.914  19.278  0.00  0.00    +0.000 A 
ATOM     20  C   UNL     1      -0.764  11.118  19.454  0.00  0.00    +0.000 A 
BRANCH  15  22
ATOM     21  C   UNL     1       0.123  14.672  19.004  0.00  0.00    +0.000 C 
ATOM     22  O   UNL     1      -0.723  13.563  19.289  0.00  0.00    +0.000 OA
ENDBRANCH  15  22
ENDBRANCH   1  18
BRANCH   4  23
ATOM     23  O   UNL     1       4.908   6.894  16.189  0.00  0.00    +0.000 OA
ATOM     24  H   UNL     1       5.257   6.291  15.520  0.00  0.00    +0.000 HD
ENDBRANCH   4  23
TORSDOF 3
ENDMDL
MODEL 6
REMARK VINA RESULT:      -6.8      2.635      2.880
REMARK  Name = 
REMARK  5 active torsions:
REMARK  status: ('A' for Active; 'I' for Inactive)
REMARK    1  A    between atoms: C_1  and  O_2
REMARK    2  A    between atoms: O_2  and  C_3
REMARK    3  A    between atoms: C_6  and  C_7
REMARK    4  A    between atoms: C_10  and  O_11
REMARK    5  A    between atoms: N_18  and  C_19
REMARK                            x       y       z     vdW  Elec       q    Type
REMARK                         _______ _______ _______ _____ _____    ______ ____
ROOT
ATOM      1  C   UNL     1       2.149   8.601  18.410  0.00  0.00    +0.000 A 
ATOM      2  C   UNL     1       3.113   8.309  17.470  0.00  0.00    +0.000 A 
ATOM      3  N   UNL     1       3.478   7.006  17.714  0.00  0.00    +0.000 N 
ATOM      4  C   UNL     1       4.396   6.162  17.093  0.00  0.00    +0.000 A 
ATOM      5  N   UNL     1       4.606   4.947  17.470  0.00  0.00    +0.000 NA
ATOM      6  C   UNL     1       3.857   4.490  18.543  0.00  0.00    +0.000 A 
ATOM      7  C   UNL     1       2.940   5.224  19.225  0.00  0.00    +0.000 A 
ATOM      8  C   UNL     1       2.732   6.570  18.789  0.00  0.00    +0.000 A 
ATOM      9  N   UNL     1       1.920   7.515  19.223  0.00  0.00    +0.000 NA
ATOM     10  C   UNL     1       2.173   4.620  20.390  0.00  0.00    +0.000 C 
ATOM     11  N   UNL     1       2.231   3.148  20.462  0.00  0.00    +0.000 NA
ATOM     12  C   UNL     1       1.643   2.667  21.709  0.00  0.00    +0.000 C 
ATOM     13  C   UNL     1       3.616   2.689  20.319  0.00  0.00    +0.000 C 
ATOM     14  C   UNL     1       4.144   3.056  18.931  0.00  0.00    +0.000 C 
ENDROOT
BRANCH   1  18
ATOM     15  C   UNL     1       0.001  12.287  18.645  0.00  0.00    +0.000 A 
ATOM     16  C   UNL     1      -0.675  11.067  18.659  0.00  0.00    +0.000 A 
ATOM     17  C   UNL     1       0.032   9.860  18.608  0.00  0.00    +0.000 A 
ATOM     18  C   UNL     1       1.428   9.859  18.514  0.00  0.00    +0.000 A 
ATOM     19  C   UNL     1       2.100  11.090  18.493  0.00  0.00    +0.000 A 
ATOM     20  C   UNL     1       1.392  12.296  18.556  0.00  0.00    +0.000 A 
BRANCH  15  22
ATOM     21  C   UNL     1      -0.111  14.635  18.882  0.00  0.00    +0.000 C 
ATOM     22  O   UNL     1      -0.792  13.401  18.686  0.00  0.00    +0.000 OA
ENDBRANCH  15  22
ENDBRANCH   1  18
BRANCH   4  23
ATOM     23  O   UNL     1       5.071   6.707  16.057  0.00  0.00    +0.000 OA
ATOM     24  H   UNL     1       6.033   6.707  16.144  0.00  0.00    +0.000 HD
ENDBRANCH   4  23
TORSDOF 3
ENDMDL
MODEL 7
REMARK VINA RESULT:      -6.8      2.552      8.209
REMARK  Name = 
REMARK  5 active torsions:
REMARK  status: ('A' for Active; 'I' for Inactive)
REMARK    1  A    between atoms: C_1  and  O_2
REMARK    2  A    between atoms: O_2  and  C_3
REMARK    3  A    between atoms: C_6  and  C_7
REMARK    4  A    between atoms: C_10  and  O_11
REMARK    5  A    between atoms: N_18  and  C_19
REMARK                            x       y       z     vdW  Elec       q    Type
REMARK                         _______ _______ _______ _____ _____    ______ ____
ROOT
ATOM      1  C   UNL     1       1.558   8.520  20.160  0.00  0.00    +0.000 A 
ATOM      2  C   UNL     1       1.048   8.367  21.431  0.00  0.00    +0.000 A 
ATOM      3  N   UNL     1       0.493   9.583  21.752  0.00  0.00    +0.000 N 
ATOM      4  C   UNL     1      -0.171  10.036  22.889  0.00  0.00    +0.000 A 
ATOM      5  N   UNL     1      -0.629  11.235  23.010  0.00  0.00    +0.000 NA
ATOM      6  C   UNL     1      -0.441  12.085  21.932  0.00  0.00    +0.000 A 
ATOM      7  C   UNL     1       0.195  11.754  20.778  0.00  0.00    +0.000 A 
ATOM      8  C   UNL     1       0.698  10.420  20.674  0.00  0.00    +0.000 A 
ATOM      9  N   UNL     1       1.335   9.798  19.700  0.00  0.00    +0.000 NA
ATOM     10  C   UNL     1       0.346  12.769  19.656  0.00  0.00    +0.000 C 
ATOM     11  N   UNL     1      -0.538  13.944  19.772  0.00  0.00    +0.000 NA
ATOM     12  C   UNL     1      -0.192  14.953  18.775  0.00  0.00    +0.000 C 
ATOM     13  C   UNL     1      -0.470  14.495  21.128  0.00  0.00    +0.000 C 
ATOM     14  C   UNL     1      -1.007  13.473  22.133  0.00  0.00    +0.000 C 
ENDROOT
BRANCH   1  18
ATOM     15  C   UNL     1       3.506   5.449  17.917  0.00  0.00    +0.000 A 
ATOM     16  C   UNL     1       2.900   5.162  19.141  0.00  0.00    +0.000 A 
ATOM     17  C   UNL     1       2.240   6.164  19.861  0.00  0.00    +0.000 A 
ATOM     18  C   UNL     1       2.202   7.477  19.379  0.00  0.00    +0.000 A 
ATOM     19  C   UNL     1       2.820   7.759  18.152  0.00  0.00    +0.000 A 
ATOM     20  C   UNL     1       3.470   6.753  17.427  0.00  0.00    +0.000 A 
BRANCH  15  22
ATOM     21  C   UNL     1       3.604   3.109  17.607  0.00  0.00    +0.000 C 
ATOM     22  O   UNL     1       4.132   4.397  17.309  0.00  0.00    +0.000 OA
ENDBRANCH  15  22
ENDBRANCH   1  18
BRANCH   4  23
ATOM     23  O   UNL     1      -0.301   9.126  23.880  0.00  0.00    +0.000 OA
ATOM     24  H   UNL     1       0.449   8.529  23.996  0.00  0.00    +0.000 HD
ENDBRANCH   4  23
TORSDOF 3
ENDMDL
MODEL 8
REMARK VINA RESULT:      -6.8      3.230      8.641
REMARK  Name = 
REMARK  5 active torsions:
REMARK  status: ('A' for Active; 'I' for Inactive)
REMARK    1  A    between atoms: C_1  and  O_2
REMARK    2  A    between atoms: O_2  and  C_3
REMARK    3  A    between atoms: C_6  and  C_7
REMARK    4  A    between atoms: C_10  and  O_11
REMARK    5  A    between atoms: N_18  and  C_19
REMARK                            x       y       z     vdW  Elec       q    Type
REMARK                         _______ _______ _______ _____ _____    ______ ____
ROOT
ATOM      1  C   UNL     1       3.853   5.839  17.732  0.00  0.00    +0.000 A 
ATOM      2  C   UNL     1       3.420   5.111  18.820  0.00  0.00    +0.000 A 
ATOM      3  N   UNL     1       2.630   5.971  19.545  0.00  0.00    +0.000 N 
ATOM      4  C   UNL     1       1.916   5.809  20.729  0.00  0.00    +0.000 A 
ATOM      5  N   UNL     1       1.218   6.750  21.269  0.00  0.00    +0.000 NA
ATOM      6  C   UNL     1       1.194   7.965  20.605  0.00  0.00    +0.000 A 
ATOM      7  C   UNL     1       1.854   8.238  19.450  0.00  0.00    +0.000 A 
ATOM      8  C   UNL     1       2.625   7.178  18.877  0.00  0.00    +0.000 A 
ATOM      9  N   UNL     1       3.353   7.120  17.778  0.00  0.00    +0.000 NA
ATOM     10  C   UNL     1       1.758   9.611  18.805  0.00  0.00    +0.000 C 
ATOM     11  N   UNL     1       0.649  10.445  19.307  0.00  0.00    +0.000 NA
ATOM     12  C   UNL     1       0.747  11.806  18.786  0.00  0.00    +0.000 C 
ATOM     13  C   UNL     1       0.635  10.438  20.772  0.00  0.00    +0.000 C 
ATOM     14  C   UNL     1       0.353   9.024  21.283  0.00  0.00    +0.000 C 
ENDROOT
BRANCH   1  18
ATOM     15  C   UNL     1       6.234   4.353  14.510  0.00  0.00    +0.000 A 
ATOM     16  C   UNL     1       5.929   5.711  14.604  0.00  0.00    +0.000 A 
ATOM     17  C   UNL     1       5.171   6.200  15.674  0.00  0.00    +0.000 A 
ATOM     18  C   UNL     1       4.682   5.329  16.653  0.00  0.00    +0.000 A 
ATOM     19  C   UNL     1       4.986   3.963  16.548  0.00  0.00    +0.000 A 
ATOM     20  C   UNL     1       5.754   3.478  15.484  0.00  0.00    +0.000 A 
BRANCH  15  22
ATOM     21  C   UNL     1       6.226   3.443  12.330  0.00  0.00    +0.000 C 
ATOM     22  O   UNL     1       6.968   3.987  13.417  0.00  0.00    +0.000 OA
ENDBRANCH  15  22
ENDBRANCH   1  18
BRANCH   4  23
ATOM     23  O   UNL     1       2.007   4.584  21.293  0.00  0.00    +0.000 OA
ATOM     24  H   UNL     1       1.269   3.988  21.110  0.00  0.00    +0.000 HD
ENDBRANCH   4  23
TORSDOF 3
ENDMDL
MODEL 9
REMARK VINA RESULT:      -6.8      2.476      8.205
REMARK  Name = 
REMARK  5 active torsions:
REMARK  status: ('A' for Active; 'I' for Inactive)
REMARK    1  A    between atoms: C_1  and  O_2
REMARK    2  A    between atoms: O_2  and  C_3
REMARK    3  A    between atoms: C_6  and  C_7
REMARK    4  A    between atoms: C_10  and  O_11
REMARK    5  A    between atoms: N_18  and  C_19
REMARK                            x       y       z     vdW  Elec       q    Type
REMARK                         _______ _______ _______ _____ _____    ______ ____
ROOT
ATOM      1  C   UNL     1       1.552   8.215  20.383  0.00  0.00    +0.000 A 
ATOM      2  C   UNL     1       1.075   8.197  21.676  0.00  0.00    +0.000 A 
ATOM      3  N   UNL     1       0.548   9.449  21.890  0.00  0.00    +0.000 N 
ATOM      4  C   UNL     1      -0.077  10.023  22.993  0.00  0.00    +0.000 A 
ATOM      5  N   UNL     1      -0.514  11.237  23.007  0.00  0.00    +0.000 NA
ATOM      6  C   UNL     1      -0.345  11.972  21.844  0.00  0.00    +0.000 A 
ATOM      7  C   UNL     1       0.253  11.518  20.713  0.00  0.00    +0.000 A 
ATOM      8  C   UNL     1       0.734  10.171  20.729  0.00  0.00    +0.000 A 
ATOM      9  N   UNL     1       1.333   9.445  19.805  0.00  0.00    +0.000 NA
ATOM     10  C   UNL     1       0.386  12.413  19.492  0.00  0.00    +0.000 C 
ATOM     11  N   UNL     1      -0.477  13.609  19.514  0.00  0.00    +0.000 NA
ATOM     12  C   UNL     1      -0.146  14.508  18.412  0.00  0.00    +0.000 C 
ATOM     13  C   UNL     1      -0.362  14.291  20.806  0.00  0.00    +0.000 C 
ATOM     14  C   UNL     1      -0.885  13.382  21.921  0.00  0.00    +0.000 C 
ENDROOT
BRANCH   1  18
ATOM     15  C   UNL     1       3.280   4.908  18.302  0.00  0.00    +0.000 A 
ATOM     16  C   UNL     1       3.326   6.193  17.760  0.00  0.00    +0.000 A 
ATOM     17  C   UNL     1       2.782   7.279  18.456  0.00  0.00    +0.000 A 
ATOM     18  C   UNL     1       2.158   7.089  19.693  0.00  0.00    +0.000 A 
ATOM     19  C   UNL     1       2.109   5.793  20.228  0.00  0.00    +0.000 A 
ATOM     20  C   UNL     1       2.664   4.710  19.537  0.00  0.00    +0.000 A 
BRANCH  15  22
ATOM     21  C   UNL     1       3.380   2.601  17.805  0.00  0.00    +0.000 C 
ATOM     22  O   UNL     1       3.829   3.923  17.529  0.00  0.00    +0.000 OA
ENDBRANCH  15  22
ENDBRANCH   1  18
BRANCH   4  23
ATOM     23  O   UNL     1      -0.192   9.219  24.073  0.00  0.00    +0.000 OA
ATOM     24  H   UNL     1      -0.424   8.301  23.883  0.00  0.00    +0.000 HD
ENDBRANCH   4  23
TORSDOF 3
ENDMDL
