MODEL 1
REMARK VINA RESULT:      -7.8      0.000      0.000
REMARK  Name = 
REMARK  9 active torsions:
REMARK  status: ('A' for Active; 'I' for Inactive)
REMARK    1  A    between atoms: C_1  and  C_2
REMARK    2  A    between atoms: C_2  and  C_3
REMARK    3  A    between atoms: C_3  and  N_4
REMARK    4  A    between atoms: C_9  and  C_10
REMARK    5  A    between atoms: C_13  and  S_14
REMARK    6  A    between atoms: S_14  and  O_17
REMARK    7  A    between atoms: N_22  and  C_23
REMARK    8  A    between atoms: C_23  and  C_24
REMARK    9  A    between atoms: C_24  and  C_25
REMARK                            x       y       z     vdW  Elec       q    Type
REMARK                         _______ _______ _______ _____ _____    ______ ____
ROOT
ATOM      1  N   UNL     1       4.517   4.842  17.943  0.00  0.00    +0.000 N 
ATOM      2  C   UNL     1       4.179   6.206  17.829  0.00  0.00    +0.000 A 
ATOM      3  O   UNL     1       4.675   6.975  17.013  0.00  0.00    +0.000 OA
ATOM      4  C   UNL     1       3.198   6.630  18.802  0.00  0.00    +0.000 A 
ATOM      5  N   UNL     1       2.634   7.870  18.980  0.00  0.00    +0.000 NA
ATOM      6  C   UNL     1       1.838   7.759  20.032  0.00  0.00    +0.000 A 
ATOM      7  N   UNL     1       1.857   6.462  20.507  0.00  0.00    +0.000 N 
ATOM      8  C   UNL     1       2.724   5.750  19.733  0.00  0.00    +0.000 A 
ATOM      9  N   UNL     1       3.100   4.430  19.854  0.00  0.00    +0.000 N 
ATOM     10  C   UNL     1       4.068   3.954  18.945  0.00  0.00    +0.000 A 
ATOM     11  O   UNL     1       4.511   2.807  19.039  0.00  0.00    +0.000 OA
ATOM     12  H   UNL     1       1.317   6.119  21.287  0.00  0.00    +0.000 HD
ENDROOT
BRANCH   6  13
ATOM     13  C   UNL     1       1.020   8.830  20.605  0.00  0.00    +0.000 A 
ATOM     14  C   UNL     1       0.589   8.723  21.937  0.00  0.00    +0.000 A 
ATOM     15  C   UNL     1      -0.184   9.726  22.527  0.00  0.00    +0.000 A 
ATOM     16  C   UNL     1      -0.545  10.841  21.771  0.00  0.00    +0.000 A 
ATOM     17  C   UNL     1      -0.138  10.963  20.439  0.00  0.00    +0.000 A 
ATOM     18  C   UNL     1       0.643   9.959  19.860  0.00  0.00    +0.000 A 
BRANCH  16  19
ATOM     19  S   UNL     1      -1.545  12.121  22.480  0.00  0.00    +0.000 S 
ATOM     20  O   UNL     1      -2.089  12.923  21.404  0.00  0.00    +0.000 OA
ATOM     21  O   UNL     1      -2.381  11.518  23.491  0.00  0.00    +0.000 OA
BRANCH  19  22
ATOM     22  O   UNL     1      -0.465  13.072  23.211  0.00  0.00    +0.000 OA
ATOM     23  H   UNL     1      -0.380  13.890  22.678  0.00  0.00    +0.000 HD
ENDBRANCH  19  22
ENDBRANCH  16  19
ENDBRANCH   6  13
BRANCH   1  24
ATOM     24  C   UNL     1       5.548   4.343  17.032  0.00  0.00    +0.000 C 
BRANCH  24  26
ATOM     25  C   UNL     1       6.101   4.077  14.551  0.00  0.00    +0.000 C 
ATOM     26  C   UNL     1       5.039   3.973  15.633  0.00  0.00    +0.000 C 
ENDBRANCH  24  26
ENDBRANCH   1  24
BRANCH   9  27
ATOM     27  C   UNL     1       2.605   3.532  20.898  0.00  0.00    +0.000 C 
BRANCH  27  28
ATOM     28  C   UNL     1       1.153   3.084  20.702  0.00  0.00    +0.000 C 
ATOM     29  C   UNL     1       0.852   2.549  19.310  0.00  0.00    +0.000 C 
ENDBRANCH  27  28
ENDBRANCH   9  27
TORSDOF 7
ENDMDL
MODEL 2
REMARK VINA RESULT:      -7.8      0.571      1.067
REMARK  Name = 
REMARK  9 active torsions:
REMARK  status: ('A' for Active; 'I' for Inactive)
REMARK    1  A    between atoms: C_1  and  C_2
REMARK    2  A    between atoms: C_2  and  C_3
REMARK    3  A    between atoms: C_3  and  N_4
REMARK    4  A    between atoms: C_9  and  C_10
REMARK    5  A    between atoms: C_13  and  S_14
REMARK    6  A    between atoms: S_14  and  O_17
REMARK    7  A    between atoms: N_22  and  C_23
REMARK    8  A    between atoms: C_23  and  C_24
REMARK    9  A    between atoms: C_24  and  C_25
REMARK                            x       y       z     vdW  Elec       q    Type
REMARK                         _______ _______ _______ _____ _____    ______ ____
ROOT
ATOM      1  N   UNL     1       4.165   4.665  18.038  0.00  0.00    +0.000 N 
ATOM      2  C   UNL     1       3.801   6.010  17.827  0.00  0.00    +0.000 A 
ATOM      3  O   UNL     1       4.186   6.691  16.883  0.00  0.00    +0.000 OA
ATOM      4  C   UNL     1       2.940   6.533  18.863  0.00  0.00    +0.000 A 
ATOM      5  N   UNL     1       2.387   7.787  18.981  0.00  0.00    +0.000 NA
ATOM      6  C   UNL     1       1.725   7.785  20.127  0.00  0.00    +0.000 A 
ATOM      7  N   UNL     1       1.817   6.544  20.727  0.00  0.00    +0.000 N 
ATOM      8  C   UNL     1       2.591   5.755  19.930  0.00  0.00    +0.000 A 
ATOM      9  N   UNL     1       2.994   4.453  20.139  0.00  0.00    +0.000 N 
ATOM     10  C   UNL     1       3.850   3.886  19.173  0.00  0.00    +0.000 A 
ATOM     11  O   UNL     1       4.314   2.753  19.329  0.00  0.00    +0.000 OA
ATOM     12  H   UNL     1       1.379   6.283  21.597  0.00  0.00    +0.000 HD
ENDROOT
BRANCH   6  13
ATOM     13  C   UNL     1       0.971   8.911  20.683  0.00  0.00    +0.000 A 
ATOM     14  C   UNL     1       0.561   8.863  22.025  0.00  0.00    +0.000 A 
ATOM     15  C   UNL     1      -0.151   9.919  22.598  0.00  0.00    +0.000 A 
ATOM     16  C   UNL     1      -0.473  11.027  21.815  0.00  0.00    +0.000 A 
ATOM     17  C   UNL     1      -0.087  11.091  20.474  0.00  0.00    +0.000 A 
ATOM     18  C   UNL     1       0.634  10.034  19.910  0.00  0.00    +0.000 A 
BRANCH  16  19
ATOM     19  S   UNL     1      -1.397  12.375  22.503  0.00  0.00    +0.000 S 
ATOM     20  O   UNL     1      -0.525  13.124  23.382  0.00  0.00    +0.000 OA
ATOM     21  O   UNL     1      -2.131  13.000  21.428  0.00  0.00    +0.000 OA
BRANCH  19  22
ATOM     22  O   UNL     1      -2.452  11.640  23.480  0.00  0.00    +0.000 OA
ATOM     23  H   UNL     1      -1.948  11.025  24.052  0.00  0.00    +0.000 HD
ENDBRANCH  19  22
ENDBRANCH  16  19
ENDBRANCH   6  13
BRANCH   1  24
ATOM     24  C   UNL     1       5.084   4.073  17.065  0.00  0.00    +0.000 C 
BRANCH  24  26
ATOM     25  C   UNL     1       7.173   4.982  15.905  0.00  0.00    +0.000 C 
ATOM     26  C   UNL     1       6.544   4.523  17.210  0.00  0.00    +0.000 C 
ENDBRANCH  24  26
ENDBRANCH   1  24
BRANCH   9  27
ATOM     27  C   UNL     1       2.638   3.668  21.322  0.00  0.00    +0.000 C 
BRANCH  27  28
ATOM     28  C   UNL     1       1.357   2.843  21.165  0.00  0.00    +0.000 C 
ATOM     29  C   UNL     1       0.658   3.035  19.827  0.00  0.00    +0.000 C 
ENDBRANCH  27  28
ENDBRANCH   9  27
TORSDOF 7
ENDMDL
MODEL 3
REMARK VINA RESULT:      -7.7      0.408      1.311
REMARK  Name = 
REMARK  9 active torsions:
REMARK  status: ('A' for Active; 'I' for Inactive)
REMARK    1  A    between atoms: C_1  and  C_2
REMARK    2  A    between atoms: C_2  and  C_3
REMARK    3  A    between atoms: C_3  and  N_4
REMARK    4  A    between atoms: C_9  and  C_10
REMARK    5  A    between atoms: C_13  and  S_14
REMARK    6  A    between atoms: S_14  and  O_17
REMARK    7  A    between atoms: N_22  and  C_23
REMARK    8  A    between atoms: C_23  and  C_24
REMARK    9  A    between atoms: C_24  and  C_25
REMARK                            x       y       z     vdW  Elec       q    Type
REMARK                         _______ _______ _______ _____ _____    ______ ____
ROOT
ATOM      1  N   UNL     1       4.350   4.882  18.209  0.00  0.00    +0.000 N 
ATOM      2  C   UNL     1       3.952   6.229  18.089  0.00  0.00    +0.000 A 
ATOM      3  O   UNL     1       4.377   7.002  17.237  0.00  0.00    +0.000 OA
ATOM      4  C   UNL     1       3.003   6.632  19.101  0.00  0.00    +0.000 A 
ATOM      5  N   UNL     1       2.398   7.853  19.285  0.00  0.00    +0.000 NA
ATOM      6  C   UNL     1       1.659   7.730  20.376  0.00  0.00    +0.000 A 
ATOM      7  N   UNL     1       1.753   6.444  20.872  0.00  0.00    +0.000 N 
ATOM      8  C   UNL     1       2.609   5.752  20.069  0.00  0.00    +0.000 A 
ATOM      9  N   UNL     1       3.043   4.450  20.193  0.00  0.00    +0.000 N 
ATOM     10  C   UNL     1       3.985   3.996  19.247  0.00  0.00    +0.000 A 
ATOM     11  O   UNL     1       4.478   2.869  19.338  0.00  0.00    +0.000 OA
ATOM     12  H   UNL     1       1.265   6.094  21.683  0.00  0.00    +0.000 HD
ENDROOT
BRANCH   6  13
ATOM     13  C   UNL     1       0.827   8.779  20.971  0.00  0.00    +0.000 A 
ATOM     14  C   UNL     1       0.315   9.794  20.147  0.00  0.00    +0.000 A 
ATOM     15  C   UNL     1      -0.491  10.809  20.670  0.00  0.00    +0.000 A 
ATOM     16  C   UNL     1      -0.773  10.817  22.036  0.00  0.00    +0.000 A 
ATOM     17  C   UNL     1      -0.264   9.824  22.878  0.00  0.00    +0.000 A 
ATOM     18  C   UNL     1       0.534   8.807  22.343  0.00  0.00    +0.000 A 
BRANCH  16  19
ATOM     19  S   UNL     1      -1.772  12.102  22.739  0.00  0.00    +0.000 S 
ATOM     20  O   UNL     1      -2.819  11.486  23.527  0.00  0.00    +0.000 OA
ATOM     21  O   UNL     1      -0.884  13.103  23.282  0.00  0.00    +0.000 OA
BRANCH  19  22
ATOM     22  O   UNL     1      -2.524  12.730  21.455  0.00  0.00    +0.000 OA
ATOM     23  H   UNL     1      -2.242  12.220  20.668  0.00  0.00    +0.000 HD
ENDBRANCH  19  22
ENDBRANCH  16  19
ENDBRANCH   6  13
BRANCH   1  24
ATOM     24  C   UNL     1       5.355   4.407  17.258  0.00  0.00    +0.000 C 
BRANCH  24  26
ATOM     25  C   UNL     1       5.698   4.366  14.725  0.00  0.00    +0.000 C 
ATOM     26  C   UNL     1       4.795   3.995  15.889  0.00  0.00    +0.000 C 
ENDBRANCH  24  26
ENDBRANCH   1  24
BRANCH   9  27
ATOM     27  C   UNL     1       2.635   3.553  21.276  0.00  0.00    +0.000 C 
BRANCH  27  28
ATOM     28  C   UNL     1       1.500   2.595  20.900  0.00  0.00    +0.000 C 
ATOM     29  C   UNL     1       0.729   3.006  19.655  0.00  0.00    +0.000 C 
ENDBRANCH  27  28
ENDBRANCH   9  27
TORSDOF 7
ENDMDL
MODEL 4
REMARK VINA RESULT:      -7.6      1.287      1.538
REMARK  Name = 
REMARK  9 active torsions:
REMARK  status: ('A' for Active; 'I' for Inactive)
REMARK    1  A    between atoms: C_1  and  C_2
REMARK    2  A    between atoms: C_2  and  C_3
REMARK    3  A    between atoms: C_3  and  N_4
REMARK    4  A    between atoms: C_9  and  C_10
REMARK    5  A    between atoms: C_13  and  S_14
REMARK    6  A    between atoms: S_14  and  O_17
REMARK    7  A    between atoms: N_22  and  C_23
REMARK    8  A    between atoms: C_23  and  C_24
REMARK    9  A    between atoms: C_24  and  C_25
REMARK                            x       y       z     vdW  Elec       q    Type
REMARK                         _______ _______ _______ _____ _____    ______ ____
ROOT
ATOM      1  N   UNL     1       4.908   4.460  16.534  0.00  0.00    +0.000 N 
ATOM      2  C   UNL     1       4.790   5.857  16.682  0.00  0.00    +0.000 A 
ATOM      3  O   UNL     1       5.497   6.675  16.104  0.00  0.00    +0.000 OA
ATOM      4  C   UNL     1       3.760   6.243  17.619  0.00  0.00    +0.000 A 
ATOM      5  N   UNL     1       3.363   7.502  18.001  0.00  0.00    +0.000 NA
ATOM      6  C   UNL     1       2.426   7.324  18.919  0.00  0.00    +0.000 A 
ATOM      7  N   UNL     1       2.193   5.976  19.105  0.00  0.00    +0.000 N 
ATOM      8  C   UNL     1       3.042   5.292  18.288  0.00  0.00    +0.000 A 
ATOM      9  N   UNL     1       3.203   3.929  18.160  0.00  0.00    +0.000 N 
ATOM     10  C   UNL     1       4.204   3.483  17.273  0.00  0.00    +0.000 A 
ATOM     11  O   UNL     1       4.460   2.281  17.163  0.00  0.00    +0.000 OA
ATOM     12  H   UNL     1       1.510   5.583  19.735  0.00  0.00    +0.000 HD
ENDROOT
BRANCH   6  13
ATOM     13  C   UNL     1       1.703   8.386  19.623  0.00  0.00    +0.000 A 
ATOM     14  C   UNL     1       1.467   8.255  21.001  0.00  0.00    +0.000 A 
ATOM     15  C   UNL     1       0.791   9.248  21.714  0.00  0.00    +0.000 A 
ATOM     16  C   UNL     1       0.330  10.377  21.038  0.00  0.00    +0.000 A 
ATOM     17  C   UNL     1       0.543  10.524  19.664  0.00  0.00    +0.000 A 
ATOM     18  C   UNL     1       1.228   9.529  18.960  0.00  0.00    +0.000 A 
BRANCH  16  19
ATOM     19  S   UNL     1      -0.553  11.646  21.906  0.00  0.00    +0.000 S 
ATOM     20  O   UNL     1      -1.707  12.019  21.117  0.00  0.00    +0.000 OA
ATOM     21  O   UNL     1      -0.660  11.239  23.288  0.00  0.00    +0.000 OA
BRANCH  19  22
ATOM     22  O   UNL     1       0.444  12.913  21.823  0.00  0.00    +0.000 OA
ATOM     23  H   UNL     1       1.283  12.659  22.259  0.00  0.00    +0.000 HD
ENDBRANCH  19  22
ENDBRANCH  16  19
ENDBRANCH   6  13
BRANCH   1  24
ATOM     24  C   UNL     1       5.968   3.981  15.647  0.00  0.00    +0.000 C 
BRANCH  24  26
ATOM     25  C   UNL     1       6.725   4.279  13.223  0.00  0.00    +0.000 C 
ATOM     26  C   UNL     1       5.582   3.928  14.162  0.00  0.00    +0.000 C 
ENDBRANCH  24  26
ENDBRANCH   1  24
BRANCH   9  27
ATOM     27  C   UNL     1       2.448   2.942  18.933  0.00  0.00    +0.000 C 
BRANCH  27  28
ATOM     28  C   UNL     1       2.961   2.739  20.362  0.00  0.00    +0.000 C 
ATOM     29  C   UNL     1       1.889   2.885  21.431  0.00  0.00    +0.000 C 
ENDBRANCH  27  28
ENDBRANCH   9  27
TORSDOF 7
ENDMDL
MODEL 5
REMARK VINA RESULT:      -7.6      1.252      1.653
REMARK  Name = 
REMARK  9 active torsions:
REMARK  status: ('A' for Active; 'I' for Inactive)
REMARK    1  A    between atoms: C_1  and  C_2
REMARK    2  A    between atoms: C_2  and  C_3
REMARK    3  A    between atoms: C_3  and  N_4
REMARK    4  A    between atoms: C_9  and  C_10
REMARK    5  A    between atoms: C_13  and  S_14
REMARK    6  A    between atoms: S_14  and  O_17
REMARK    7  A    between atoms: N_22  and  C_23
REMARK    8  A    between atoms: C_23  and  C_24
REMARK    9  A    between atoms: C_24  and  C_25
REMARK                            x       y       z     vdW  Elec       q    Type
REMARK                         _______ _______ _______ _____ _____    ______ ____
ROOT
ATOM      1  N   UNL     1       5.144   5.143  17.486  0.00  0.00    +0.000 N 
ATOM      2  C   UNL     1       4.702   6.420  17.083  0.00  0.00    +0.000 A 
ATOM      3  O   UNL     1       5.180   7.054  16.149  0.00  0.00    +0.000 OA
ATOM      4  C   UNL     1       3.633   6.936  17.908  0.00  0.00    +0.000 A 
ATOM      5  N   UNL     1       2.959   8.130  17.807  0.00  0.00    +0.000 NA
ATOM      6  C   UNL     1       2.114   8.156  18.826  0.00  0.00    +0.000 A 
ATOM      7  N   UNL     1       2.212   6.987  19.555  0.00  0.00    +0.000 N 
ATOM      8  C   UNL     1       3.179   6.219  18.979  0.00  0.00    +0.000 A 
ATOM      9  N   UNL     1       3.655   4.990  19.381  0.00  0.00    +0.000 N 
ATOM     10  C   UNL     1       4.711   4.435  18.628  0.00  0.00    +0.000 A 
ATOM     11  O   UNL     1       5.241   3.375  18.972  0.00  0.00    +0.000 OA
ATOM     12  H   UNL     1       1.658   6.757  20.365  0.00  0.00    +0.000 HD
ENDROOT
BRANCH   6  13
ATOM     13  C   UNL     1       1.178   9.240  19.135  0.00  0.00    +0.000 A 
ATOM     14  C   UNL     1       0.632   9.323  20.426  0.00  0.00    +0.000 A 
ATOM     15  C   UNL     1      -0.256  10.346  20.767  0.00  0.00    +0.000 A 
ATOM     16  C   UNL     1      -0.616  11.285  19.801  0.00  0.00    +0.000 A 
ATOM     17  C   UNL     1      -0.095  11.215  18.506  0.00  0.00    +0.000 A 
ATOM     18  C   UNL     1       0.801  10.193  18.176  0.00  0.00    +0.000 A 
BRANCH  16  19
ATOM     19  S   UNL     1      -1.759  12.583  20.192  0.00  0.00    +0.000 S 
ATOM     20  O   UNL     1      -3.076  12.179  19.748  0.00  0.00    +0.000 OA
ATOM     21  O   UNL     1      -1.497  13.006  21.548  0.00  0.00    +0.000 OA
BRANCH  19  22
ATOM     22  O   UNL     1      -1.323  13.774  19.193  0.00  0.00    +0.000 OA
ATOM     23  H   UNL     1      -0.674  14.335  19.666  0.00  0.00    +0.000 HD
ENDBRANCH  19  22
ENDBRANCH  16  19
ENDBRANCH   6  13
BRANCH   1  24
ATOM     24  C   UNL     1       6.264   4.570  16.739  0.00  0.00    +0.000 C 
BRANCH  24  26
ATOM     25  C   UNL     1       6.463   4.271  14.208  0.00  0.00    +0.000 C 
ATOM     26  C   UNL     1       5.859   3.756  15.504  0.00  0.00    +0.000 C 
ENDBRANCH  24  26
ENDBRANCH   1  24
BRANCH   9  27
ATOM     27  C   UNL     1       3.175   4.275  20.565  0.00  0.00    +0.000 C 
BRANCH  27  28
ATOM     28  C   UNL     1       1.925   3.423  20.318  0.00  0.00    +0.000 C 
ATOM     29  C   UNL     1       1.419   2.694  21.554  0.00  0.00    +0.000 C 
ENDBRANCH  27  28
ENDBRANCH   9  27
TORSDOF 7
ENDMDL
MODEL 6
REMARK VINA RESULT:      -7.5      1.138      1.757
REMARK  Name = 
REMARK  9 active torsions:
REMARK  status: ('A' for Active; 'I' for Inactive)
REMARK    1  A    between atoms: C_1  and  C_2
REMARK    2  A    between atoms: C_2  and  C_3
REMARK    3  A    between atoms: C_3  and  N_4
REMARK    4  A    between atoms: C_9  and  C_10
REMARK    5  A    between atoms: C_13  and  S_14
REMARK    6  A    between atoms: S_14  and  O_17
REMARK    7  A    between atoms: N_22  and  C_23
REMARK    8  A    between atoms: C_23  and  C_24
REMARK    9  A    between atoms: C_24  and  C_25
REMARK                            x       y       z     vdW  Elec       q    Type
REMARK                         _______ _______ _______ _____ _____    ______ ____
ROOT
ATOM      1  N   UNL     1       4.930   5.052  17.810  0.00  0.00    +0.000 N 
ATOM      2  C   UNL     1       4.536   6.341  17.399  0.00  0.00    +0.000 A 
ATOM      3  O   UNL     1       5.056   6.962  16.479  0.00  0.00    +0.000 OA
ATOM      4  C   UNL     1       3.461   6.886  18.197  0.00  0.00    +0.000 A 
ATOM      5  N   UNL     1       2.824   8.099  18.080  0.00  0.00    +0.000 NA
ATOM      6  C   UNL     1       1.953   8.148  19.076  0.00  0.00    +0.000 A 
ATOM      7  N   UNL     1       1.999   6.976  19.805  0.00  0.00    +0.000 N 
ATOM      8  C   UNL     1       2.958   6.181  19.253  0.00  0.00    +0.000 A 
ATOM      9  N   UNL     1       3.387   4.938  19.665  0.00  0.00    +0.000 N 
ATOM     10  C   UNL     1       4.446   4.354  18.940  0.00  0.00    +0.000 A 
ATOM     11  O   UNL     1       4.937   3.279  19.295  0.00  0.00    +0.000 OA
ATOM     12  H   UNL     1       1.416   6.761  20.600  0.00  0.00    +0.000 HD
ENDROOT
BRANCH   6  13
ATOM     13  C   UNL     1       1.041   9.258  19.362  0.00  0.00    +0.000 A 
ATOM     14  C   UNL     1       0.430   9.934  18.294  0.00  0.00    +0.000 A 
ATOM     15  C   UNL     1      -0.455  10.991  18.522  0.00  0.00    +0.000 A 
ATOM     16  C   UNL     1      -0.717  11.388  19.833  0.00  0.00    +0.000 A 
ATOM     17  C   UNL     1      -0.111  10.738  20.912  0.00  0.00    +0.000 A 
ATOM     18  C   UNL     1       0.766   9.675  20.674  0.00  0.00    +0.000 A 
BRANCH  16  19
ATOM     19  S   UNL     1      -1.815  12.741  20.159  0.00  0.00    +0.000 S 
ATOM     20  O   UNL     1      -3.144  12.363  19.727  0.00  0.00    +0.000 OA
ATOM     21  O   UNL     1      -1.544  13.215  21.496  0.00  0.00    +0.000 OA
BRANCH  19  22
ATOM     22  O   UNL     1      -1.334  13.869  19.110  0.00  0.00    +0.000 OA
ATOM     23  H   UNL     1      -0.639  14.404  19.547  0.00  0.00    +0.000 HD
ENDBRANCH  19  22
ENDBRANCH  16  19
ENDBRANCH   6  13
BRANCH   1  24
ATOM     24  C   UNL     1       6.053   4.448  17.093  0.00  0.00    +0.000 C 
BRANCH  24  26
ATOM     25  C   UNL     1       6.406   4.212  14.572  0.00  0.00    +0.000 C 
ATOM     26  C   UNL     1       5.666   3.714  15.802  0.00  0.00    +0.000 C 
ENDBRANCH  24  26
ENDBRANCH   1  24
BRANCH   9  27
ATOM     27  C   UNL     1       2.856   4.236  20.834  0.00  0.00    +0.000 C 
BRANCH  27  28
ATOM     28  C   UNL     1       1.379   3.845  20.712  0.00  0.00    +0.000 C 
ATOM     29  C   UNL     1       1.101   2.812  19.630  0.00  0.00    +0.000 C 
ENDBRANCH  27  28
ENDBRANCH   9  27
TORSDOF 7
ENDMDL
MODEL 7
REMARK VINA RESULT:      -7.5      0.536      1.320
REMARK  Name = 
REMARK  9 active torsions:
REMARK  status: ('A' for Active; 'I' for Inactive)
REMARK    1  A    between atoms: C_1  and  C_2
REMARK    2  A    between atoms: C_2  and  C_3
REMARK    3  A    between atoms: C_3  and  N_4
REMARK    4  A    between atoms: C_9  and  C_10
REMARK    5  A    between atoms: C_13  and  S_14
REMARK    6  A    between atoms: S_14  and  O_17
REMARK    7  A    between atoms: N_22  and  C_23
REMARK    8  A    between atoms: C_23  and  C_24
REMARK    9  A    between atoms: C_24  and  C_25
REMARK                            x       y       z     vdW  Elec       q    Type
REMARK                         _______ _______ _______ _____ _____    ______ ____
ROOT
ATOM      1  N   UNL     1       4.412   4.845  17.752  0.00  0.00    +0.000 N 
ATOM      2  C   UNL     1       4.027   6.196  17.634  0.00  0.00    +0.000 A 
ATOM      3  O   UNL     1       4.435   6.958  16.765  0.00  0.00    +0.000 OA
ATOM      4  C   UNL     1       3.113   6.617  18.672  0.00  0.00    +0.000 A 
ATOM      5  N   UNL     1       2.529   7.846  18.866  0.00  0.00    +0.000 NA
ATOM      6  C   UNL     1       1.820   7.739  19.979  0.00  0.00    +0.000 A 
ATOM      7  N   UNL     1       1.915   6.455  20.481  0.00  0.00    +0.000 N 
ATOM      8  C   UNL     1       2.738   5.748  19.657  0.00  0.00    +0.000 A 
ATOM      9  N   UNL     1       3.161   4.442  19.778  0.00  0.00    +0.000 N 
ATOM     10  C   UNL     1       4.068   3.971  18.806  0.00  0.00    +0.000 A 
ATOM     11  O   UNL     1       4.551   2.838  18.891  0.00  0.00    +0.000 OA
ATOM     12  H   UNL     1       1.448   6.117  21.308  0.00  0.00    +0.000 HD
ENDROOT
BRANCH   6  13
ATOM     13  C   UNL     1       1.019   8.801  20.591  0.00  0.00    +0.000 A 
ATOM     14  C   UNL     1       0.739   9.960  19.849  0.00  0.00    +0.000 A 
ATOM     15  C   UNL     1      -0.030  10.994  20.389  0.00  0.00    +0.000 A 
ATOM     16  C   UNL     1      -0.509  10.875  21.694  0.00  0.00    +0.000 A 
ATOM     17  C   UNL     1      -0.233   9.736  22.456  0.00  0.00    +0.000 A 
ATOM     18  C   UNL     1       0.530   8.702  21.903  0.00  0.00    +0.000 A 
BRANCH  16  19
ATOM     19  S   UNL     1      -1.467  12.177  22.420  0.00  0.00    +0.000 S 
ATOM     20  O   UNL     1      -1.964  13.025  21.358  0.00  0.00    +0.000 OA
ATOM     21  O   UNL     1      -2.341  11.583  23.406  0.00  0.00    +0.000 OA
BRANCH  19  22
ATOM     22  O   UNL     1      -0.361  13.066  23.189  0.00  0.00    +0.000 OA
ATOM     23  H   UNL     1      -0.043  13.750  22.563  0.00  0.00    +0.000 HD
ENDBRANCH  19  22
ENDBRANCH  16  19
ENDBRANCH   6  13
BRANCH   1  24
ATOM     24  C   UNL     1       5.383   4.352  16.774  0.00  0.00    +0.000 C 
BRANCH  24  26
ATOM     25  C   UNL     1       7.182   5.111  18.425  0.00  0.00    +0.000 C 
ATOM     26  C   UNL     1       6.811   4.880  16.969  0.00  0.00    +0.000 C 
ENDBRANCH  24  26
ENDBRANCH   1  24
BRANCH   9  27
ATOM     27  C   UNL     1       2.775   3.557  20.878  0.00  0.00    +0.000 C 
BRANCH  27  28
ATOM     28  C   UNL     1       1.307   3.119  20.844  0.00  0.00    +0.000 C 
ATOM     29  C   UNL     1       0.842   2.616  19.486  0.00  0.00    +0.000 C 
ENDBRANCH  27  28
ENDBRANCH   9  27
TORSDOF 7
ENDMDL
MODEL 8
REMARK VINA RESULT:      -7.5      0.771      1.620
REMARK  Name = 
REMARK  9 active torsions:
REMARK  status: ('A' for Active; 'I' for Inactive)
REMARK    1  A    between atoms: C_1  and  C_2
REMARK    2  A    between atoms: C_2  and  C_3
REMARK    3  A    between atoms: C_3  and  N_4
REMARK    4  A    between atoms: C_9  and  C_10
REMARK    5  A    between atoms: C_13  and  S_14
REMARK    6  A    between atoms: S_14  and  O_17
REMARK    7  A    between atoms: N_22  and  C_23
REMARK    8  A    between atoms: C_23  and  C_24
REMARK    9  A    between atoms: C_24  and  C_25
REMARK                            x       y       z     vdW  Elec       q    Type
REMARK                         _______ _______ _______ _____ _____    ______ ____
ROOT
ATOM      1  N   UNL     1       4.542   4.638  17.279  0.00  0.00    +0.000 N 
ATOM      2  C   UNL     1       4.220   6.009  17.218  0.00  0.00    +0.000 A 
ATOM      3  O   UNL     1       4.662   6.786  16.381  0.00  0.00    +0.000 OA
ATOM      4  C   UNL     1       3.328   6.429  18.275  0.00  0.00    +0.000 A 
ATOM      5  N   UNL     1       2.802   7.675  18.522  0.00  0.00    +0.000 NA
ATOM      6  C   UNL     1       2.091   7.554  19.632  0.00  0.00    +0.000 A 
ATOM      7  N   UNL     1       2.125   6.248  20.080  0.00  0.00    +0.000 N 
ATOM      8  C   UNL     1       2.914   5.538  19.225  0.00  0.00    +0.000 A 
ATOM      9  N   UNL     1       3.275   4.209  19.290  0.00  0.00    +0.000 N 
ATOM     10  C   UNL     1       4.158   3.737  18.297  0.00  0.00    +0.000 A 
ATOM     11  O   UNL     1       4.587   2.581  18.333  0.00  0.00    +0.000 OA
ATOM     12  H   UNL     1       1.644   5.897  20.893  0.00  0.00    +0.000 HD
ENDROOT
BRANCH   6  13
ATOM     13  C   UNL     1       1.341   8.627  20.290  0.00  0.00    +0.000 A 
ATOM     14  C   UNL     1       0.956   9.751  19.541  0.00  0.00    +0.000 A 
ATOM     15  C   UNL     1       0.231  10.792  20.126  0.00  0.00    +0.000 A 
ATOM     16  C   UNL     1      -0.097  10.716  21.479  0.00  0.00    +0.000 A 
ATOM     17  C   UNL     1       0.285   9.613  22.248  0.00  0.00    +0.000 A 
ATOM     18  C   UNL     1       1.003   8.571  21.651  0.00  0.00    +0.000 A 
BRANCH  16  19
ATOM     19  S   UNL     1      -0.996  12.030  22.260  0.00  0.00    +0.000 S 
ATOM     20  O   UNL     1      -1.726  11.480  23.382  0.00  0.00    +0.000 OA
ATOM     21  O   UNL     1      -0.099  13.154  22.400  0.00  0.00    +0.000 OA
BRANCH  19  22
ATOM     22  O   UNL     1      -2.122  12.409  21.167  0.00  0.00    +0.000 OA
ATOM     23  H   UNL     1      -2.954  12.592  21.650  0.00  0.00    +0.000 HD
ENDBRANCH  19  22
ENDBRANCH  16  19
ENDBRANCH   6  13
BRANCH   1  24
ATOM     24  C   UNL     1       5.487   4.141  16.279  0.00  0.00    +0.000 C 
BRANCH  24  26
ATOM     25  C   UNL     1       7.518   4.565  17.772  0.00  0.00    +0.000 C 
ATOM     26  C   UNL     1       6.902   4.724  16.392  0.00  0.00    +0.000 C 
ENDBRANCH  24  26
ENDBRANCH   1  24
BRANCH   9  27
ATOM     27  C   UNL     1       2.849   3.298  20.353  0.00  0.00    +0.000 C 
BRANCH  27  28
ATOM     28  C   UNL     1       1.354   2.965  20.331  0.00  0.00    +0.000 C 
ATOM     29  C   UNL     1       0.866   2.394  19.009  0.00  0.00    +0.000 C 
ENDBRANCH  27  28
ENDBRANCH   9  27
TORSDOF 7
ENDMDL
MODEL 9
REMARK VINA RESULT:      -7.5      3.375      9.150
REMARK  Name = 
REMARK  9 active torsions:
REMARK  status: ('A' for Active; 'I' for Inactive)
REMARK    1  A    between atoms: C_1  and  C_2
REMARK    2  A    between atoms: C_2  and  C_3
REMARK    3  A    between atoms: C_3  and  N_4
REMARK    4  A    between atoms: C_9  and  C_10
REMARK    5  A    between atoms: C_13  and  S_14
REMARK    6  A    between atoms: S_14  and  O_17
REMARK    7  A    between atoms: N_22  and  C_23
REMARK    8  A    between atoms: C_23  and  C_24
REMARK    9  A    between atoms: C_24  and  C_25
REMARK                            x       y       z     vdW  Elec       q    Type
REMARK                         _______ _______ _______ _____ _____    ______ ____
ROOT
ATOM      1  N   UNL     1      -1.021  11.565  22.045  0.00  0.00    +0.000 N 
ATOM      2  C   UNL     1      -0.187  10.473  22.360  0.00  0.00    +0.000 A 
ATOM      3  O   UNL     1       0.093  10.125  23.501  0.00  0.00    +0.000 OA
ATOM      4  C   UNL     1       0.343   9.809  21.191  0.00  0.00    +0.000 A 
ATOM      5  N   UNL     1       1.174   8.717  21.117  0.00  0.00    +0.000 NA
ATOM      6  C   UNL     1       1.414   8.530  19.829  0.00  0.00    +0.000 A 
ATOM      7  N   UNL     1       0.725   9.463  19.077  0.00  0.00    +0.000 N 
ATOM      8  C   UNL     1       0.054  10.276  19.940  0.00  0.00    +0.000 A 
ATOM      9  N   UNL     1      -0.731  11.372  19.655  0.00  0.00    +0.000 N 
ATOM     10  C   UNL     1      -1.268  12.077  20.752  0.00  0.00    +0.000 A 
ATOM     11  O   UNL     1      -1.916  13.113  20.580  0.00  0.00    +0.000 OA
ATOM     12  H   UNL     1       0.727   9.516  18.070  0.00  0.00    +0.000 HD
ENDROOT
BRANCH   6  13
ATOM     13  C   UNL     1       2.256   7.477  19.257  0.00  0.00    +0.000 A 
ATOM     14  C   UNL     1       2.352   6.243  19.921  0.00  0.00    +0.000 A 
ATOM     15  C   UNL     1       3.136   5.207  19.406  0.00  0.00    +0.000 A 
ATOM     16  C   UNL     1       3.845   5.414  18.223  0.00  0.00    +0.000 A 
ATOM     17  C   UNL     1       3.775   6.638  17.551  0.00  0.00    +0.000 A 
ATOM     18  C   UNL     1       2.981   7.666  18.070  0.00  0.00    +0.000 A 
BRANCH  16  19
ATOM     19  S   UNL     1       4.868   4.130  17.553  0.00  0.00    +0.000 S 
ATOM     20  O   UNL     1       4.101   2.903  17.528  0.00  0.00    +0.000 OA
ATOM     21  O   UNL     1       5.521   4.656  16.377  0.00  0.00    +0.000 OA
BRANCH  19  22
ATOM     22  O   UNL     1       5.982   3.909  18.700  0.00  0.00    +0.000 OA
ATOM     23  H   UNL     1       6.558   3.169  18.416  0.00  0.00    +0.000 HD
ENDBRANCH  19  22
ENDBRANCH  16  19
ENDBRANCH   6  13
BRANCH   1  24
ATOM     24  C   UNL     1      -1.555  12.330  23.172  0.00  0.00    +0.000 C 
BRANCH  24  26
ATOM     25  C   UNL     1      -3.793  13.146  24.099  0.00  0.00    +0.000 C 
ATOM     26  C   UNL     1      -2.994  11.970  23.564  0.00  0.00    +0.000 C 
ENDBRANCH  24  26
ENDBRANCH   1  24
BRANCH   9  27
ATOM     27  C   UNL     1      -0.977  11.871  18.301  0.00  0.00    +0.000 C 
BRANCH  27  28
ATOM     28  C   UNL     1      -2.019  11.066  17.517  0.00  0.00    +0.000 C 
ATOM     29  C   UNL     1      -3.457  11.466  17.809  0.00  0.00    +0.000 C 
ENDBRANCH  27  28
ENDBRANCH   9  27
TORSDOF 7
ENDMDL
