MODEL 1
REMARK VINA RESULT:      -9.1      0.000      0.000
REMARK  Name = 
REMARK  6 active torsions:
REMARK  status: ('A' for Active; 'I' for Inactive)
REMARK    1  A    between atoms: C_2  and  C_3
REMARK    2  A    between atoms: C_2  and  C_23
REMARK    3  A    between atoms: C_4  and  C_5
REMARK    4  A    between atoms: C_9  and  N_10
REMARK    5  A    between atoms: N_10  and  S_11
REMARK    6  A    between atoms: S_11  and  C_14
REMARK                            x       y       z     vdW  Elec       q    Type
REMARK                         _______ _______ _______ _____ _____    ______ ____
ROOT
ATOM      1  C   UNL     1       8.088   7.919  18.178  0.00  0.00    +0.000 A 
ATOM      2  C   UNL     1       8.278   7.117  19.309  0.00  0.00    +0.000 A 
ATOM      3  C   UNL     1       8.036   5.737  19.249  0.00  0.00    +0.000 A 
ATOM      4  C   UNL     1       7.603   5.147  18.059  0.00  0.00    +0.000 A 
ATOM      5  C   UNL     1       7.410   5.939  16.934  0.00  0.00    +0.000 A 
ATOM      6  C   UNL     1       7.665   7.306  16.987  0.00  0.00    +0.000 A 
ENDROOT
BRANCH   1   8
ATOM      7  C   UNL     1       9.340   9.838  19.018  0.00  0.00    +0.000 C 
ATOM      8  C   UNL     1       8.381   9.361  18.212  0.00  0.00    +0.000 C 
BRANCH   7  10
ATOM      9  O   UNL     1      10.217  11.946  18.336  0.00  0.00    +0.000 OA
ATOM     10  C   UNL     1       9.679  11.281  19.219  0.00  0.00    +0.000 C 
BRANCH  10  11
ATOM     11  C   UNL     1       9.262  11.812  20.505  0.00  0.00    +0.000 A 
ATOM     12  N   UNL     1       9.102  13.101  20.729  0.00  0.00    +0.000 NA
ATOM     13  C   UNL     1       8.718  13.215  22.034  0.00  0.00    +0.000 A 
ATOM     14  C   UNL     1       8.396  14.366  22.759  0.00  0.00    +0.000 A 
ATOM     15  C   UNL     1       8.069  14.238  24.109  0.00  0.00    +0.000 A 
ATOM     16  C   UNL     1       8.051  12.982  24.716  0.00  0.00    +0.000 A 
ATOM     17  C   UNL     1       8.345  11.812  23.997  0.00  0.00    +0.000 A 
ATOM     18  C   UNL     1       8.672  11.969  22.648  0.00  0.00    +0.000 A 
ATOM     19  N   UNL     1       8.993  11.085  21.644  0.00  0.00    +0.000 N 
ATOM     20  H   UNL     1       9.042  10.078  21.718  0.00  0.00    +0.000 HD
ENDBRANCH  10  11
ENDBRANCH   7  10
ENDBRANCH   1   8
BRANCH   5  21
ATOM     21  N   UNL     1       7.023   5.377  15.695  0.00  0.00    +0.000 N 
ATOM     22  H   UNL     1       7.614   4.678  15.249  0.00  0.00    +0.000 HD
BRANCH  21  23
ATOM     23  S   UNL     1       5.424   5.407  15.202  0.00  0.00    +0.000 S 
ATOM     24  O   UNL     1       5.100   6.798  14.965  0.00  0.00    +0.000 OA
ATOM     25  O   UNL     1       5.208   4.406  14.182  0.00  0.00    +0.000 OA
BRANCH  23  26
ATOM     26  C   UNL     1       4.555   4.909  16.667  0.00  0.00    +0.000 A 
ATOM     27  C   UNL     1       3.962   5.875  17.485  0.00  0.00    +0.000 A 
ATOM     28  C   UNL     1       3.249   5.464  18.609  0.00  0.00    +0.000 A 
ATOM     29 CL   UNL     1       2.520   6.638  19.632  0.00  0.00    +0.000 Cl
ATOM     30  C   UNL     1       3.116   4.110  18.909  0.00  0.00    +0.000 A 
ATOM     31  C   UNL     1       3.707   3.157  18.080  0.00  0.00    +0.000 A 
ATOM     32 CL   UNL     1       3.540   1.483  18.434  0.00  0.00    +0.000 Cl
ATOM     33  C   UNL     1       4.425   3.546  16.955  0.00  0.00    +0.000 A 
ENDBRANCH  23  26
ENDBRANCH  21  23
ENDBRANCH   5  21
TORSDOF 6
ENDMDL
MODEL 2
REMARK VINA RESULT:      -9.1      7.810     10.937
REMARK  Name = 
REMARK  6 active torsions:
REMARK  status: ('A' for Active; 'I' for Inactive)
REMARK    1  A    between atoms: C_2  and  C_3
REMARK    2  A    between atoms: C_2  and  C_23
REMARK    3  A    between atoms: C_4  and  C_5
REMARK    4  A    between atoms: C_9  and  N_10
REMARK    5  A    between atoms: N_10  and  S_11
REMARK    6  A    between atoms: S_11  and  C_14
REMARK                            x       y       z     vdW  Elec       q    Type
REMARK                         _______ _______ _______ _____ _____    ______ ____
ROOT
ATOM      1  C   UNL     1       0.302  10.277  19.332  0.00  0.00    +0.000 A 
ATOM      2  C   UNL     1      -0.165  10.758  20.560  0.00  0.00    +0.000 A 
ATOM      3  C   UNL     1      -1.275  11.611  20.612  0.00  0.00    +0.000 A 
ATOM      4  C   UNL     1      -1.931  11.991  19.438  0.00  0.00    +0.000 A 
ATOM      5  C   UNL     1      -1.469  11.519  18.215  0.00  0.00    +0.000 A 
ATOM      6  C   UNL     1      -0.376  10.658  18.163  0.00  0.00    +0.000 A 
ENDROOT
BRANCH   1   8
ATOM      7  C   UNL     1       1.681   8.652  18.142  0.00  0.00    +0.000 C 
ATOM      8  C   UNL     1       1.439   9.343  19.264  0.00  0.00    +0.000 C 
BRANCH   7  10
ATOM      9  O   UNL     1       3.808   7.862  17.416  0.00  0.00    +0.000 OA
ATOM     10  C   UNL     1       2.739   7.609  17.965  0.00  0.00    +0.000 C 
BRANCH  10  11
ATOM     11  C   UNL     1       2.402   6.323  18.549  0.00  0.00    +0.000 A 
ATOM     12  N   UNL     1       2.487   6.079  19.842  0.00  0.00    +0.000 NA
ATOM     13  C   UNL     1       2.103   4.780  20.010  0.00  0.00    +0.000 A 
ATOM     14  C   UNL     1       1.991   4.041  21.191  0.00  0.00    +0.000 A 
ATOM     15  C   UNL     1       1.615   2.700  21.110  0.00  0.00    +0.000 A 
ATOM     16  C   UNL     1       1.343   2.116  19.873  0.00  0.00    +0.000 A 
ATOM     17  C   UNL     1       1.423   2.850  18.678  0.00  0.00    +0.000 A 
ATOM     18  C   UNL     1       1.805   4.189  18.788  0.00  0.00    +0.000 A 
ATOM     19  N   UNL     1       1.972   5.202  17.872  0.00  0.00    +0.000 N 
ATOM     20  H   UNL     1       1.826   5.145  16.873  0.00  0.00    +0.000 HD
ENDBRANCH  10  11
ENDBRANCH   7  10
ENDBRANCH   1   8
BRANCH   5  21
ATOM     21  N   UNL     1      -2.132  11.834  17.006  0.00  0.00    +0.000 N 
ATOM     22  H   UNL     1      -1.714  12.499  16.357  0.00  0.00    +0.000 HD
BRANCH  21  23
ATOM     23  S   UNL     1      -3.272  10.796  16.357  0.00  0.00    +0.000 S 
ATOM     24  O   UNL     1      -3.367  11.126  14.951  0.00  0.00    +0.000 OA
ATOM     25  O   UNL     1      -3.002   9.442  16.790  0.00  0.00    +0.000 OA
BRANCH  23  26
ATOM     26  C   UNL     1      -4.776  11.338  17.127  0.00  0.00    +0.000 A 
ATOM     27  C   UNL     1      -5.430  12.477  16.646  0.00  0.00    +0.000 A 
ATOM     28  C   UNL     1      -6.631  12.865  17.235  0.00  0.00    +0.000 A 
ATOM     29 CL   UNL     1      -7.447  14.267  16.663  0.00  0.00    +0.000 Cl
ATOM     30  C   UNL     1      -7.182  12.126  18.280  0.00  0.00    +0.000 A 
ATOM     31  C   UNL     1      -6.522  10.989  18.743  0.00  0.00    +0.000 A 
ATOM     32 CL   UNL     1      -7.198  10.061  20.024  0.00  0.00    +0.000 Cl
ATOM     33  C   UNL     1      -5.321  10.585  18.172  0.00  0.00    +0.000 A 
ENDBRANCH  23  26
ENDBRANCH  21  23
ENDBRANCH   5  21
TORSDOF 6
ENDMDL
MODEL 3
REMARK VINA RESULT:      -9.0      0.199      1.929
REMARK  Name = 
REMARK  6 active torsions:
REMARK  status: ('A' for Active; 'I' for Inactive)
REMARK    1  A    between atoms: C_2  and  C_3
REMARK    2  A    between atoms: C_2  and  C_23
REMARK    3  A    between atoms: C_4  and  C_5
REMARK    4  A    between atoms: C_9  and  N_10
REMARK    5  A    between atoms: N_10  and  S_11
REMARK    6  A    between atoms: S_11  and  C_14
REMARK                            x       y       z     vdW  Elec       q    Type
REMARK                         _______ _______ _______ _____ _____    ______ ____
ROOT
ATOM      1  C   UNL     1       8.063   7.900  18.113  0.00  0.00    +0.000 A 
ATOM      2  C   UNL     1       8.279   7.141  19.269  0.00  0.00    +0.000 A 
ATOM      3  C   UNL     1       8.053   5.758  19.261  0.00  0.00    +0.000 A 
ATOM      4  C   UNL     1       7.612   5.120  18.099  0.00  0.00    +0.000 A 
ATOM      5  C   UNL     1       7.394   5.870  16.949  0.00  0.00    +0.000 A 
ATOM      6  C   UNL     1       7.632   7.241  16.951  0.00  0.00    +0.000 A 
ENDROOT
BRANCH   1   8
ATOM      7  C   UNL     1       9.260   9.872  18.912  0.00  0.00    +0.000 C 
ATOM      8  C   UNL     1       8.339   9.347  18.092  0.00  0.00    +0.000 C 
BRANCH   7  10
ATOM      9  O   UNL     1       9.995  11.994  18.117  0.00  0.00    +0.000 OA
ATOM     10  C   UNL     1       9.574  11.327  19.059  0.00  0.00    +0.000 C 
BRANCH  10  11
ATOM     11  C   UNL     1       9.280  11.864  20.376  0.00  0.00    +0.000 A 
ATOM     12  N   UNL     1       8.835  11.121  21.369  0.00  0.00    +0.000 NA
ATOM     13  C   UNL     1       8.669  11.964  22.430  0.00  0.00    +0.000 A 
ATOM     14  C   UNL     1       8.244  11.670  23.729  0.00  0.00    +0.000 A 
ATOM     15  C   UNL     1       8.110  12.716  24.643  0.00  0.00    +0.000 A 
ATOM     16  C   UNL     1       8.409  14.026  24.268  0.00  0.00    +0.000 A 
ATOM     17  C   UNL     1       8.863  14.336  22.975  0.00  0.00    +0.000 A 
ATOM     18  C   UNL     1       8.986  13.271  22.080  0.00  0.00    +0.000 A 
ATOM     19  N   UNL     1       9.404  13.179  20.772  0.00  0.00    +0.000 N 
ATOM     20  H   UNL     1       9.731  13.935  20.187  0.00  0.00    +0.000 HD
ENDBRANCH  10  11
ENDBRANCH   7  10
ENDBRANCH   1   8
BRANCH   5  21
ATOM     21  N   UNL     1       6.998   5.259  15.736  0.00  0.00    +0.000 N 
ATOM     22  H   UNL     1       7.551   4.498  15.347  0.00  0.00    +0.000 HD
BRANCH  21  23
ATOM     23  S   UNL     1       5.415   5.361  15.203  0.00  0.00    +0.000 S 
ATOM     24  O   UNL     1       5.151   6.768  14.985  0.00  0.00    +0.000 OA
ATOM     25  O   UNL     1       5.187   4.388  14.158  0.00  0.00    +0.000 OA
BRANCH  23  26
ATOM     26  C   UNL     1       4.489   4.870  16.635  0.00  0.00    +0.000 A 
ATOM     27  C   UNL     1       4.377   3.515  16.958  0.00  0.00    +0.000 A 
ATOM     28  C   UNL     1       3.681   3.150  18.108  0.00  0.00    +0.000 A 
ATOM     29 CL   UNL     1       3.525   1.487  18.518  0.00  0.00    +0.000 Cl
ATOM     30  C   UNL     1       3.114   4.119  18.934  0.00  0.00    +0.000 A 
ATOM     31  C   UNL     1       3.240   5.467  18.602  0.00  0.00    +0.000 A 
ATOM     32 CL   UNL     1       2.555   6.674  19.618  0.00  0.00    +0.000 Cl
ATOM     33  C   UNL     1       3.928   5.854  17.457  0.00  0.00    +0.000 A 
ENDBRANCH  23  26
ENDBRANCH  21  23
ENDBRANCH   5  21
TORSDOF 6
ENDMDL
MODEL 4
REMARK VINA RESULT:      -8.9      0.114      1.044
REMARK  Name = 
REMARK  6 active torsions:
REMARK  status: ('A' for Active; 'I' for Inactive)
REMARK    1  A    between atoms: C_2  and  C_3
REMARK    2  A    between atoms: C_2  and  C_23
REMARK    3  A    between atoms: C_4  and  C_5
REMARK    4  A    between atoms: C_9  and  N_10
REMARK    5  A    between atoms: N_10  and  S_11
REMARK    6  A    between atoms: S_11  and  C_14
REMARK                            x       y       z     vdW  Elec       q    Type
REMARK                         _______ _______ _______ _____ _____    ______ ____
ROOT
ATOM      1  C   UNL     1       8.093   7.940  18.156  0.00  0.00    +0.000 A 
ATOM      2  C   UNL     1       8.288   7.155  19.298  0.00  0.00    +0.000 A 
ATOM      3  C   UNL     1       8.043   5.775  19.260  0.00  0.00    +0.000 A 
ATOM      4  C   UNL     1       7.602   5.168  18.082  0.00  0.00    +0.000 A 
ATOM      5  C   UNL     1       7.404   5.944  16.946  0.00  0.00    +0.000 A 
ATOM      6  C   UNL     1       7.662   7.311  16.977  0.00  0.00    +0.000 A 
ENDROOT
BRANCH   1   8
ATOM      7  C   UNL     1       9.298   9.880  19.017  0.00  0.00    +0.000 C 
ATOM      8  C   UNL     1       8.390   9.383  18.166  0.00  0.00    +0.000 C 
BRANCH   7  10
ATOM      9  O   UNL     1      10.145  11.988  18.297  0.00  0.00    +0.000 OA
ATOM     10  C   UNL     1       9.630  11.328  19.197  0.00  0.00    +0.000 C 
BRANCH  10  11
ATOM     11  C   UNL     1       9.235  11.868  20.486  0.00  0.00    +0.000 A 
ATOM     12  N   UNL     1       8.918  11.107  21.514  0.00  0.00    +0.000 NA
ATOM     13  C   UNL     1       8.599  11.958  22.533  0.00  0.00    +0.000 A 
ATOM     14  C   UNL     1       8.220  11.658  23.844  0.00  0.00    +0.000 A 
ATOM     15  C   UNL     1       7.898  12.707  24.706  0.00  0.00    +0.000 A 
ATOM     16  C   UNL     1       7.967  14.029  24.267  0.00  0.00    +0.000 A 
ATOM     17  C   UNL     1       8.372  14.351  22.961  0.00  0.00    +0.000 A 
ATOM     18  C   UNL     1       8.686  13.282  22.119  0.00  0.00    +0.000 A 
ATOM     19  N   UNL     1       9.125  13.201  20.817  0.00  0.00    +0.000 N 
ATOM     20  H   UNL     1       9.320  13.974  20.196  0.00  0.00    +0.000 HD
ENDBRANCH  10  11
ENDBRANCH   7  10
ENDBRANCH   1   8
BRANCH   5  21
ATOM     21  N   UNL     1       7.009   5.364  15.718  0.00  0.00    +0.000 N 
ATOM     22  H   UNL     1       7.593   4.653  15.281  0.00  0.00    +0.000 HD
BRANCH  21  23
ATOM     23  S   UNL     1       5.409   5.397  15.230  0.00  0.00    +0.000 S 
ATOM     24  O   UNL     1       5.087   6.789  14.994  0.00  0.00    +0.000 OA
ATOM     25  O   UNL     1       5.187   4.396  14.210  0.00  0.00    +0.000 OA
BRANCH  23  26
ATOM     26  C   UNL     1       4.543   4.900  16.698  0.00  0.00    +0.000 A 
ATOM     27  C   UNL     1       3.970   5.869  17.527  0.00  0.00    +0.000 A 
ATOM     28  C   UNL     1       3.260   5.459  18.653  0.00  0.00    +0.000 A 
ATOM     29 CL   UNL     1       2.554   6.636  19.690  0.00  0.00    +0.000 Cl
ATOM     30  C   UNL     1       3.109   4.105  18.945  0.00  0.00    +0.000 A 
ATOM     31  C   UNL     1       3.681   3.150  18.104  0.00  0.00    +0.000 A 
ATOM     32 CL   UNL     1       3.493   1.476  18.447  0.00  0.00    +0.000 Cl
ATOM     33  C   UNL     1       4.396   3.537  16.976  0.00  0.00    +0.000 A 
ENDBRANCH  23  26
ENDBRANCH  21  23
ENDBRANCH   5  21
TORSDOF 6
ENDMDL
MODEL 5
REMARK VINA RESULT:      -8.8      7.536      9.579
REMARK  Name = 
REMARK  6 active torsions:
REMARK  status: ('A' for Active; 'I' for Inactive)
REMARK    1  A    between atoms: C_2  and  C_3
REMARK    2  A    between atoms: C_2  and  C_23
REMARK    3  A    between atoms: C_4  and  C_5
REMARK    4  A    between atoms: C_9  and  N_10
REMARK    5  A    between atoms: N_10  and  S_11
REMARK    6  A    between atoms: S_11  and  C_14
REMARK                            x       y       z     vdW  Elec       q    Type
REMARK                         _______ _______ _______ _____ _____    ______ ____
ROOT
ATOM      1  C   UNL     1       1.043   9.450  19.617  0.00  0.00    +0.000 A 
ATOM      2  C   UNL     1       1.421   9.716  18.296  0.00  0.00    +0.000 A 
ATOM      3  C   UNL     1       2.239   8.816  17.599  0.00  0.00    +0.000 A 
ATOM      4  C   UNL     1       2.685   7.644  18.213  0.00  0.00    +0.000 A 
ATOM      5  C   UNL     1       2.315   7.377  19.526  0.00  0.00    +0.000 A 
ATOM      6  C   UNL     1       1.489   8.261  20.215  0.00  0.00    +0.000 A 
ENDROOT
BRANCH   1   8
ATOM      7  C   UNL     1      -0.608  11.248  19.683  0.00  0.00    +0.000 C 
ATOM      8  C   UNL     1       0.147  10.362  20.348  0.00  0.00    +0.000 C 
BRANCH   7  10
ATOM      9  O   UNL     1      -1.052  13.104  21.108  0.00  0.00    +0.000 OA
ATOM     10  C   UNL     1      -1.488  12.288  20.299  0.00  0.00    +0.000 C 
BRANCH  10  11
ATOM     11  C   UNL     1      -2.855  12.270  19.810  0.00  0.00    +0.000 A 
ATOM     12  N   UNL     1      -3.885  12.624  20.552  0.00  0.00    +0.000 NA
ATOM     13  C   UNL     1      -4.991  12.473  19.765  0.00  0.00    +0.000 A 
ATOM     14  C   UNL     1      -6.330  12.738  20.068  0.00  0.00    +0.000 A 
ATOM     15  C   UNL     1      -7.302  12.463  19.106  0.00  0.00    +0.000 A 
ATOM     16  C   UNL     1      -6.939  11.945  17.862  0.00  0.00    +0.000 A 
ATOM     17  C   UNL     1      -5.597  11.697  17.531  0.00  0.00    +0.000 A 
ATOM     18  C   UNL     1      -4.644  11.980  18.513  0.00  0.00    +0.000 A 
ATOM     19  N   UNL     1      -3.272  11.888  18.553  0.00  0.00    +0.000 N 
ATOM     20  H   UNL     1      -2.664  11.581  17.806  0.00  0.00    +0.000 HD
ENDBRANCH  10  11
ENDBRANCH   7  10
ENDBRANCH   1   8
BRANCH   5  21
ATOM     21  N   UNL     1       2.699   6.178  20.171  0.00  0.00    +0.000 N 
ATOM     22  H   UNL     1       2.663   6.114  21.187  0.00  0.00    +0.000 HD
BRANCH  21  23
ATOM     23  S   UNL     1       2.699   4.723  19.345  0.00  0.00    +0.000 S 
ATOM     24  O   UNL     1       2.777   3.686  20.352  0.00  0.00    +0.000 OA
ATOM     25  O   UNL     1       1.647   4.724  18.353  0.00  0.00    +0.000 OA
BRANCH  23  26
ATOM     26  C   UNL     1       4.261   4.753  18.502  0.00  0.00    +0.000 A 
ATOM     27  C   UNL     1       4.324   4.416  17.147  0.00  0.00    +0.000 A 
ATOM     28  C   UNL     1       5.551   4.484  16.491  0.00  0.00    +0.000 A 
ATOM     29 CL   UNL     1       5.651   4.065  14.825  0.00  0.00    +0.000 Cl
ATOM     30  C   UNL     1       6.698   4.894  17.168  0.00  0.00    +0.000 A 
ATOM     31  C   UNL     1       6.617   5.234  18.518  0.00  0.00    +0.000 A 
ATOM     32 CL   UNL     1       8.022   5.752  19.363  0.00  0.00    +0.000 Cl
ATOM     33  C   UNL     1       5.403   5.170  19.193  0.00  0.00    +0.000 A 
ENDBRANCH  23  26
ENDBRANCH  21  23
ENDBRANCH   5  21
TORSDOF 6
ENDMDL
MODEL 6
REMARK VINA RESULT:      -8.7      6.709      8.160
REMARK  Name = 
REMARK  6 active torsions:
REMARK  status: ('A' for Active; 'I' for Inactive)
REMARK    1  A    between atoms: C_2  and  C_3
REMARK    2  A    between atoms: C_2  and  C_23
REMARK    3  A    between atoms: C_4  and  C_5
REMARK    4  A    between atoms: C_9  and  N_10
REMARK    5  A    between atoms: N_10  and  S_11
REMARK    6  A    between atoms: S_11  and  C_14
REMARK                            x       y       z     vdW  Elec       q    Type
REMARK                         _______ _______ _______ _____ _____    ______ ____
ROOT
ATOM      1  C   UNL     1       1.834   7.447  20.242  0.00  0.00    +0.000 A 
ATOM      2  C   UNL     1       2.184   8.221  19.130  0.00  0.00    +0.000 A 
ATOM      3  C   UNL     1       2.506   7.607  17.912  0.00  0.00    +0.000 A 
ATOM      4  C   UNL     1       2.481   6.215  17.793  0.00  0.00    +0.000 A 
ATOM      5  C   UNL     1       2.138   5.442  18.896  0.00  0.00    +0.000 A 
ATOM      6  C   UNL     1       1.802   6.050  20.102  0.00  0.00    +0.000 A 
ENDROOT
BRANCH   1   8
ATOM      7  C   UNL     1       0.478   9.001  21.547  0.00  0.00    +0.000 C 
ATOM      8  C   UNL     1       1.449   8.077  21.516  0.00  0.00    +0.000 C 
BRANCH   7  10
ATOM      9  O   UNL     1       0.525   9.567  23.861  0.00  0.00    +0.000 OA
ATOM     10  C   UNL     1       0.051   9.784  22.748  0.00  0.00    +0.000 C 
BRANCH  10  11
ATOM     11  C   UNL     1      -0.908  10.834  22.458  0.00  0.00    +0.000 A 
ATOM     12  N   UNL     1      -1.820  11.230  23.324  0.00  0.00    +0.000 NA
ATOM     13  C   UNL     1      -2.533  12.214  22.702  0.00  0.00    +0.000 A 
ATOM     14  C   UNL     1      -3.593  12.979  23.197  0.00  0.00    +0.000 A 
ATOM     15  C   UNL     1      -4.201  13.909  22.352  0.00  0.00    +0.000 A 
ATOM     16  C   UNL     1      -3.747  14.078  21.044  0.00  0.00    +0.000 A 
ATOM     17  C   UNL     1      -2.665  13.338  20.538  0.00  0.00    +0.000 A 
ATOM     18  C   UNL     1      -2.078  12.412  21.404  0.00  0.00    +0.000 A 
ATOM     19  N   UNL     1      -1.019  11.542  21.281  0.00  0.00    +0.000 N 
ATOM     20  H   UNL     1      -0.427  11.420  20.470  0.00  0.00    +0.000 HD
ENDBRANCH  10  11
ENDBRANCH   7  10
ENDBRANCH   1   8
BRANCH   5  21
ATOM     21  N   UNL     1       2.049   4.033  18.808  0.00  0.00    +0.000 N 
ATOM     22  H   UNL     1       1.348   3.605  18.206  0.00  0.00    +0.000 HD
BRANCH  21  23
ATOM     23  S   UNL     1       3.352   3.065  19.215  0.00  0.00    +0.000 S 
ATOM     24  O   UNL     1       3.620   3.316  20.615  0.00  0.00    +0.000 OA
ATOM     25  O   UNL     1       3.136   1.722  18.725  0.00  0.00    +0.000 OA
BRANCH  23  26
ATOM     26  C   UNL     1       4.681   3.790  18.289  0.00  0.00    +0.000 A 
ATOM     27  C   UNL     1       4.715   3.650  16.898  0.00  0.00    +0.000 A 
ATOM     28  C   UNL     1       5.742   4.260  16.182  0.00  0.00    +0.000 A 
ATOM     29 CL   UNL     1       5.805   4.093  14.472  0.00  0.00    +0.000 Cl
ATOM     30  C   UNL     1       6.717   5.010  16.838  0.00  0.00    +0.000 A 
ATOM     31  C   UNL     1       6.666   5.146  18.225  0.00  0.00    +0.000 A 
ATOM     32 CL   UNL     1       7.857   6.078  19.044  0.00  0.00    +0.000 Cl
ATOM     33  C   UNL     1       5.651   4.544  18.958  0.00  0.00    +0.000 A 
ENDBRANCH  23  26
ENDBRANCH  21  23
ENDBRANCH   5  21
TORSDOF 6
ENDMDL
MODEL 7
REMARK VINA RESULT:      -8.7      7.568      9.572
REMARK  Name = 
REMARK  6 active torsions:
REMARK  status: ('A' for Active; 'I' for Inactive)
REMARK    1  A    between atoms: C_2  and  C_3
REMARK    2  A    between atoms: C_2  and  C_23
REMARK    3  A    between atoms: C_4  and  C_5
REMARK    4  A    between atoms: C_9  and  N_10
REMARK    5  A    between atoms: N_10  and  S_11
REMARK    6  A    between atoms: S_11  and  C_14
REMARK                            x       y       z     vdW  Elec       q    Type
REMARK                         _______ _______ _______ _____ _____    ______ ____
ROOT
ATOM      1  C   UNL     1       0.841   9.415  19.595  0.00  0.00    +0.000 A 
ATOM      2  C   UNL     1       1.266   9.811  18.322  0.00  0.00    +0.000 A 
ATOM      3  C   UNL     1       2.194   9.037  17.611  0.00  0.00    +0.000 A 
ATOM      4  C   UNL     1       2.704   7.861  18.165  0.00  0.00    +0.000 A 
ATOM      5  C   UNL     1       2.288   7.465  19.430  0.00  0.00    +0.000 A 
ATOM      6  C   UNL     1       1.355   8.223  20.131  0.00  0.00    +0.000 A 
ENDROOT
BRANCH   1   8
ATOM      7  C   UNL     1      -0.652  11.333  19.824  0.00  0.00    +0.000 C 
ATOM      8  C   UNL     1      -0.167  10.192  20.335  0.00  0.00    +0.000 C 
BRANCH   7  10
ATOM      9  O   UNL     1      -1.250  12.982  21.436  0.00  0.00    +0.000 OA
ATOM     10  C   UNL     1      -1.605  12.263  20.505  0.00  0.00    +0.000 C 
BRANCH  10  11
ATOM     11  C   UNL     1      -2.937  12.270  19.926  0.00  0.00    +0.000 A 
ATOM     12  N   UNL     1      -4.011  12.614  20.609  0.00  0.00    +0.000 NA
ATOM     13  C   UNL     1      -5.064  12.493  19.747  0.00  0.00    +0.000 A 
ATOM     14  C   UNL     1      -6.417  12.762  19.968  0.00  0.00    +0.000 A 
ATOM     15  C   UNL     1      -7.326  12.520  18.937  0.00  0.00    +0.000 A 
ATOM     16  C   UNL     1      -6.886  12.031  17.707  0.00  0.00    +0.000 A 
ATOM     17  C   UNL     1      -5.526  11.781  17.458  0.00  0.00    +0.000 A 
ATOM     18  C   UNL     1      -4.639  12.029  18.508  0.00  0.00    +0.000 A 
ATOM     19  N   UNL     1      -3.273  11.924  18.635  0.00  0.00    +0.000 N 
ATOM     20  H   UNL     1      -2.619  11.631  17.922  0.00  0.00    +0.000 HD
ENDBRANCH  10  11
ENDBRANCH   7  10
ENDBRANCH   1   8
BRANCH   5  21
ATOM     21  N   UNL     1       2.738   6.254  20.009  0.00  0.00    +0.000 N 
ATOM     22  H   UNL     1       2.746   6.148  21.021  0.00  0.00    +0.000 HD
BRANCH  21  23
ATOM     23  S   UNL     1       2.749   4.834  19.123  0.00  0.00    +0.000 S 
ATOM     24  O   UNL     1       2.738   3.756  20.089  0.00  0.00    +0.000 OA
ATOM     25  O   UNL     1       1.759   4.906  18.072  0.00  0.00    +0.000 OA
BRANCH  23  26
ATOM     26  C   UNL     1       4.359   4.853  18.377  0.00  0.00    +0.000 A 
ATOM     27  C   UNL     1       5.468   5.255  19.127  0.00  0.00    +0.000 A 
ATOM     28  C   UNL     1       6.729   5.225  18.538  0.00  0.00    +0.000 A 
ATOM     29 CL   UNL     1       8.105   5.724  19.443  0.00  0.00    +0.000 Cl
ATOM     30  C   UNL     1       6.890   4.789  17.224  0.00  0.00    +0.000 A 
ATOM     31  C   UNL     1       5.775   4.384  16.491  0.00  0.00    +0.000 A 
ATOM     32 CL   UNL     1       5.962   3.833  14.872  0.00  0.00    +0.000 Cl
ATOM     33  C   UNL     1       4.507   4.409  17.059  0.00  0.00    +0.000 A 
ENDBRANCH  23  26
ENDBRANCH  21  23
ENDBRANCH   5  21
TORSDOF 6
ENDMDL
MODEL 8
REMARK VINA RESULT:      -8.7      6.689      8.126
REMARK  Name = 
REMARK  6 active torsions:
REMARK  status: ('A' for Active; 'I' for Inactive)
REMARK    1  A    between atoms: C_2  and  C_3
REMARK    2  A    between atoms: C_2  and  C_23
REMARK    3  A    between atoms: C_4  and  C_5
REMARK    4  A    between atoms: C_9  and  N_10
REMARK    5  A    between atoms: N_10  and  S_11
REMARK    6  A    between atoms: S_11  and  C_14
REMARK                            x       y       z     vdW  Elec       q    Type
REMARK                         _______ _______ _______ _____ _____    ______ ____
ROOT
ATOM      1  C   UNL     1       1.803   7.453  20.206  0.00  0.00    +0.000 A 
ATOM      2  C   UNL     1       2.161   8.278  19.133  0.00  0.00    +0.000 A 
ATOM      3  C   UNL     1       2.543   7.718  17.906  0.00  0.00    +0.000 A 
ATOM      4  C   UNL     1       2.570   6.332  17.739  0.00  0.00    +0.000 A 
ATOM      5  C   UNL     1       2.218   5.509  18.802  0.00  0.00    +0.000 A 
ATOM      6  C   UNL     1       1.823   6.062  20.016  0.00  0.00    +0.000 A 
ENDROOT
BRANCH   1   8
ATOM      7  C   UNL     1       0.531   9.082  21.505  0.00  0.00    +0.000 C 
ATOM      8  C   UNL     1       1.355   8.025  21.487  0.00  0.00    +0.000 C 
BRANCH   7  10
ATOM      9  O   UNL     1       0.559   9.592  23.832  0.00  0.00    +0.000 OA
ATOM     10  C   UNL     1       0.073   9.815  22.725  0.00  0.00    +0.000 C 
BRANCH  10  11
ATOM     11  C   UNL     1      -0.931  10.831  22.462  0.00  0.00    +0.000 A 
ATOM     12  N   UNL     1      -1.051  11.433  21.296  0.00  0.00    +0.000 NA
ATOM     13  C   UNL     1      -2.083  12.316  21.428  0.00  0.00    +0.000 A 
ATOM     14  C   UNL     1      -2.631  13.180  20.475  0.00  0.00    +0.000 A 
ATOM     15  C   UNL     1      -3.667  14.031  20.859  0.00  0.00    +0.000 A 
ATOM     16  C   UNL     1      -4.155  14.008  22.165  0.00  0.00    +0.000 A 
ATOM     17  C   UNL     1      -3.636  13.127  23.129  0.00  0.00    +0.000 A 
ATOM     18  C   UNL     1      -2.597  12.288  22.719  0.00  0.00    +0.000 A 
ATOM     19  N   UNL     1      -1.867  11.309  23.353  0.00  0.00    +0.000 N 
ATOM     20  H   UNL     1      -1.975  10.997  24.309  0.00  0.00    +0.000 HD
ENDBRANCH  10  11
ENDBRANCH   7  10
ENDBRANCH   1   8
BRANCH   5  21
ATOM     21  N   UNL     1       2.180   4.101  18.662  0.00  0.00    +0.000 N 
ATOM     22  H   UNL     1       1.517   3.673  18.019  0.00  0.00    +0.000 HD
BRANCH  21  23
ATOM     23  S   UNL     1       3.499   3.163  19.087  0.00  0.00    +0.000 S 
ATOM     24  O   UNL     1       3.759   3.439  20.485  0.00  0.00    +0.000 OA
ATOM     25  O   UNL     1       3.307   1.809  18.617  0.00  0.00    +0.000 OA
BRANCH  23  26
ATOM     26  C   UNL     1       4.817   3.896  18.154  0.00  0.00    +0.000 A 
ATOM     27  C   UNL     1       4.867   3.721  16.768  0.00  0.00    +0.000 A 
ATOM     28  C   UNL     1       5.886   4.338  16.045  0.00  0.00    +0.000 A 
ATOM     29 CL   UNL     1       5.969   4.127  14.340  0.00  0.00    +0.000 Cl
ATOM     30  C   UNL     1       6.835   5.129  16.689  0.00  0.00    +0.000 A 
ATOM     31  C   UNL     1       6.768   5.301  18.071  0.00  0.00    +0.000 A 
ATOM     32 CL   UNL     1       7.927   6.284  18.875  0.00  0.00    +0.000 Cl
ATOM     33  C   UNL     1       5.761   4.692  18.812  0.00  0.00    +0.000 A 
ENDBRANCH  23  26
ENDBRANCH  21  23
ENDBRANCH   5  21
TORSDOF 6
ENDMDL
MODEL 9
REMARK VINA RESULT:      -8.6      6.598      7.983
REMARK  Name = 
REMARK  6 active torsions:
REMARK  status: ('A' for Active; 'I' for Inactive)
REMARK    1  A    between atoms: C_2  and  C_3
REMARK    2  A    between atoms: C_2  and  C_23
REMARK    3  A    between atoms: C_4  and  C_5
REMARK    4  A    between atoms: C_9  and  N_10
REMARK    5  A    between atoms: N_10  and  S_11
REMARK    6  A    between atoms: S_11  and  C_14
REMARK                            x       y       z     vdW  Elec       q    Type
REMARK                         _______ _______ _______ _____ _____    ______ ____
ROOT
ATOM      1  C   UNL     1       1.852   7.286  20.213  0.00  0.00    +0.000 A 
ATOM      2  C   UNL     1       2.163   8.103  19.119  0.00  0.00    +0.000 A 
ATOM      3  C   UNL     1       2.561   7.535  17.901  0.00  0.00    +0.000 A 
ATOM      4  C   UNL     1       2.651   6.147  17.763  0.00  0.00    +0.000 A 
ATOM      5  C   UNL     1       2.346   5.332  18.847  0.00  0.00    +0.000 A 
ATOM      6  C   UNL     1       1.936   5.893  20.053  0.00  0.00    +0.000 A 
ENDROOT
BRANCH   1   8
ATOM      7  C   UNL     1       0.695   9.011  21.494  0.00  0.00    +0.000 C 
ATOM      8  C   UNL     1       1.389   7.864  21.485  0.00  0.00    +0.000 C 
BRANCH   7  10
ATOM      9  O   UNL     1       0.721   9.522  23.821  0.00  0.00    +0.000 OA
ATOM     10  C   UNL     1       0.245   9.753  22.712  0.00  0.00    +0.000 C 
BRANCH  10  11
ATOM     11  C   UNL     1      -0.740  10.785  22.444  0.00  0.00    +0.000 A 
ATOM     12  N   UNL     1      -1.551  11.259  23.370  0.00  0.00    +0.000 NA
ATOM     13  C   UNL     1      -2.328  12.196  22.752  0.00  0.00    +0.000 A 
ATOM     14  C   UNL     1      -3.327  13.009  23.295  0.00  0.00    +0.000 A 
ATOM     15  C   UNL     1      -4.023  13.872  22.449  0.00  0.00    +0.000 A 
ATOM     16  C   UNL     1      -3.716  13.930  21.090  0.00  0.00    +0.000 A 
ATOM     17  C   UNL     1      -2.697  13.141  20.530  0.00  0.00    +0.000 A 
ATOM     18  C   UNL     1      -2.018  12.283  21.400  0.00  0.00    +0.000 A 
ATOM     19  N   UNL     1      -0.980  11.396  21.232  0.00  0.00    +0.000 N 
ATOM     20  H   UNL     1      -0.481  11.203  20.374  0.00  0.00    +0.000 HD
ENDBRANCH  10  11
ENDBRANCH   7  10
ENDBRANCH   1   8
BRANCH   5  21
ATOM     21  N   UNL     1       2.373   3.922  18.738  0.00  0.00    +0.000 N 
ATOM     22  H   UNL     1       1.640   3.439  18.222  0.00  0.00    +0.000 HD
BRANCH  21  23
ATOM     23  S   UNL     1       3.800   3.074  18.951  0.00  0.00    +0.000 S 
ATOM     24  O   UNL     1       4.169   3.246  20.340  0.00  0.00    +0.000 OA
ATOM     25  O   UNL     1       3.676   1.756  18.369  0.00  0.00    +0.000 OA
BRANCH  23  26
ATOM     26  C   UNL     1       4.957   4.006  17.982  0.00  0.00    +0.000 A 
ATOM     27  C   UNL     1       5.840   4.887  18.613  0.00  0.00    +0.000 A 
ATOM     28  C   UNL     1       6.769   5.581  17.841  0.00  0.00    +0.000 A 
ATOM     29 CL   UNL     1       7.859   6.675  18.598  0.00  0.00    +0.000 Cl
ATOM     30  C   UNL     1       6.829   5.392  16.461  0.00  0.00    +0.000 A 
ATOM     31  C   UNL     1       5.946   4.505  15.847  0.00  0.00    +0.000 A 
ATOM     32 CL   UNL     1       6.018   4.255  14.147  0.00  0.00    +0.000 Cl
ATOM     33  C   UNL     1       5.009   3.804  16.598  0.00  0.00    +0.000 A 
ENDBRANCH  23  26
ENDBRANCH  21  23
ENDBRANCH   5  21
TORSDOF 6
ENDMDL
