MODEL 1
REMARK VINA RESULT:      -8.8      0.000      0.000
REMARK  Name = 
REMARK  7 active torsions:
REMARK  status: ('A' for Active; 'I' for Inactive)
REMARK    1  A    between atoms: C_1  and  C_2
REMARK    2  A    between atoms: C_5  and  O_6
REMARK    3  A    between atoms: O_6  and  C_7
REMARK    4  A    between atoms: C_7  and  C_8
REMARK    5  A    between atoms: N_10  and  C_11
REMARK    6  A    between atoms: C_11  and  N_13
REMARK    7  A    between atoms: N_13  and  C_14
REMARK                            x       y       z     vdW  Elec       q    Type
REMARK                         _______ _______ _______ _____ _____    ______ ____
ROOT
ATOM      1  C   UNL     1       6.443   4.895  15.898  0.00  0.00    +0.000 C 
ATOM      2  S   UNL     1       6.558   4.542  14.258  0.00  0.00    +0.000 S 
ENDROOT
BRANCH   1   5
ATOM      3  C   UNL     1       7.674   5.565  17.938  0.00  0.00    +0.000 C 
ATOM      4  O   UNL     1       7.898   5.009  19.019  0.00  0.00    +0.000 OA
ATOM      5  N   UNL     1       7.413   4.761  16.836  0.00  0.00    +0.000 N 
ATOM      6  H   UNL     1       7.527   3.784  17.088  0.00  0.00    +0.000 HD
BRANCH   3   7
ATOM      7  C   UNL     1       7.656   7.110  17.830  0.00  0.00    +0.000 C 
BRANCH   7   8
ATOM      8  O   UNL     1       8.486   7.753  18.784  0.00  0.00    +0.000 OA
BRANCH   8  13
ATOM      9  C   UNL     1       8.980  13.358  17.936  0.00  0.00    +0.000 C 
ATOM     10  C   UNL     1       8.897  11.867  18.193  0.00  0.00    +0.000 A 
ATOM     11  C   UNL     1       9.697  11.270  19.162  0.00  0.00    +0.000 A 
ATOM     12  C   UNL     1       9.550   9.905  19.412  0.00  0.00    +0.000 A 
ATOM     13  C   UNL     1       8.699   9.096  18.646  0.00  0.00    +0.000 A 
ATOM     14  C   UNL     1       7.928   9.710  17.668  0.00  0.00    +0.000 A 
ATOM     15  C   UNL     1       8.033  11.083  17.427  0.00  0.00    +0.000 A 
ENDBRANCH   8  13
ENDBRANCH   7   8
ENDBRANCH   3   7
ENDBRANCH   1   5
BRANCH   1  16
ATOM     16  N   UNL     1       5.259   5.430  16.222  0.00  0.00    +0.000 N 
ATOM     17  H   UNL     1       5.115   6.167  15.526  0.00  0.00    +0.000 HD
BRANCH  16  18
ATOM     18  C   UNL     1       4.203   5.406  17.154  0.00  0.00    +0.000 A 
ATOM     19  C   UNL     1       3.969   6.756  17.579  0.00  0.00    +0.000 A 
ATOM     20  C   UNL     1       2.871   7.098  18.342  0.00  0.00    +0.000 A 
ATOM     21  C   UNL     1       2.452   6.096  19.177  0.00  0.00    +0.000 A 
ATOM     22  C   UNL     1       2.568   4.790  18.761  0.00  0.00    +0.000 A 
ATOM     23  C   UNL     1       1.712   4.015  19.525  0.00  0.00    +0.000 A 
ATOM     24  C   UNL     1       1.411   2.719  19.165  0.00  0.00    +0.000 A 
ATOM     25  C   UNL     1       2.063   2.243  18.017  0.00  0.00    +0.000 A 
ATOM     26  C   UNL     1       3.021   3.035  17.302  0.00  0.00    +0.000 A 
ATOM     27  C   UNL     1       3.325   4.382  17.674  0.00  0.00    +0.000 A 
ATOM     28  C   UNL     1       1.127   4.818  20.653  0.00  0.00    +0.000 C 
ATOM     29  C   UNL     1       1.740   6.221  20.462  0.00  0.00    +0.000 C 
ENDBRANCH  16  18
ENDBRANCH   1  16
TORSDOF 6
ENDMDL
MODEL 2
REMARK VINA RESULT:      -8.8      3.676      6.280
REMARK  Name = 
REMARK  7 active torsions:
REMARK  status: ('A' for Active; 'I' for Inactive)
REMARK    1  A    between atoms: C_1  and  C_2
REMARK    2  A    between atoms: C_5  and  O_6
REMARK    3  A    between atoms: O_6  and  C_7
REMARK    4  A    between atoms: C_7  and  C_8
REMARK    5  A    between atoms: N_10  and  C_11
REMARK    6  A    between atoms: C_11  and  N_13
REMARK    7  A    between atoms: N_13  and  C_14
REMARK                            x       y       z     vdW  Elec       q    Type
REMARK                         _______ _______ _______ _____ _____    ______ ____
ROOT
ATOM      1  C   UNL     1       1.860   4.471  20.484  0.00  0.00    +0.000 C 
ATOM      2  S   UNL     1       2.517   3.659  21.801  0.00  0.00    +0.000 S 
ENDROOT
BRANCH   1   5
ATOM      3  C   UNL     1       1.181   3.275  18.427  0.00  0.00    +0.000 C 
ATOM      4  O   UNL     1       0.470   2.287  18.211  0.00  0.00    +0.000 OA
ATOM      5  N   UNL     1       0.955   3.995  19.593  0.00  0.00    +0.000 N 
ATOM      6  H   UNL     1       0.147   3.620  20.078  0.00  0.00    +0.000 HD
BRANCH   3   7
ATOM      7  C   UNL     1       2.305   3.673  17.439  0.00  0.00    +0.000 C 
BRANCH   7   8
ATOM      8  O   UNL     1       3.597   3.263  17.857  0.00  0.00    +0.000 OA
BRANCH   8  13
ATOM      9  C   UNL     1       7.546   7.353  17.617  0.00  0.00    +0.000 C 
ATOM     10  C   UNL     1       6.518   6.245  17.731  0.00  0.00    +0.000 A 
ATOM     11  C   UNL     1       6.368   5.537  18.918  0.00  0.00    +0.000 A 
ATOM     12  C   UNL     1       5.370   4.565  19.004  0.00  0.00    +0.000 A 
ATOM     13  C   UNL     1       4.586   4.206  17.899  0.00  0.00    +0.000 A 
ATOM     14  C   UNL     1       4.770   4.909  16.717  0.00  0.00    +0.000 A 
ATOM     15  C   UNL     1       5.738   5.912  16.621  0.00  0.00    +0.000 A 
ENDBRANCH   8  13
ENDBRANCH   7   8
ENDBRANCH   3   7
ENDBRANCH   1   5
BRANCH   1  16
ATOM     16  N   UNL     1       2.269   5.745  20.416  0.00  0.00    +0.000 N 
ATOM     17  H   UNL     1       3.138   5.761  20.957  0.00  0.00    +0.000 HD
BRANCH  16  18
ATOM     18  C   UNL     1       1.942   7.034  19.953  0.00  0.00    +0.000 A 
ATOM     19  C   UNL     1       2.406   7.139  18.599  0.00  0.00    +0.000 A 
ATOM     20  C   UNL     1       2.067   8.209  17.796  0.00  0.00    +0.000 A 
ATOM     21  C   UNL     1       1.884   9.377  18.489  0.00  0.00    +0.000 A 
ATOM     22  C   UNL     1       1.347   9.323  19.754  0.00  0.00    +0.000 A 
ATOM     23  C   UNL     1       0.854  10.579  20.069  0.00  0.00    +0.000 A 
ATOM     24  C   UNL     1       0.024  10.768  21.153  0.00  0.00    +0.000 A 
ATOM     25  C   UNL     1      -0.236   9.624  21.923  0.00  0.00    +0.000 A 
ATOM     26  C   UNL     1       0.368   8.356  21.632  0.00  0.00    +0.000 A 
ATOM     27  C   UNL     1       1.223   8.162  20.501  0.00  0.00    +0.000 A 
ATOM     28  C   UNL     1       1.257  11.587  19.029  0.00  0.00    +0.000 C 
ATOM     29  C   UNL     1       2.065  10.759  18.007  0.00  0.00    +0.000 C 
ENDBRANCH  16  18
ENDBRANCH   1  16
TORSDOF 6
ENDMDL
MODEL 3
REMARK VINA RESULT:      -8.7      3.401      5.599
REMARK  Name = 
REMARK  7 active torsions:
REMARK  status: ('A' for Active; 'I' for Inactive)
REMARK    1  A    between atoms: C_1  and  C_2
REMARK    2  A    between atoms: C_5  and  O_6
REMARK    3  A    between atoms: O_6  and  C_7
REMARK    4  A    between atoms: C_7  and  C_8
REMARK    5  A    between atoms: N_10  and  C_11
REMARK    6  A    between atoms: C_11  and  N_13
REMARK    7  A    between atoms: N_13  and  C_14
REMARK                            x       y       z     vdW  Elec       q    Type
REMARK                         _______ _______ _______ _____ _____    ______ ____
ROOT
ATOM      1  C   UNL     1       2.289   4.521  19.929  0.00  0.00    +0.000 C 
ATOM      2  S   UNL     1       2.423   3.806  21.446  0.00  0.00    +0.000 S 
ENDROOT
BRANCH   1   5
ATOM      3  C   UNL     1       2.589   3.259  17.822  0.00  0.00    +0.000 C 
ATOM      4  O   UNL     1       2.132   2.192  17.396  0.00  0.00    +0.000 OA
ATOM      5  N   UNL     1       1.854   3.940  18.784  0.00  0.00    +0.000 N 
ATOM      6  H   UNL     1       0.971   3.467  18.942  0.00  0.00    +0.000 HD
BRANCH   3   7
ATOM      7  C   UNL     1       3.951   3.795  17.318  0.00  0.00    +0.000 C 
BRANCH   7   8
ATOM      8  O   UNL     1       4.910   3.961  18.350  0.00  0.00    +0.000 OA
BRANCH   8  13
ATOM      9  C   UNL     1       8.207   8.551  17.687  0.00  0.00    +0.000 C 
ATOM     10  C   UNL     1       7.373   7.303  17.892  0.00  0.00    +0.000 A 
ATOM     11  C   UNL     1       7.776   6.321  18.791  0.00  0.00    +0.000 A 
ATOM     12  C   UNL     1       6.951   5.215  18.998  0.00  0.00    +0.000 A 
ATOM     13  C   UNL     1       5.783   5.008  18.250  0.00  0.00    +0.000 A 
ATOM     14  C   UNL     1       5.414   5.989  17.340  0.00  0.00    +0.000 A 
ATOM     15  C   UNL     1       6.206   7.124  17.146  0.00  0.00    +0.000 A 
ENDBRANCH   8  13
ENDBRANCH   7   8
ENDBRANCH   3   7
ENDBRANCH   1   5
BRANCH   1  16
ATOM     16  N   UNL     1       2.596   5.824  19.953  0.00  0.00    +0.000 N 
ATOM     17  H   UNL     1       3.538   5.856  20.353  0.00  0.00    +0.000 HD
BRANCH  16  18
ATOM     18  C   UNL     1       2.114   7.124  19.702  0.00  0.00    +0.000 A 
ATOM     19  C   UNL     1       2.455   7.460  18.350  0.00  0.00    +0.000 A 
ATOM     20  C   UNL     1       1.954   8.588  17.732  0.00  0.00    +0.000 A 
ATOM     21  C   UNL     1       1.718   9.625  18.596  0.00  0.00    +0.000 A 
ATOM     22  C   UNL     1       1.292   9.344  19.873  0.00  0.00    +0.000 A 
ATOM     23  C   UNL     1       0.710  10.487  20.397  0.00  0.00    +0.000 A 
ATOM     24  C   UNL     1      -0.044  10.439  21.549  0.00  0.00    +0.000 A 
ATOM     25  C   UNL     1      -0.132   9.180  22.163  0.00  0.00    +0.000 A 
ATOM     26  C   UNL     1       0.563   8.034  21.654  0.00  0.00    +0.000 A 
ATOM     27  C   UNL     1       1.338   8.086  20.452  0.00  0.00    +0.000 A 
ATOM     28  C   UNL     1       0.932  11.663  19.487  0.00  0.00    +0.000 C 
ATOM     29  C   UNL     1       1.729  11.071  18.306  0.00  0.00    +0.000 C 
ENDBRANCH  16  18
ENDBRANCH   1  16
TORSDOF 6
ENDMDL
MODEL 4
REMARK VINA RESULT:      -8.7      3.633      5.898
REMARK  Name = 
REMARK  7 active torsions:
REMARK  status: ('A' for Active; 'I' for Inactive)
REMARK    1  A    between atoms: C_1  and  C_2
REMARK    2  A    between atoms: C_5  and  O_6
REMARK    3  A    between atoms: O_6  and  C_7
REMARK    4  A    between atoms: C_7  and  C_8
REMARK    5  A    between atoms: N_10  and  C_11
REMARK    6  A    between atoms: C_11  and  N_13
REMARK    7  A    between atoms: N_13  and  C_14
REMARK                            x       y       z     vdW  Elec       q    Type
REMARK                         _______ _______ _______ _____ _____    ______ ____
ROOT
ATOM      1  C   UNL     1       2.271   5.403  19.198  0.00  0.00    +0.000 C 
ATOM      2  S   UNL     1       2.067   4.815  20.760  0.00  0.00    +0.000 S 
ENDROOT
BRANCH   1   5
ATOM      3  C   UNL     1       2.716   3.493  17.689  0.00  0.00    +0.000 C 
ATOM      4  O   UNL     1       1.992   2.655  17.139  0.00  0.00    +0.000 OA
ATOM      5  N   UNL     1       2.147   4.711  18.038  0.00  0.00    +0.000 N 
ATOM      6  H   UNL     1       1.191   4.754  17.702  0.00  0.00    +0.000 HD
BRANCH   3   7
ATOM      7  C   UNL     1       4.199   3.176  18.001  0.00  0.00    +0.000 C 
BRANCH   7   8
ATOM      8  O   UNL     1       5.097   3.629  17.001  0.00  0.00    +0.000 OA
BRANCH   8  13
ATOM      9  C   UNL     1       8.126   8.348  17.968  0.00  0.00    +0.000 C 
ATOM     10  C   UNL     1       7.274   7.125  17.697  0.00  0.00    +0.000 A 
ATOM     11  C   UNL     1       6.048   7.244  17.051  0.00  0.00    +0.000 A 
ATOM     12  C   UNL     1       5.319   6.089  16.765  0.00  0.00    +0.000 A 
ATOM     13  C   UNL     1       5.732   4.823  17.203  0.00  0.00    +0.000 A 
ATOM     14  C   UNL     1       6.946   4.731  17.869  0.00  0.00    +0.000 A 
ATOM     15  C   UNL     1       7.710   5.871  18.131  0.00  0.00    +0.000 A 
ENDBRANCH   8  13
ENDBRANCH   7   8
ENDBRANCH   3   7
ENDBRANCH   1   5
BRANCH   1  16
ATOM     16  N   UNL     1       2.510   6.721  19.178  0.00  0.00    +0.000 N 
ATOM     17  H   UNL     1       3.527   6.792  19.077  0.00  0.00    +0.000 HD
BRANCH  16  18
ATOM     18  C   UNL     1       1.926   7.997  19.296  0.00  0.00    +0.000 A 
ATOM     19  C   UNL     1       2.104   8.673  18.043  0.00  0.00    +0.000 A 
ATOM     20  C   UNL     1       1.473   9.870  17.768  0.00  0.00    +0.000 A 
ATOM     21  C   UNL     1       1.266  10.647  18.877  0.00  0.00    +0.000 A 
ATOM     22  C   UNL     1       0.993  10.035  20.078  0.00  0.00    +0.000 A 
ATOM     23  C   UNL     1       0.400  10.966  20.914  0.00  0.00    +0.000 A 
ATOM     24  C   UNL     1      -0.226  10.582  22.080  0.00  0.00    +0.000 A 
ATOM     25  C   UNL     1      -0.173   9.210  22.371  0.00  0.00    +0.000 A 
ATOM     26  C   UNL     1       0.534   8.281  21.538  0.00  0.00    +0.000 A 
ATOM     27  C   UNL     1       1.176   8.683  20.324  0.00  0.00    +0.000 A 
ATOM     28  C   UNL     1       0.454  12.340  20.306  0.00  0.00    +0.000 C 
ATOM     29  C   UNL     1       1.158  12.116  18.951  0.00  0.00    +0.000 C 
ENDBRANCH  16  18
ENDBRANCH   1  16
TORSDOF 6
ENDMDL
MODEL 5
REMARK VINA RESULT:      -8.5      1.058      1.313
REMARK  Name = 
REMARK  7 active torsions:
REMARK  status: ('A' for Active; 'I' for Inactive)
REMARK    1  A    between atoms: C_1  and  C_2
REMARK    2  A    between atoms: C_5  and  O_6
REMARK    3  A    between atoms: O_6  and  C_7
REMARK    4  A    between atoms: C_7  and  C_8
REMARK    5  A    between atoms: N_10  and  C_11
REMARK    6  A    between atoms: C_11  and  N_13
REMARK    7  A    between atoms: N_13  and  C_14
REMARK                            x       y       z     vdW  Elec       q    Type
REMARK                         _______ _______ _______ _____ _____    ______ ____
ROOT
ATOM      1  C   UNL     1       6.481   5.732  16.304  0.00  0.00    +0.000 C 
ATOM      2  S   UNL     1       6.413   5.058  14.765  0.00  0.00    +0.000 S 
ENDROOT
BRANCH   1   5
ATOM      3  C   UNL     1       7.818   6.994  17.959  0.00  0.00    +0.000 C 
ATOM      4  O   UNL     1       8.338   6.696  19.040  0.00  0.00    +0.000 OA
ATOM      5  N   UNL     1       7.590   5.974  17.045  0.00  0.00    +0.000 N 
ATOM      6  H   UNL     1       7.975   5.103  17.397  0.00  0.00    +0.000 HD
BRANCH   3   7
ATOM      7  C   UNL     1       7.409   8.456  17.654  0.00  0.00    +0.000 C 
BRANCH   7   8
ATOM      8  O   UNL     1       8.511   9.305  17.374  0.00  0.00    +0.000 OA
BRANCH   8  13
ATOM      9  C   UNL     1       9.809  13.467  21.032  0.00  0.00    +0.000 C 
ATOM     10  C   UNL     1       9.488  12.320  20.094  0.00  0.00    +0.000 A 
ATOM     11  C   UNL     1       9.614  11.001  20.518  0.00  0.00    +0.000 A 
ATOM     12  C   UNL     1       9.252   9.974  19.646  0.00  0.00    +0.000 A 
ATOM     13  C   UNL     1       8.868  10.224  18.321  0.00  0.00    +0.000 A 
ATOM     14  C   UNL     1       8.775  11.547  17.912  0.00  0.00    +0.000 A 
ATOM     15  C   UNL     1       9.095  12.593  18.782  0.00  0.00    +0.000 A 
ENDBRANCH   8  13
ENDBRANCH   7   8
ENDBRANCH   3   7
ENDBRANCH   1   5
BRANCH   1  16
ATOM     16  N   UNL     1       5.275   6.110  16.747  0.00  0.00    +0.000 N 
ATOM     17  H   UNL     1       5.149   7.052  16.366  0.00  0.00    +0.000 HD
BRANCH  16  18
ATOM     18  C   UNL     1       4.181   5.745  17.555  0.00  0.00    +0.000 A 
ATOM     19  C   UNL     1       3.687   6.937  18.182  0.00  0.00    +0.000 A 
ATOM     20  C   UNL     1       2.498   6.951  18.882  0.00  0.00    +0.000 A 
ATOM     21  C   UNL     1       2.207   5.757  19.488  0.00  0.00    +0.000 A 
ATOM     22  C   UNL     1       2.577   4.587  18.868  0.00  0.00    +0.000 A 
ATOM     23  C   UNL     1       1.822   3.556  19.401  0.00  0.00    +0.000 A 
ATOM     24  C   UNL     1       1.776   2.318  18.796  0.00  0.00    +0.000 A 
ATOM     25  C   UNL     1       2.576   2.174  17.652  0.00  0.00    +0.000 A 
ATOM     26  C   UNL     1       3.426   3.228  17.179  0.00  0.00    +0.000 A 
ATOM     27  C   UNL     1       3.464   4.514  17.805  0.00  0.00    +0.000 A 
ATOM     28  C   UNL     1       1.033   4.031  20.589  0.00  0.00    +0.000 C 
ATOM     29  C   UNL     1       1.402   5.526  20.702  0.00  0.00    +0.000 C 
ENDBRANCH  16  18
ENDBRANCH   1  16
TORSDOF 6
ENDMDL
MODEL 6
REMARK VINA RESULT:      -8.3      5.498      8.272
REMARK  Name = 
REMARK  7 active torsions:
REMARK  status: ('A' for Active; 'I' for Inactive)
REMARK    1  A    between atoms: C_1  and  C_2
REMARK    2  A    between atoms: C_5  and  O_6
REMARK    3  A    between atoms: O_6  and  C_7
REMARK    4  A    between atoms: C_7  and  C_8
REMARK    5  A    between atoms: N_10  and  C_11
REMARK    6  A    between atoms: C_11  and  N_13
REMARK    7  A    between atoms: N_13  and  C_14
REMARK                            x       y       z     vdW  Elec       q    Type
REMARK                         _______ _______ _______ _____ _____    ______ ____
ROOT
ATOM      1  C   UNL     1       1.652   8.406  20.207  0.00  0.00    +0.000 C 
ATOM      2  S   UNL     1       0.957   9.108  21.567  0.00  0.00    +0.000 S 
ENDROOT
BRANCH   1   5
ATOM      3  C   UNL     1       1.438  10.208  18.524  0.00  0.00    +0.000 C 
ATOM      4  O   UNL     1       2.244  10.986  18.003  0.00  0.00    +0.000 OA
ATOM      5  N   UNL     1       1.926   9.006  19.022  0.00  0.00    +0.000 N 
ATOM      6  H   UNL     1       2.912   8.917  18.801  0.00  0.00    +0.000 HD
BRANCH   3   7
ATOM      7  C   UNL     1      -0.061  10.580  18.643  0.00  0.00    +0.000 C 
BRANCH   7   8
ATOM      8  O   UNL     1      -0.882   9.931  17.685  0.00  0.00    +0.000 OA
BRANCH   8  13
ATOM      9  C   UNL     1      -5.997  12.354  17.097  0.00  0.00    +0.000 C 
ATOM     10  C   UNL     1      -4.645  11.679  17.205  0.00  0.00    +0.000 A 
ATOM     11  C   UNL     1      -4.117  10.973  16.128  0.00  0.00    +0.000 A 
ATOM     12  C   UNL     1      -2.843  10.417  16.245  0.00  0.00    +0.000 A 
ATOM     13  C   UNL     1      -2.123  10.454  17.447  0.00  0.00    +0.000 A 
ATOM     14  C   UNL     1      -2.680  11.142  18.516  0.00  0.00    +0.000 A 
ATOM     15  C   UNL     1      -3.938  11.740  18.408  0.00  0.00    +0.000 A 
ENDBRANCH   8  13
ENDBRANCH   7   8
ENDBRANCH   3   7
ENDBRANCH   1   5
BRANCH   1  16
ATOM     16  N   UNL     1       2.011   7.133  20.419  0.00  0.00    +0.000 N 
ATOM     17  H   UNL     1       2.305   7.113  21.399  0.00  0.00    +0.000 HD
BRANCH  16  18
ATOM     18  C   UNL     1       2.189   5.873  19.815  0.00  0.00    +0.000 A 
ATOM     19  C   UNL     1       1.257   4.966  20.421  0.00  0.00    +0.000 A 
ATOM     20  C   UNL     1       1.042   3.700  19.916  0.00  0.00    +0.000 A 
ATOM     21  C   UNL     1       2.147   3.156  19.316  0.00  0.00    +0.000 A 
ATOM     22  C   UNL     1       3.012   3.983  18.639  0.00  0.00    +0.000 A 
ATOM     23  C   UNL     1       3.766   3.206  17.775  0.00  0.00    +0.000 A 
ATOM     24  C   UNL     1       4.524   3.781  16.777  0.00  0.00    +0.000 A 
ATOM     25  C   UNL     1       4.512   5.183  16.740  0.00  0.00    +0.000 A 
ATOM     26  C   UNL     1       3.801   5.965  17.709  0.00  0.00    +0.000 A 
ATOM     27  C   UNL     1       3.009   5.365  18.738  0.00  0.00    +0.000 A 
ATOM     28  C   UNL     1       3.528   1.743  18.025  0.00  0.00    +0.000 C 
ATOM     29  C   UNL     1       2.493   1.730  19.171  0.00  0.00    +0.000 C 
ENDBRANCH  16  18
ENDBRANCH   1  16
TORSDOF 6
ENDMDL
MODEL 7
REMARK VINA RESULT:      -8.2      3.020      4.447
REMARK  Name = 
REMARK  7 active torsions:
REMARK  status: ('A' for Active; 'I' for Inactive)
REMARK    1  A    between atoms: C_1  and  C_2
REMARK    2  A    between atoms: C_5  and  O_6
REMARK    3  A    between atoms: O_6  and  C_7
REMARK    4  A    between atoms: C_7  and  C_8
REMARK    5  A    between atoms: N_10  and  C_11
REMARK    6  A    between atoms: C_11  and  N_13
REMARK    7  A    between atoms: N_13  and  C_14
REMARK                            x       y       z     vdW  Elec       q    Type
REMARK                         _______ _______ _______ _____ _____    ______ ____
ROOT
ATOM      1  C   UNL     1       5.971   4.112  16.038  0.00  0.00    +0.000 C 
ATOM      2  S   UNL     1       6.133   4.093  14.365  0.00  0.00    +0.000 S 
ENDROOT
BRANCH   1   5
ATOM      3  C   UNL     1       6.382   5.826  17.775  0.00  0.00    +0.000 C 
ATOM      4  O   UNL     1       6.765   5.774  18.950  0.00  0.00    +0.000 OA
ATOM      5  N   UNL     1       6.741   4.784  16.929  0.00  0.00    +0.000 N 
ATOM      6  H   UNL     1       7.360   4.143  17.415  0.00  0.00    +0.000 HD
BRANCH   3   7
ATOM      7  C   UNL     1       5.505   7.002  17.280  0.00  0.00    +0.000 C 
BRANCH   7   8
ATOM      8  O   UNL     1       4.129   6.676  17.176  0.00  0.00    +0.000 OA
BRANCH   8  13
ATOM      9  C   UNL     1       0.379   9.347  20.520  0.00  0.00    +0.000 C 
ATOM     10  C   UNL     1       1.395   8.605  19.676  0.00  0.00    +0.000 A 
ATOM     11  C   UNL     1       2.026   7.466  20.164  0.00  0.00    +0.000 A 
ATOM     12  C   UNL     1       2.910   6.775  19.335  0.00  0.00    +0.000 A 
ATOM     13  C   UNL     1       3.265   7.252  18.066  0.00  0.00    +0.000 A 
ATOM     14  C   UNL     1       2.642   8.405  17.608  0.00  0.00    +0.000 A 
ATOM     15  C   UNL     1       1.724   9.091  18.408  0.00  0.00    +0.000 A 
ENDBRANCH   8  13
ENDBRANCH   7   8
ENDBRANCH   3   7
ENDBRANCH   1   5
BRANCH   1  16
ATOM     16  N   UNL     1       4.901   3.423  16.454  0.00  0.00    +0.000 N 
ATOM     17  H   UNL     1       4.700   2.778  15.684  0.00  0.00    +0.000 HD
BRANCH  16  18
ATOM     18  C   UNL     1       3.945   3.292  17.480  0.00  0.00    +0.000 A 
ATOM     19  C   UNL     1       2.686   3.745  16.962  0.00  0.00    +0.000 A 
ATOM     20  C   UNL     1       1.507   3.562  17.655  0.00  0.00    +0.000 A 
ATOM     21  C   UNL     1       1.666   3.573  19.016  0.00  0.00    +0.000 A 
ATOM     22  C   UNL     1       2.819   3.054  19.556  0.00  0.00    +0.000 A 
ATOM     23  C   UNL     1       2.581   2.765  20.890  0.00  0.00    +0.000 A 
ATOM     24  C   UNL     1       3.458   1.992  21.619  0.00  0.00    +0.000 A 
ATOM     25  C   UNL     1       4.608   1.571  20.934  0.00  0.00    +0.000 A 
ATOM     26  C   UNL     1       4.878   1.968  19.583  0.00  0.00    +0.000 A 
ATOM     27  C   UNL     1       3.961   2.765  18.826  0.00  0.00    +0.000 A 
ATOM     28  C   UNL     1       1.245   3.302  21.322  0.00  0.00    +0.000 C 
ATOM     29  C   UNL     1       0.680   3.956  20.044  0.00  0.00    +0.000 C 
ENDBRANCH  16  18
ENDBRANCH   1  16
TORSDOF 6
ENDMDL
MODEL 8
REMARK VINA RESULT:      -8.2      3.683      6.191
REMARK  Name = 
REMARK  7 active torsions:
REMARK  status: ('A' for Active; 'I' for Inactive)
REMARK    1  A    between atoms: C_1  and  C_2
REMARK    2  A    between atoms: C_5  and  O_6
REMARK    3  A    between atoms: O_6  and  C_7
REMARK    4  A    between atoms: C_7  and  C_8
REMARK    5  A    between atoms: N_10  and  C_11
REMARK    6  A    between atoms: C_11  and  N_13
REMARK    7  A    between atoms: N_13  and  C_14
REMARK                            x       y       z     vdW  Elec       q    Type
REMARK                         _______ _______ _______ _____ _____    ______ ____
ROOT
ATOM      1  C   UNL     1       3.334   5.170  19.160  0.00  0.00    +0.000 C 
ATOM      2  S   UNL     1       2.093   4.549  18.211  0.00  0.00    +0.000 S 
ENDROOT
BRANCH   1   5
ATOM      3  C   UNL     1       5.804   5.306  19.090  0.00  0.00    +0.000 C 
ATOM      4  O   UNL     1       6.690   5.152  19.938  0.00  0.00    +0.000 OA
ATOM      5  N   UNL     1       4.587   4.671  19.301  0.00  0.00    +0.000 N 
ATOM      6  H   UNL     1       4.643   4.086  20.128  0.00  0.00    +0.000 HD
BRANCH   3   7
ATOM      7  C   UNL     1       6.041   6.204  17.851  0.00  0.00    +0.000 C 
BRANCH   7   8
ATOM      8  O   UNL     1       7.039   5.706  16.974  0.00  0.00    +0.000 OA
BRANCH   8  13
ATOM      9  C   UNL     1       5.744   3.149  12.058  0.00  0.00    +0.000 C 
ATOM     10  C   UNL     1       6.038   3.812  13.389  0.00  0.00    +0.000 A 
ATOM     11  C   UNL     1       5.275   3.513  14.513  0.00  0.00    +0.000 A 
ATOM     12  C   UNL     1       5.614   4.097  15.734  0.00  0.00    +0.000 A 
ATOM     13  C   UNL     1       6.631   5.056  15.843  0.00  0.00    +0.000 A 
ATOM     14  C   UNL     1       7.363   5.357  14.703  0.00  0.00    +0.000 A 
ATOM     15  C   UNL     1       7.064   4.754  13.477  0.00  0.00    +0.000 A 
ENDBRANCH   8  13
ENDBRANCH   7   8
ENDBRANCH   3   7
ENDBRANCH   1   5
BRANCH   1  16
ATOM     16  N   UNL     1       2.995   6.321  19.753  0.00  0.00    +0.000 N 
ATOM     17  H   UNL     1       3.388   6.247  20.695  0.00  0.00    +0.000 HD
BRANCH  16  18
ATOM     18  C   UNL     1       2.279   7.526  19.601  0.00  0.00    +0.000 A 
ATOM     19  C   UNL     1       2.519   8.008  18.272  0.00  0.00    +0.000 A 
ATOM     20  C   UNL     1       1.806   9.065  17.743  0.00  0.00    +0.000 A 
ATOM     21  C   UNL     1       1.410   9.982  18.682  0.00  0.00    +0.000 A 
ATOM     22  C   UNL     1       1.076   9.543  19.942  0.00  0.00    +0.000 A 
ATOM     23  C   UNL     1       0.312  10.523  20.553  0.00  0.00    +0.000 A 
ATOM     24  C   UNL     1      -0.391  10.262  21.710  0.00  0.00    +0.000 A 
ATOM     25  C   UNL     1      -0.234   8.970  22.234  0.00  0.00    +0.000 A 
ATOM     26  C   UNL     1       0.642   8.005  21.635  0.00  0.00    +0.000 A 
ATOM     27  C   UNL     1       1.364   8.278  20.429  0.00  0.00    +0.000 A 
ATOM     28  C   UNL     1       0.293  11.779  19.727  0.00  0.00    +0.000 C 
ATOM     29  C   UNL     1       1.152  11.422  18.495  0.00  0.00    +0.000 C 
ENDBRANCH  16  18
ENDBRANCH   1  16
TORSDOF 6
ENDMDL
MODEL 9
REMARK VINA RESULT:      -8.2      0.950      1.228
REMARK  Name = 
REMARK  7 active torsions:
REMARK  status: ('A' for Active; 'I' for Inactive)
REMARK    1  A    between atoms: C_1  and  C_2
REMARK    2  A    between atoms: C_5  and  O_6
REMARK    3  A    between atoms: O_6  and  C_7
REMARK    4  A    between atoms: C_7  and  C_8
REMARK    5  A    between atoms: N_10  and  C_11
REMARK    6  A    between atoms: C_11  and  N_13
REMARK    7  A    between atoms: N_13  and  C_14
REMARK                            x       y       z     vdW  Elec       q    Type
REMARK                         _______ _______ _______ _____ _____    ______ ____
ROOT
ATOM      1  C   UNL     1       6.508   4.875  16.458  0.00  0.00    +0.000 C 
ATOM      2  S   UNL     1       6.663   4.790  14.786  0.00  0.00    +0.000 S 
ENDROOT
BRANCH   1   5
ATOM      3  C   UNL     1       7.770   6.382  17.960  0.00  0.00    +0.000 C 
ATOM      4  O   UNL     1       7.985   6.388  19.178  0.00  0.00    +0.000 OA
ATOM      5  N   UNL     1       7.479   5.165  17.358  0.00  0.00    +0.000 N 
ATOM      6  H   UNL     1       7.566   4.415  18.037  0.00  0.00    +0.000 HD
BRANCH   3   7
ATOM      7  C   UNL     1       7.796   7.699  17.146  0.00  0.00    +0.000 C 
BRANCH   7   8
ATOM      8  O   UNL     1       7.325   8.823  17.872  0.00  0.00    +0.000 OA
BRANCH   8  13
ATOM      9  C   UNL     1      10.803  13.174  19.035  0.00  0.00    +0.000 C 
ATOM     10  C   UNL     1       9.914  11.980  18.753  0.00  0.00    +0.000 A 
ATOM     11  C   UNL     1      10.122  10.771  19.408  0.00  0.00    +0.000 A 
ATOM     12  C   UNL     1       9.245   9.712  19.167  0.00  0.00    +0.000 A 
ATOM     13  C   UNL     1       8.228   9.793  18.207  0.00  0.00    +0.000 A 
ATOM     14  C   UNL     1       8.054  11.002  17.546  0.00  0.00    +0.000 A 
ATOM     15  C   UNL     1       8.897  12.087  17.801  0.00  0.00    +0.000 A 
ENDBRANCH   8  13
ENDBRANCH   7   8
ENDBRANCH   3   7
ENDBRANCH   1   5
BRANCH   1  16
ATOM     16  N   UNL     1       5.244   4.694  16.861  0.00  0.00    +0.000 N 
ATOM     17  H   UNL     1       4.918   3.887  16.321  0.00  0.00    +0.000 HD
BRANCH  16  18
ATOM     18  C   UNL     1       4.211   5.206  17.670  0.00  0.00    +0.000 A 
ATOM     19  C   UNL     1       4.144   6.621  17.444  0.00  0.00    +0.000 A 
ATOM     20  C   UNL     1       3.107   7.387  17.938  0.00  0.00    +0.000 A 
ATOM     21  C   UNL     1       2.591   6.915  19.116  0.00  0.00    +0.000 A 
ATOM     22  C   UNL     1       2.547   5.556  19.327  0.00  0.00    +0.000 A 
ATOM     23  C   UNL     1       1.622   5.303  20.326  0.00  0.00    +0.000 A 
ATOM     24  C   UNL     1       1.165   4.025  20.567  0.00  0.00    +0.000 A 
ATOM     25  C   UNL     1       1.736   3.019  19.772  0.00  0.00    +0.000 A 
ATOM     26  C   UNL     1       2.765   3.297  18.813  0.00  0.00    +0.000 A 
ATOM     27  C   UNL     1       3.231   4.626  18.560  0.00  0.00    +0.000 A 
ATOM     28  C   UNL     1       1.157   6.584  20.960  0.00  0.00    +0.000 C 
ATOM     29  C   UNL     1       1.925   7.677  20.188  0.00  0.00    +0.000 C 
ENDBRANCH  16  18
ENDBRANCH   1  16
TORSDOF 6
ENDMDL
