MODEL 1
REMARK VINA RESULT:      -7.9      0.000      0.000
REMARK  Name = 
REMARK  1 active torsions:
REMARK  status: ('A' for Active; 'I' for Inactive)
REMARK    1  A    between atoms: C_15  and  C_16
REMARK                            x       y       z     vdW  Elec       q    Type
REMARK                         _______ _______ _______ _____ _____    ______ ____
ROOT
ATOM      1  O   UNL     1       8.453   6.190  19.368  0.00  0.00    +0.000 OA
ATOM      2  C   UNL     1       7.496   5.762  18.736  0.00  0.00    +0.000 C 
ATOM      3  N   UNL     1       7.448   5.799  17.363  0.00  0.00    +0.000 N 
ATOM      4  C   UNL     1       6.459   5.190  16.622  0.00  0.00    +0.000 A 
ATOM      5  C   UNL     1       5.329   4.816  17.238  0.00  0.00    +0.000 A 
ATOM      6  C   UNL     1       4.271   4.115  16.477  0.00  0.00    +0.000 A 
ATOM      7  O   UNL     1       3.101   4.057  16.828  0.00  0.00    +0.000 OA
ATOM      8  O   UNL     1       4.689   3.463  15.328  0.00  0.00    +0.000 OA
ATOM      9  C   UNL     1       5.765   3.997  14.612  0.00  0.00    +0.000 A 
ATOM     10  C   UNL     1       5.878   3.596  13.284  0.00  0.00    +0.000 A 
ATOM     11  C   UNL     1       6.875   4.153  12.491  0.00  0.00    +0.000 A 
ATOM     12  C   UNL     1       7.743   5.098  13.042  0.00  0.00    +0.000 A 
ATOM     13  C   UNL     1       7.634   5.472  14.385  0.00  0.00    +0.000 A 
ATOM     14  C   UNL     1       6.642   4.915  15.196  0.00  0.00    +0.000 A 
ATOM     15  C   UNL     1       5.136   5.215  18.679  0.00  0.00    +0.000 C 
ATOM     16  N   UNL     1       6.422   5.165  19.342  0.00  0.00    +0.000 N 
ATOM     17  H   UNL     1       8.283   6.158  16.928  0.00  0.00    +0.000 HD
ATOM     18  H   UNL     1       6.451   5.196  20.352  0.00  0.00    +0.000 HD
ENDROOT
BRANCH  15  19
ATOM     19  C   UNL     1       4.053   4.493  19.450  0.00  0.00    +0.000 A 
ATOM     20  C   UNL     1       2.952   5.161  20.002  0.00  0.00    +0.000 A 
ATOM     21  C   UNL     1       2.148   4.519  20.949  0.00  0.00    +0.000 A 
ATOM     22  C   UNL     1       2.416   3.202  21.324  0.00  0.00    +0.000 A 
ATOM     23  C   UNL     1       3.455   2.502  20.720  0.00  0.00    +0.000 A 
ATOM     24  C   UNL     1       4.261   3.139  19.778  0.00  0.00    +0.000 A 
ENDBRANCH  15  19
TORSDOF 1
ENDMDL
MODEL 2
REMARK VINA RESULT:      -7.8      0.414      1.109
REMARK  Name = 
REMARK  1 active torsions:
REMARK  status: ('A' for Active; 'I' for Inactive)
REMARK    1  A    between atoms: C_15  and  C_16
REMARK                            x       y       z     vdW  Elec       q    Type
REMARK                         _______ _______ _______ _____ _____    ______ ____
ROOT
ATOM      1  O   UNL     1       8.509   6.792  19.003  0.00  0.00    +0.000 OA
ATOM      2  C   UNL     1       7.577   6.230  18.443  0.00  0.00    +0.000 C 
ATOM      3  N   UNL     1       7.486   6.148  17.075  0.00  0.00    +0.000 N 
ATOM      4  C   UNL     1       6.534   5.393  16.421  0.00  0.00    +0.000 A 
ATOM      5  C   UNL     1       5.462   4.974  17.107  0.00  0.00    +0.000 A 
ATOM      6  C   UNL     1       4.451   4.121  16.444  0.00  0.00    +0.000 A 
ATOM      7  O   UNL     1       3.301   3.989  16.842  0.00  0.00    +0.000 OA
ATOM      8  O   UNL     1       4.892   3.415  15.338  0.00  0.00    +0.000 OA
ATOM      9  C   UNL     1       5.893   3.980  14.541  0.00  0.00    +0.000 A 
ATOM     10  C   UNL     1       6.003   3.482  13.246  0.00  0.00    +0.000 A 
ATOM     11  C   UNL     1       6.922   4.057  12.375  0.00  0.00    +0.000 A 
ATOM     12  C   UNL     1       7.716   5.117  12.816  0.00  0.00    +0.000 A 
ATOM     13  C   UNL     1       7.613   5.591  14.128  0.00  0.00    +0.000 A 
ATOM     14  C   UNL     1       6.700   5.018  15.017  0.00  0.00    +0.000 A 
ATOM     15  C   UNL     1       5.276   5.474  18.518  0.00  0.00    +0.000 C 
ATOM     16  N   UNL     1       6.581   5.593  19.134  0.00  0.00    +0.000 N 
ATOM     17  H   UNL     1       8.271   6.542  16.582  0.00  0.00    +0.000 HD
ATOM     18  H   UNL     1       6.636   5.710  20.137  0.00  0.00    +0.000 HD
ENDROOT
BRANCH  15  19
ATOM     19  C   UNL     1       4.287   4.725  19.383  0.00  0.00    +0.000 A 
ATOM     20  C   UNL     1       4.431   3.363  19.683  0.00  0.00    +0.000 A 
ATOM     21  C   UNL     1       3.357   2.649  20.221  0.00  0.00    +0.000 A 
ATOM     22  C   UNL     1       2.149   3.291  20.494  0.00  0.00    +0.000 A 
ATOM     23  C   UNL     1       2.022   4.660  20.279  0.00  0.00    +0.000 A 
ATOM     24  C   UNL     1       3.089   5.376  19.739  0.00  0.00    +0.000 A 
ENDBRANCH  15  19
TORSDOF 1
ENDMDL
MODEL 3
REMARK VINA RESULT:      -7.0      3.011      6.679
REMARK  Name = 
REMARK  1 active torsions:
REMARK  status: ('A' for Active; 'I' for Inactive)
REMARK    1  A    between atoms: C_15  and  C_16
REMARK                            x       y       z     vdW  Elec       q    Type
REMARK                         _______ _______ _______ _____ _____    ______ ____
ROOT
ATOM      1  O   UNL     1       2.618   2.753  22.008  0.00  0.00    +0.000 OA
ATOM      2  C   UNL     1       2.732   3.607  21.137  0.00  0.00    +0.000 C 
ATOM      3  N   UNL     1       1.889   4.689  21.057  0.00  0.00    +0.000 N 
ATOM      4  C   UNL     1       2.085   5.740  20.186  0.00  0.00    +0.000 A 
ATOM      5  C   UNL     1       2.932   5.578  19.161  0.00  0.00    +0.000 A 
ATOM      6  C   UNL     1       3.199   6.706  18.240  0.00  0.00    +0.000 A 
ATOM      7  O   UNL     1       3.646   6.574  17.109  0.00  0.00    +0.000 OA
ATOM      8  O   UNL     1       2.955   7.970  18.752  0.00  0.00    +0.000 OA
ATOM      9  C   UNL     1       1.932   8.122  19.692  0.00  0.00    +0.000 A 
ATOM     10  C   UNL     1       1.432   9.412  19.854  0.00  0.00    +0.000 A 
ATOM     11  C   UNL     1       0.358   9.620  20.712  0.00  0.00    +0.000 A 
ATOM     12  C   UNL     1      -0.195   8.535  21.395  0.00  0.00    +0.000 A 
ATOM     13  C   UNL     1       0.333   7.249  21.243  0.00  0.00    +0.000 A 
ATOM     14  C   UNL     1       1.418   7.026  20.391  0.00  0.00    +0.000 A 
ATOM     15  C   UNL     1       3.513   4.207  18.923  0.00  0.00    +0.000 C 
ATOM     16  N   UNL     1       3.738   3.580  20.208  0.00  0.00    +0.000 N 
ATOM     17  H   UNL     1       1.210   4.743  21.800  0.00  0.00    +0.000 HD
ATOM     18  H   UNL     1       4.314   2.749  20.250  0.00  0.00    +0.000 HD
ENDROOT
BRANCH  15  19
ATOM     19  C   UNL     1       4.717   4.123  18.012  0.00  0.00    +0.000 A 
ATOM     20  C   UNL     1       5.985   4.579  18.400  0.00  0.00    +0.000 A 
ATOM     21  C   UNL     1       6.985   4.762  17.440  0.00  0.00    +0.000 A 
ATOM     22  C   UNL     1       6.740   4.461  16.100  0.00  0.00    +0.000 A 
ATOM     23  C   UNL     1       5.513   3.929  15.718  0.00  0.00    +0.000 A 
ATOM     24  C   UNL     1       4.511   3.748  16.670  0.00  0.00    +0.000 A 
ENDBRANCH  15  19
TORSDOF 1
ENDMDL
MODEL 4
REMARK VINA RESULT:      -7.0      2.298      6.265
REMARK  Name = 
REMARK  1 active torsions:
REMARK  status: ('A' for Active; 'I' for Inactive)
REMARK    1  A    between atoms: C_15  and  C_16
REMARK                            x       y       z     vdW  Elec       q    Type
REMARK                         _______ _______ _______ _____ _____    ______ ____
ROOT
ATOM      1  O   UNL     1       4.637   2.021  20.622  0.00  0.00    +0.000 OA
ATOM      2  C   UNL     1       4.449   2.954  19.851  0.00  0.00    +0.000 C 
ATOM      3  N   UNL     1       3.444   3.872  20.041  0.00  0.00    +0.000 N 
ATOM      4  C   UNL     1       3.304   5.013  19.280  0.00  0.00    +0.000 A 
ATOM      5  C   UNL     1       3.960   5.094  18.115  0.00  0.00    +0.000 A 
ATOM      6  C   UNL     1       3.868   6.327  17.301  0.00  0.00    +0.000 A 
ATOM      7  O   UNL     1       4.112   6.376  16.104  0.00  0.00    +0.000 OA
ATOM      8  O   UNL     1       3.525   7.478  17.991  0.00  0.00    +0.000 OA
ATOM      9  C   UNL     1       2.683   7.363  19.103  0.00  0.00    +0.000 A 
ATOM     10  C   UNL     1       2.023   8.524  19.496  0.00  0.00    +0.000 A 
ATOM     11  C   UNL     1       1.108   8.462  20.541  0.00  0.00    +0.000 A 
ATOM     12  C   UNL     1       0.872   7.241  21.176  0.00  0.00    +0.000 A 
ATOM     13  C   UNL     1       1.561   6.087  20.787  0.00  0.00    +0.000 A 
ATOM     14  C   UNL     1       2.490   6.137  19.744  0.00  0.00    +0.000 A 
ATOM     15  C   UNL     1       4.698   3.874  17.623  0.00  0.00    +0.000 C 
ATOM     16  N   UNL     1       5.256   3.188  18.769  0.00  0.00    +0.000 N 
ATOM     17  H   UNL     1       2.916   3.739  20.889  0.00  0.00    +0.000 HD
ATOM     18  H   UNL     1       5.954   2.473  18.615  0.00  0.00    +0.000 HD
ENDROOT
BRANCH  15  19
ATOM     19  C   UNL     1       5.710   4.086  16.519  0.00  0.00    +0.000 A 
ATOM     20  C   UNL     1       6.896   4.808  16.715  0.00  0.00    +0.000 A 
ATOM     21  C   UNL     1       7.644   5.234  15.614  0.00  0.00    +0.000 A 
ATOM     22  C   UNL     1       7.236   4.917  14.319  0.00  0.00    +0.000 A 
ATOM     23  C   UNL     1       6.107   4.129  14.116  0.00  0.00    +0.000 A 
ATOM     24  C   UNL     1       5.356   3.705  15.210  0.00  0.00    +0.000 A 
ENDBRANCH  15  19
TORSDOF 1
ENDMDL
MODEL 5
REMARK VINA RESULT:      -6.9      3.474      6.984
REMARK  Name = 
REMARK  1 active torsions:
REMARK  status: ('A' for Active; 'I' for Inactive)
REMARK    1  A    between atoms: C_15  and  C_16
REMARK                            x       y       z     vdW  Elec       q    Type
REMARK                         _______ _______ _______ _____ _____    ______ ____
ROOT
ATOM      1  O   UNL     1       2.415   3.608  22.017  0.00  0.00    +0.000 OA
ATOM      2  C   UNL     1       2.480   4.462  21.141  0.00  0.00    +0.000 C 
ATOM      3  N   UNL     1       1.624   5.535  21.099  0.00  0.00    +0.000 N 
ATOM      4  C   UNL     1       1.769   6.587  20.219  0.00  0.00    +0.000 A 
ATOM      5  C   UNL     1       2.569   6.433  19.157  0.00  0.00    +0.000 A 
ATOM      6  C   UNL     1       2.783   7.562  18.224  0.00  0.00    +0.000 A 
ATOM      7  O   UNL     1       3.179   7.433  17.074  0.00  0.00    +0.000 OA
ATOM      8  O   UNL     1       2.549   8.824  18.745  0.00  0.00    +0.000 OA
ATOM      9  C   UNL     1       1.568   8.967  19.731  0.00  0.00    +0.000 A 
ATOM     10  C   UNL     1       1.063  10.251  19.914  0.00  0.00    +0.000 A 
ATOM     11  C   UNL     1       0.026  10.449  20.820  0.00  0.00    +0.000 A 
ATOM     12  C   UNL     1      -0.484   9.359  21.529  0.00  0.00    +0.000 A 
ATOM     13  C   UNL     1       0.050   8.078  21.354  0.00  0.00    +0.000 A 
ATOM     14  C   UNL     1       1.098   7.866  20.453  0.00  0.00    +0.000 A 
ATOM     15  C   UNL     1       3.153   5.067  18.894  0.00  0.00    +0.000 C 
ATOM     16  N   UNL     1       3.444   4.444  20.168  0.00  0.00    +0.000 N 
ATOM     17  H   UNL     1       0.979   5.583  21.872  0.00  0.00    +0.000 HD
ATOM     18  H   UNL     1       4.029   3.620  20.184  0.00  0.00    +0.000 HD
ENDROOT
BRANCH  15  19
ATOM     19  C   UNL     1       4.316   4.995  17.929  0.00  0.00    +0.000 A 
ATOM     20  C   UNL     1       4.220   4.358  16.684  0.00  0.00    +0.000 A 
ATOM     21  C   UNL     1       5.380   4.051  15.966  0.00  0.00    +0.000 A 
ATOM     22  C   UNL     1       6.633   4.405  16.465  0.00  0.00    +0.000 A 
ATOM     23  C   UNL     1       6.734   5.112  17.659  0.00  0.00    +0.000 A 
ATOM     24  C   UNL     1       5.582   5.417  18.381  0.00  0.00    +0.000 A 
ENDBRANCH  15  19
TORSDOF 1
ENDMDL
MODEL 6
REMARK VINA RESULT:      -6.8      9.296     11.237
REMARK  Name = 
REMARK  1 active torsions:
REMARK  status: ('A' for Active; 'I' for Inactive)
REMARK    1  A    between atoms: C_15  and  C_16
REMARK                            x       y       z     vdW  Elec       q    Type
REMARK                         _______ _______ _______ _____ _____    ______ ____
ROOT
ATOM      1  O   UNL     1       0.804   8.887  21.312  0.00  0.00    +0.000 OA
ATOM      2  C   UNL     1      -0.017   9.759  21.058  0.00  0.00    +0.000 C 
ATOM      3  N   UNL     1      -0.464   9.994  19.780  0.00  0.00    +0.000 N 
ATOM      4  C   UNL     1      -1.495  10.861  19.485  0.00  0.00    +0.000 A 
ATOM      5  C   UNL     1      -1.877  11.748  20.412  0.00  0.00    +0.000 A 
ATOM      6  C   UNL     1      -3.014  12.657  20.141  0.00  0.00    +0.000 A 
ATOM      7  O   UNL     1      -3.207  13.707  20.737  0.00  0.00    +0.000 OA
ATOM      8  O   UNL     1      -3.910  12.226  19.176  0.00  0.00    +0.000 OA
ATOM      9  C   UNL     1      -3.427  11.448  18.119  0.00  0.00    +0.000 A 
ATOM     10  C   UNL     1      -4.223  11.401  16.977  0.00  0.00    +0.000 A 
ATOM     11  C   UNL     1      -3.764  10.713  15.859  0.00  0.00    +0.000 A 
ATOM     12  C   UNL     1      -2.519  10.082  15.904  0.00  0.00    +0.000 A 
ATOM     13  C   UNL     1      -1.741  10.115  17.067  0.00  0.00    +0.000 A 
ATOM     14  C   UNL     1      -2.194  10.796  18.200  0.00  0.00    +0.000 A 
ATOM     15  C   UNL     1      -1.062  11.856  21.677  0.00  0.00    +0.000 C 
ATOM     16  N   UNL     1      -0.594  10.532  22.030  0.00  0.00    +0.000 N 
ATOM     17  H   UNL     1      -0.099   9.359  19.089  0.00  0.00    +0.000 HD
ATOM     18  H   UNL     1      -0.213  10.382  22.955  0.00  0.00    +0.000 HD
ENDROOT
BRANCH  15  19
ATOM     19  C   UNL     1      -1.698  12.581  22.841  0.00  0.00    +0.000 A 
ATOM     20  C   UNL     1      -2.897  12.152  23.428  0.00  0.00    +0.000 A 
ATOM     21  C   UNL     1      -3.599  13.005  24.285  0.00  0.00    +0.000 A 
ATOM     22  C   UNL     1      -3.098  14.271  24.587  0.00  0.00    +0.000 A 
ATOM     23  C   UNL     1      -1.868  14.674  24.077  0.00  0.00    +0.000 A 
ATOM     24  C   UNL     1      -1.166  13.829  23.219  0.00  0.00    +0.000 A 
ENDBRANCH  15  19
TORSDOF 1
ENDMDL
MODEL 7
REMARK VINA RESULT:      -6.6      5.917      8.048
REMARK  Name = 
REMARK  1 active torsions:
REMARK  status: ('A' for Active; 'I' for Inactive)
REMARK    1  A    between atoms: C_15  and  C_16
REMARK                            x       y       z     vdW  Elec       q    Type
REMARK                         _______ _______ _______ _____ _____    ______ ____
ROOT
ATOM      1  O   UNL     1      -0.006   9.231  23.434  0.00  0.00    +0.000 OA
ATOM      2  C   UNL     1       0.455   9.215  22.300  0.00  0.00    +0.000 C 
ATOM      3  N   UNL     1       1.199   8.162  21.825  0.00  0.00    +0.000 N 
ATOM      4  C   UNL     1       1.600   8.048  20.511  0.00  0.00    +0.000 A 
ATOM      5  C   UNL     1       1.548   9.131  19.725  0.00  0.00    +0.000 A 
ATOM      6  C   UNL     1       1.925   9.025  18.297  0.00  0.00    +0.000 A 
ATOM      7  O   UNL     1       2.255   9.977  17.605  0.00  0.00    +0.000 OA
ATOM      8  O   UNL     1       1.838   7.757  17.746  0.00  0.00    +0.000 OA
ATOM      9  C   UNL     1       2.082   6.653  18.570  0.00  0.00    +0.000 A 
ATOM     10  C   UNL     1       2.412   5.465  17.925  0.00  0.00    +0.000 A 
ATOM     11  C   UNL     1       2.747   4.351  18.687  0.00  0.00    +0.000 A 
ATOM     12  C   UNL     1       2.743   4.444  20.079  0.00  0.00    +0.000 A 
ATOM     13  C   UNL     1       2.384   5.638  20.715  0.00  0.00    +0.000 A 
ATOM     14  C   UNL     1       2.037   6.763  19.963  0.00  0.00    +0.000 A 
ATOM     15  C   UNL     1       1.198  10.456  20.355  0.00  0.00    +0.000 C 
ATOM     16  N   UNL     1       0.221  10.219  21.397  0.00  0.00    +0.000 N 
ATOM     17  H   UNL     1       1.287   7.392  22.469  0.00  0.00    +0.000 HD
ATOM     18  H   UNL     1      -0.282  11.008  21.781  0.00  0.00    +0.000 HD
ENDROOT
BRANCH  15  19
ATOM     19  C   UNL     1       0.794  11.573  19.419  0.00  0.00    +0.000 A 
ATOM     20  C   UNL     1       1.596  12.704  19.211  0.00  0.00    +0.000 A 
ATOM     21  C   UNL     1       1.059  13.834  18.587  0.00  0.00    +0.000 A 
ATOM     22  C   UNL     1      -0.262  13.832  18.139  0.00  0.00    +0.000 A 
ATOM     23  C   UNL     1      -1.039  12.686  18.264  0.00  0.00    +0.000 A 
ATOM     24  C   UNL     1      -0.511  11.558  18.889  0.00  0.00    +0.000 A 
ENDBRANCH  15  19
TORSDOF 1
ENDMDL
MODEL 8
REMARK VINA RESULT:      -6.5      2.289      3.008
REMARK  Name = 
REMARK  1 active torsions:
REMARK  status: ('A' for Active; 'I' for Inactive)
REMARK    1  A    between atoms: C_15  and  C_16
REMARK                            x       y       z     vdW  Elec       q    Type
REMARK                         _______ _______ _______ _____ _____    ______ ____
ROOT
ATOM      1  O   UNL     1       2.514   8.984  18.277  0.00  0.00    +0.000 OA
ATOM      2  C   UNL     1       2.772   7.791  18.179  0.00  0.00    +0.000 C 
ATOM      3  N   UNL     1       3.510   7.284  17.138  0.00  0.00    +0.000 N 
ATOM      4  C   UNL     1       3.944   5.976  17.081  0.00  0.00    +0.000 A 
ATOM      5  C   UNL     1       3.377   5.074  17.893  0.00  0.00    +0.000 A 
ATOM      6  C   UNL     1       3.857   3.674  17.889  0.00  0.00    +0.000 A 
ATOM      7  O   UNL     1       3.202   2.725  18.298  0.00  0.00    +0.000 OA
ATOM      8  O   UNL     1       5.149   3.483  17.427  0.00  0.00    +0.000 OA
ATOM      9  C   UNL     1       5.638   4.345  16.440  0.00  0.00    +0.000 A 
ATOM     10  C   UNL     1       6.727   3.883  15.706  0.00  0.00    +0.000 A 
ATOM     11  C   UNL     1       7.211   4.654  14.654  0.00  0.00    +0.000 A 
ATOM     12  C   UNL     1       6.599   5.874  14.358  0.00  0.00    +0.000 A 
ATOM     13  C   UNL     1       5.521   6.337  15.121  0.00  0.00    +0.000 A 
ATOM     14  C   UNL     1       5.030   5.577  16.185  0.00  0.00    +0.000 A 
ATOM     15  C   UNL     1       2.190   5.502  18.719  0.00  0.00    +0.000 C 
ATOM     16  N   UNL     1       2.391   6.877  19.125  0.00  0.00    +0.000 N 
ATOM     17  H   UNL     1       3.860   7.980  16.498  0.00  0.00    +0.000 HD
ATOM     18  H   UNL     1       1.803   7.259  19.854  0.00  0.00    +0.000 HD
ENDROOT
BRANCH  15  19
ATOM     19  C   UNL     1       1.799   4.603  19.871  0.00  0.00    +0.000 A 
ATOM     20  C   UNL     1       2.522   4.564  21.072  0.00  0.00    +0.000 A 
ATOM     21  C   UNL     1       2.315   3.520  21.978  0.00  0.00    +0.000 A 
ATOM     22  C   UNL     1       1.368   2.532  21.711  0.00  0.00    +0.000 A 
ATOM     23  C   UNL     1       0.586   2.607  20.562  0.00  0.00    +0.000 A 
ATOM     24  C   UNL     1       0.791   3.644  19.654  0.00  0.00    +0.000 A 
ENDBRANCH  15  19
TORSDOF 1
ENDMDL
MODEL 9
REMARK VINA RESULT:      -6.5      9.922     12.388
REMARK  Name = 
REMARK  1 active torsions:
REMARK  status: ('A' for Active; 'I' for Inactive)
REMARK    1  A    between atoms: C_15  and  C_16
REMARK                            x       y       z     vdW  Elec       q    Type
REMARK                         _______ _______ _______ _____ _____    ______ ____
ROOT
ATOM      1  O   UNL     1      -2.746  10.087  14.746  0.00  0.00    +0.000 OA
ATOM      2  C   UNL     1      -2.813  10.609  15.852  0.00  0.00    +0.000 C 
ATOM      3  N   UNL     1      -3.870  11.403  16.224  0.00  0.00    +0.000 N 
ATOM      4  C   UNL     1      -4.048  11.877  17.507  0.00  0.00    +0.000 A 
ATOM      5  C   UNL     1      -3.013  11.842  18.357  0.00  0.00    +0.000 A 
ATOM      6  C   UNL     1      -3.190  12.297  19.754  0.00  0.00    +0.000 A 
ATOM      7  O   UNL     1      -2.270  12.641  20.482  0.00  0.00    +0.000 OA
ATOM      8  O   UNL     1      -4.489  12.272  20.234  0.00  0.00    +0.000 OA
ATOM      9  C   UNL     1      -5.536  12.497  19.335  0.00  0.00    +0.000 A 
ATOM     10  C   UNL     1      -6.750  12.891  19.892  0.00  0.00    +0.000 A 
ATOM     11  C   UNL     1      -7.809  13.212  19.051  0.00  0.00    +0.000 A 
ATOM     12  C   UNL     1      -7.637  13.130  17.668  0.00  0.00    +0.000 A 
ATOM     13  C   UNL     1      -6.420  12.708  17.122  0.00  0.00    +0.000 A 
ATOM     14  C   UNL     1      -5.349  12.375  17.956  0.00  0.00    +0.000 A 
ATOM     15  C   UNL     1      -1.665  11.425  17.824  0.00  0.00    +0.000 C 
ATOM     16  N   UNL     1      -1.869  10.399  16.822  0.00  0.00    +0.000 N 
ATOM     17  H   UNL     1      -4.600  11.475  15.533  0.00  0.00    +0.000 HD
ATOM     18  H   UNL     1      -1.074   9.857  16.512  0.00  0.00    +0.000 HD
ENDROOT
BRANCH  15  19
ATOM     19  C   UNL     1      -0.615  11.045  18.843  0.00  0.00    +0.000 A 
ATOM     20  C   UNL     1      -0.713   9.887  19.627  0.00  0.00    +0.000 A 
ATOM     21  C   UNL     1       0.106   9.733  20.750  0.00  0.00    +0.000 A 
ATOM     22  C   UNL     1       1.045  10.711  21.078  0.00  0.00    +0.000 A 
ATOM     23  C   UNL     1       1.209  11.823  20.259  0.00  0.00    +0.000 A 
ATOM     24  C   UNL     1       0.393  11.984  19.141  0.00  0.00    +0.000 A 
ENDBRANCH  15  19
TORSDOF 1
ENDMDL
