MODEL 1
REMARK VINA RESULT:      -8.1      0.000      0.000
REMARK  Name = 
REMARK  6 active torsions:
REMARK  status: ('A' for Active; 'I' for Inactive)
REMARK    1  A    between atoms: C_2  and  O_3
REMARK    2  A    between atoms: C_2  and  C_4
REMARK    3  A    between atoms: C_4  and  N_5
REMARK    4  A    between atoms: C_6  and  C_18
REMARK    5  A    between atoms: N_7  and  S_8
REMARK    6  A    between atoms: S_8  and  C_11
REMARK                            x       y       z     vdW  Elec       q    Type
REMARK                         _______ _______ _______ _____ _____    ______ ____
ROOT
ATOM      1  N   UNL     1       2.098   7.241  18.381  0.00  0.00    +0.000 NA
ATOM      2  C   UNL     1       2.815   6.181  18.555  0.00  0.00    +0.000 C 
ATOM      3  N   UNL     1       4.219   6.218  18.370  0.00  0.00    +0.000 N 
ATOM      4  H   UNL     1       4.637   7.055  17.968  0.00  0.00    +0.000 HD
ENDROOT
BRANCH   2   5
ATOM      5  C   UNL     1       2.117   4.922  19.030  0.00  0.00    +0.000 A 
ATOM      6  C   UNL     1       1.712   3.957  18.099  0.00  0.00    +0.000 A 
ATOM      7  C   UNL     1       1.087   2.769  18.526  0.00  0.00    +0.000 A 
ATOM      8  C   UNL     1       0.864   2.524  19.880  0.00  0.00    +0.000 A 
ATOM      9  C   UNL     1       1.231   3.473  20.810  0.00  0.00    +0.000 A 
ATOM     10  C   UNL     1       1.821   4.653  20.360  0.00  0.00    +0.000 A 
ENDBRANCH   2   5
BRANCH   3  11
ATOM     11  S   UNL     1       5.456   5.110  18.539  0.00  0.00    +0.000 S 
ATOM     12  O   UNL     1       6.602   5.758  19.131  0.00  0.00    +0.000 OA
ATOM     13  O   UNL     1       4.856   3.947  19.155  0.00  0.00    +0.000 OA
BRANCH  11  14
ATOM     14  C   UNL     1       5.886   4.622  16.868  0.00  0.00    +0.000 A 
ATOM     15  C   UNL     1       4.935   4.034  16.018  0.00  0.00    +0.000 A 
ATOM     16  C   UNL     1       5.210   3.887  14.657  0.00  0.00    +0.000 A 
ATOM     17  C   UNL     1       6.456   4.258  14.159  0.00  0.00    +0.000 A 
ATOM     18 CL   UNL     1       6.806   4.026  12.491  0.00  0.00    +0.000 Cl
ATOM     19  C   UNL     1       7.415   4.824  15.002  0.00  0.00    +0.000 A 
ATOM     20  C   UNL     1       7.125   5.032  16.355  0.00  0.00    +0.000 A 
ENDBRANCH  11  14
ENDBRANCH   3  11
BRANCH   1  21
ATOM     21  C   UNL     1       2.639   8.508  17.842  0.00  0.00    +0.000 C 
BRANCH  21  23
ATOM     22  O   UNL     1       0.898   9.686  19.069  0.00  0.00    +0.000 OA
ATOM     23  C   UNL     1       1.764   9.699  18.211  0.00  0.00    +0.000 C 
BRANCH  23  24
ATOM     24  O   UNL     1       2.051  10.791  17.456  0.00  0.00    +0.000 OA
ATOM     25  H   UNL     1       1.680  11.585  17.904  0.00  0.00    +0.000 HD
ENDBRANCH  23  24
ENDBRANCH  21  23
ENDBRANCH   1  21
TORSDOF 6
ENDMDL
MODEL 2
REMARK VINA RESULT:      -8.1      0.252      1.024
REMARK  Name = 
REMARK  6 active torsions:
REMARK  status: ('A' for Active; 'I' for Inactive)
REMARK    1  A    between atoms: C_2  and  O_3
REMARK    2  A    between atoms: C_2  and  C_4
REMARK    3  A    between atoms: C_4  and  N_5
REMARK    4  A    between atoms: C_6  and  C_18
REMARK    5  A    between atoms: N_7  and  S_8
REMARK    6  A    between atoms: S_8  and  C_11
REMARK                            x       y       z     vdW  Elec       q    Type
REMARK                         _______ _______ _______ _____ _____    ______ ____
ROOT
ATOM      1  N   UNL     1       2.180   7.313  18.377  0.00  0.00    +0.000 NA
ATOM      2  C   UNL     1       2.889   6.245  18.542  0.00  0.00    +0.000 C 
ATOM      3  N   UNL     1       4.296   6.279  18.376  0.00  0.00    +0.000 N 
ATOM      4  H   UNL     1       4.723   7.121  17.995  0.00  0.00    +0.000 HD
ENDROOT
BRANCH   2   5
ATOM      5  C   UNL     1       2.179   4.982  18.985  0.00  0.00    +0.000 A 
ATOM      6  C   UNL     1       1.901   4.781  20.344  0.00  0.00    +0.000 A 
ATOM      7  C   UNL     1       1.217   3.625  20.770  0.00  0.00    +0.000 A 
ATOM      8  C   UNL     1       0.796   2.663  19.853  0.00  0.00    +0.000 A 
ATOM      9  C   UNL     1       1.083   2.831  18.515  0.00  0.00    +0.000 A 
ATOM     10  C   UNL     1       1.787   3.967  18.122  0.00  0.00    +0.000 A 
ENDBRANCH   2   5
BRANCH   3  11
ATOM     11  S   UNL     1       5.525   5.162  18.541  0.00  0.00    +0.000 S 
ATOM     12  O   UNL     1       6.689   5.810  19.097  0.00  0.00    +0.000 OA
ATOM     13  O   UNL     1       4.926   4.018  19.193  0.00  0.00    +0.000 OA
BRANCH  11  14
ATOM     14  C   UNL     1       5.915   4.637  16.872  0.00  0.00    +0.000 A 
ATOM     15  C   UNL     1       4.967   3.960  16.086  0.00  0.00    +0.000 A 
ATOM     16  C   UNL     1       5.195   3.778  14.720  0.00  0.00    +0.000 A 
ATOM     17  C   UNL     1       6.395   4.204  14.155  0.00  0.00    +0.000 A 
ATOM     18 CL   UNL     1       6.689   3.928  12.484  0.00  0.00    +0.000 Cl
ATOM     19  C   UNL     1       7.351   4.858  14.935  0.00  0.00    +0.000 A 
ATOM     20  C   UNL     1       7.104   5.100  16.291  0.00  0.00    +0.000 A 
ENDBRANCH  11  14
ENDBRANCH   3  11
BRANCH   1  21
ATOM     21  C   UNL     1       2.734   8.587  17.868  0.00  0.00    +0.000 C 
BRANCH  21  23
ATOM     22  O   UNL     1       0.511   9.541  18.134  0.00  0.00    +0.000 OA
ATOM     23  C   UNL     1       1.689   9.694  17.859  0.00  0.00    +0.000 C 
BRANCH  23  24
ATOM     24  O   UNL     1       2.221  10.888  17.490  0.00  0.00    +0.000 OA
ATOM     25  H   UNL     1       2.440  11.395  18.304  0.00  0.00    +0.000 HD
ENDBRANCH  23  24
ENDBRANCH  21  23
ENDBRANCH   1  21
TORSDOF 6
ENDMDL
MODEL 3
REMARK VINA RESULT:      -8.0      0.682      1.256
REMARK  Name = 
REMARK  6 active torsions:
REMARK  status: ('A' for Active; 'I' for Inactive)
REMARK    1  A    between atoms: C_2  and  O_3
REMARK    2  A    between atoms: C_2  and  C_4
REMARK    3  A    between atoms: C_4  and  N_5
REMARK    4  A    between atoms: C_6  and  C_18
REMARK    5  A    between atoms: N_7  and  S_8
REMARK    6  A    between atoms: S_8  and  C_11
REMARK                            x       y       z     vdW  Elec       q    Type
REMARK                         _______ _______ _______ _____ _____    ______ ____
ROOT
ATOM      1  N   UNL     1       2.258   7.137  18.825  0.00  0.00    +0.000 NA
ATOM      2  C   UNL     1       2.894   6.013  18.835  0.00  0.00    +0.000 C 
ATOM      3  N   UNL     1       4.142   5.883  18.177  0.00  0.00    +0.000 N 
ATOM      4  H   UNL     1       4.464   6.645  17.585  0.00  0.00    +0.000 HD
ENDROOT
BRANCH   2   5
ATOM      5  C   UNL     1       2.300   4.867  19.629  0.00  0.00    +0.000 A 
ATOM      6  C   UNL     1       1.376   4.006  19.024  0.00  0.00    +0.000 A 
ATOM      7  C   UNL     1       0.834   2.920  19.739  0.00  0.00    +0.000 A 
ATOM      8  C   UNL     1       1.210   2.674  21.059  0.00  0.00    +0.000 A 
ATOM      9  C   UNL     1       2.098   3.525  21.681  0.00  0.00    +0.000 A 
ATOM     10  C   UNL     1       2.596   4.609  20.962  0.00  0.00    +0.000 A 
ENDBRANCH   2   5
BRANCH   3  11
ATOM     11  S   UNL     1       5.258   4.652  18.007  0.00  0.00    +0.000 S 
ATOM     12  O   UNL     1       6.405   4.929  18.839  0.00  0.00    +0.000 OA
ATOM     13  O   UNL     1       4.508   3.424  18.156  0.00  0.00    +0.000 OA
BRANCH  11  14
ATOM     14  C   UNL     1       5.776   4.716  16.292  0.00  0.00    +0.000 A 
ATOM     15  C   UNL     1       7.059   5.164  15.940  0.00  0.00    +0.000 A 
ATOM     16  C   UNL     1       7.531   4.978  14.638  0.00  0.00    +0.000 A 
ATOM     17  C   UNL     1       6.700   4.414  13.674  0.00  0.00    +0.000 A 
ATOM     18 CL   UNL     1       7.270   4.237  12.062  0.00  0.00    +0.000 Cl
ATOM     19  C   UNL     1       5.414   3.986  14.012  0.00  0.00    +0.000 A 
ATOM     20  C   UNL     1       4.956   4.112  15.329  0.00  0.00    +0.000 A 
ENDBRANCH  11  14
ENDBRANCH   3  11
BRANCH   1  21
ATOM     21  C   UNL     1       2.684   8.306  18.025  0.00  0.00    +0.000 C 
BRANCH  21  23
ATOM     22  O   UNL     1       0.757   9.491  18.921  0.00  0.00    +0.000 OA
ATOM     23  C   UNL     1       1.722   9.476  18.176  0.00  0.00    +0.000 C 
BRANCH  23  24
ATOM     24  O   UNL     1       2.055  10.512  17.363  0.00  0.00    +0.000 OA
ATOM     25  H   UNL     1       2.436  11.231  17.917  0.00  0.00    +0.000 HD
ENDBRANCH  23  24
ENDBRANCH  21  23
ENDBRANCH   1  21
TORSDOF 6
ENDMDL
MODEL 4
REMARK VINA RESULT:      -7.8      0.391      1.469
REMARK  Name = 
REMARK  6 active torsions:
REMARK  status: ('A' for Active; 'I' for Inactive)
REMARK    1  A    between atoms: C_2  and  O_3
REMARK    2  A    between atoms: C_2  and  C_4
REMARK    3  A    between atoms: C_4  and  N_5
REMARK    4  A    between atoms: C_6  and  C_18
REMARK    5  A    between atoms: N_7  and  S_8
REMARK    6  A    between atoms: S_8  and  C_11
REMARK                            x       y       z     vdW  Elec       q    Type
REMARK                         _______ _______ _______ _____ _____    ______ ____
ROOT
ATOM      1  N   UNL     1       2.087   7.409  18.377  0.00  0.00    +0.000 NA
ATOM      2  C   UNL     1       2.801   6.333  18.420  0.00  0.00    +0.000 C 
ATOM      3  N   UNL     1       4.174   6.362  18.070  0.00  0.00    +0.000 N 
ATOM      4  H   UNL     1       4.554   7.210  17.656  0.00  0.00    +0.000 HD
ENDROOT
BRANCH   2   5
ATOM      5  C   UNL     1       2.143   5.064  18.923  0.00  0.00    +0.000 A 
ATOM      6  C   UNL     1       2.012   4.847  20.301  0.00  0.00    +0.000 A 
ATOM      7  C   UNL     1       1.379   3.686  20.786  0.00  0.00    +0.000 A 
ATOM      8  C   UNL     1       0.864   2.732  19.909  0.00  0.00    +0.000 A 
ATOM      9  C   UNL     1       1.006   2.914  18.550  0.00  0.00    +0.000 A 
ATOM     10  C   UNL     1       1.663   4.056  18.097  0.00  0.00    +0.000 A 
ENDBRANCH   2   5
BRANCH   3  11
ATOM     11  S   UNL     1       5.403   5.233  18.044  0.00  0.00    +0.000 S 
ATOM     12  O   UNL     1       6.569   5.779  18.697  0.00  0.00    +0.000 OA
ATOM     13  O   UNL     1       4.805   3.996  18.497  0.00  0.00    +0.000 OA
BRANCH  11  14
ATOM     14  C   UNL     1       5.789   4.994  16.309  0.00  0.00    +0.000 A 
ATOM     15  C   UNL     1       7.075   5.261  15.811  0.00  0.00    +0.000 A 
ATOM     16  C   UNL     1       7.426   4.841  14.525  0.00  0.00    +0.000 A 
ATOM     17  C   UNL     1       6.477   4.223  13.715  0.00  0.00    +0.000 A 
ATOM     18 CL   UNL     1       6.903   3.757  12.116  0.00  0.00    +0.000 Cl
ATOM     19  C   UNL     1       5.190   3.973  14.197  0.00  0.00    +0.000 A 
ATOM     20  C   UNL     1       4.848   4.335  15.505  0.00  0.00    +0.000 A 
ENDBRANCH  11  14
ENDBRANCH   3  11
BRANCH   1  21
ATOM     21  C   UNL     1       2.580   8.691  17.829  0.00  0.00    +0.000 C 
BRANCH  21  23
ATOM     22  O   UNL     1       0.774   9.792  19.033  0.00  0.00    +0.000 OA
ATOM     23  C   UNL     1       1.683   9.857  18.223  0.00  0.00    +0.000 C 
BRANCH  23  24
ATOM     24  O   UNL     1       2.004  10.992  17.550  0.00  0.00    +0.000 OA
ATOM     25  H   UNL     1       2.774  10.800  16.968  0.00  0.00    +0.000 HD
ENDBRANCH  23  24
ENDBRANCH  21  23
ENDBRANCH   1  21
TORSDOF 6
ENDMDL
MODEL 5
REMARK VINA RESULT:      -7.6      3.715      6.783
REMARK  Name = 
REMARK  6 active torsions:
REMARK  status: ('A' for Active; 'I' for Inactive)
REMARK    1  A    between atoms: C_2  and  O_3
REMARK    2  A    between atoms: C_2  and  C_4
REMARK    3  A    between atoms: C_4  and  N_5
REMARK    4  A    between atoms: C_6  and  C_18
REMARK    5  A    between atoms: N_7  and  S_8
REMARK    6  A    between atoms: S_8  and  C_11
REMARK                            x       y       z     vdW  Elec       q    Type
REMARK                         _______ _______ _______ _____ _____    ______ ____
ROOT
ATOM      1  N   UNL     1       6.235   4.667  14.773  0.00  0.00    +0.000 NA
ATOM      2  C   UNL     1       5.833   4.725  15.999  0.00  0.00    +0.000 C 
ATOM      3  N   UNL     1       4.668   4.031  16.412  0.00  0.00    +0.000 N 
ATOM      4  H   UNL     1       4.080   3.600  15.703  0.00  0.00    +0.000 HD
ENDROOT
BRANCH   2   5
ATOM      5  C   UNL     1       6.684   5.494  16.990  0.00  0.00    +0.000 A 
ATOM      6  C   UNL     1       6.809   6.884  16.867  0.00  0.00    +0.000 A 
ATOM      7  C   UNL     1       7.573   7.618  17.796  0.00  0.00    +0.000 A 
ATOM      8  C   UNL     1       8.215   6.982  18.858  0.00  0.00    +0.000 A 
ATOM      9  C   UNL     1       8.125   5.611  18.980  0.00  0.00    +0.000 A 
ATOM     10  C   UNL     1       7.388   4.905  18.032  0.00  0.00    +0.000 A 
ENDBRANCH   2   5
BRANCH   3  11
ATOM     11  S   UNL     1       3.878   3.826  17.868  0.00  0.00    +0.000 S 
ATOM     12  O   UNL     1       2.699   3.019  17.663  0.00  0.00    +0.000 OA
ATOM     13  O   UNL     1       4.899   3.427  18.812  0.00  0.00    +0.000 OA
BRANCH  11  14
ATOM     14  C   UNL     1       3.358   5.470  18.361  0.00  0.00    +0.000 A 
ATOM     15  C   UNL     1       3.313   6.523  17.432  0.00  0.00    +0.000 A 
ATOM     16  C   UNL     1       2.679   7.722  17.767  0.00  0.00    +0.000 A 
ATOM     17  C   UNL     1       2.158   7.896  19.046  0.00  0.00    +0.000 A 
ATOM     18 CL   UNL     1       1.426   9.393  19.467  0.00  0.00    +0.000 Cl
ATOM     19  C   UNL     1       2.219   6.861  19.982  0.00  0.00    +0.000 A 
ATOM     20  C   UNL     1       2.797   5.634  19.635  0.00  0.00    +0.000 A 
ENDBRANCH  11  14
ENDBRANCH   3  11
BRANCH   1  21
ATOM     21  C   UNL     1       5.459   4.021  13.692  0.00  0.00    +0.000 C 
BRANCH  21  23
ATOM     22  O   UNL     1       7.185   4.252  11.993  0.00  0.00    +0.000 OA
ATOM     23  C   UNL     1       6.354   3.557  12.551  0.00  0.00    +0.000 C 
BRANCH  23  24
ATOM     24  O   UNL     1       6.109   2.265  12.210  0.00  0.00    +0.000 OA
ATOM     25  H   UNL     1       6.884   1.925  11.707  0.00  0.00    +0.000 HD
ENDBRANCH  23  24
ENDBRANCH  21  23
ENDBRANCH   1  21
TORSDOF 6
ENDMDL
MODEL 6
REMARK VINA RESULT:      -7.5      0.946      1.462
REMARK  Name = 
REMARK  6 active torsions:
REMARK  status: ('A' for Active; 'I' for Inactive)
REMARK    1  A    between atoms: C_2  and  O_3
REMARK    2  A    between atoms: C_2  and  C_4
REMARK    3  A    between atoms: C_4  and  N_5
REMARK    4  A    between atoms: C_6  and  C_18
REMARK    5  A    between atoms: N_7  and  S_8
REMARK    6  A    between atoms: S_8  and  C_11
REMARK                            x       y       z     vdW  Elec       q    Type
REMARK                         _______ _______ _______ _____ _____    ______ ____
ROOT
ATOM      1  N   UNL     1       1.976   6.899  19.523  0.00  0.00    +0.000 NA
ATOM      2  C   UNL     1       2.740   5.863  19.412  0.00  0.00    +0.000 C 
ATOM      3  N   UNL     1       4.131   6.010  19.190  0.00  0.00    +0.000 N 
ATOM      4  H   UNL     1       4.497   6.938  18.985  0.00  0.00    +0.000 HD
ENDROOT
BRANCH   2   5
ATOM      5  C   UNL     1       2.113   4.495  19.597  0.00  0.00    +0.000 A 
ATOM      6  C   UNL     1       1.669   3.776  18.480  0.00  0.00    +0.000 A 
ATOM      7  C   UNL     1       1.109   2.492  18.633  0.00  0.00    +0.000 A 
ATOM      8  C   UNL     1       0.991   1.907  19.893  0.00  0.00    +0.000 A 
ATOM      9  C   UNL     1       1.398   2.610  21.007  0.00  0.00    +0.000 A 
ATOM     10  C   UNL     1       1.921   3.890  20.832  0.00  0.00    +0.000 A 
ENDBRANCH   2   5
BRANCH   3  11
ATOM     11  S   UNL     1       5.416   4.954  19.043  0.00  0.00    +0.000 S 
ATOM     12  O   UNL     1       6.576   5.519  19.689  0.00  0.00    +0.000 OA
ATOM     13  O   UNL     1       4.902   3.660  19.432  0.00  0.00    +0.000 OA
BRANCH  11  14
ATOM     14  C   UNL     1       5.745   4.851  17.283  0.00  0.00    +0.000 A 
ATOM     15  C   UNL     1       7.025   5.116  16.770  0.00  0.00    +0.000 A 
ATOM     16  C   UNL     1       7.325   4.796  15.444  0.00  0.00    +0.000 A 
ATOM     17  C   UNL     1       6.332   4.282  14.614  0.00  0.00    +0.000 A 
ATOM     18 CL   UNL     1       6.696   3.940  12.969  0.00  0.00    +0.000 Cl
ATOM     19  C   UNL     1       5.051   4.036  15.112  0.00  0.00    +0.000 A 
ATOM     20  C   UNL     1       4.759   4.296  16.456  0.00  0.00    +0.000 A 
ENDBRANCH  11  14
ENDBRANCH   3  11
BRANCH   1  21
ATOM     21  C   UNL     1       2.442   8.282  19.284  0.00  0.00    +0.000 C 
BRANCH  21  23
ATOM     22  O   UNL     1       3.117   8.069  16.955  0.00  0.00    +0.000 OA
ATOM     23  C   UNL     1       2.442   8.630  17.801  0.00  0.00    +0.000 C 
BRANCH  23  24
ATOM     24  O   UNL     1       1.605   9.663  17.525  0.00  0.00    +0.000 OA
ATOM     25  H   UNL     1       2.114  10.357  17.048  0.00  0.00    +0.000 HD
ENDBRANCH  23  24
ENDBRANCH  21  23
ENDBRANCH   1  21
TORSDOF 6
ENDMDL
MODEL 7
REMARK VINA RESULT:      -7.3      2.027      4.342
REMARK  Name = 
REMARK  6 active torsions:
REMARK  status: ('A' for Active; 'I' for Inactive)
REMARK    1  A    between atoms: C_2  and  O_3
REMARK    2  A    between atoms: C_2  and  C_4
REMARK    3  A    between atoms: C_4  and  N_5
REMARK    4  A    between atoms: C_6  and  C_18
REMARK    5  A    between atoms: N_7  and  S_8
REMARK    6  A    between atoms: S_8  and  C_11
REMARK                            x       y       z     vdW  Elec       q    Type
REMARK                         _______ _______ _______ _____ _____    ______ ____
ROOT
ATOM      1  N   UNL     1       2.057   4.150  19.854  0.00  0.00    +0.000 NA
ATOM      2  C   UNL     1       2.932   5.014  19.458  0.00  0.00    +0.000 C 
ATOM      3  N   UNL     1       4.270   4.625  19.204  0.00  0.00    +0.000 N 
ATOM      4  H   UNL     1       4.564   3.687  19.468  0.00  0.00    +0.000 HD
ENDROOT
BRANCH   2   5
ATOM      5  C   UNL     1       2.463   6.433  19.205  0.00  0.00    +0.000 A 
ATOM      6  C   UNL     1       2.019   7.220  20.276  0.00  0.00    +0.000 A 
ATOM      7  C   UNL     1       1.607   8.551  20.063  0.00  0.00    +0.000 A 
ATOM      8  C   UNL     1       1.637   9.115  18.789  0.00  0.00    +0.000 A 
ATOM      9  C   UNL     1       2.046   8.348  17.718  0.00  0.00    +0.000 A 
ATOM     10  C   UNL     1       2.420   7.026  17.950  0.00  0.00    +0.000 A 
ENDBRANCH   2   5
BRANCH   3  11
ATOM     11  S   UNL     1       5.637   5.409  18.653  0.00  0.00    +0.000 S 
ATOM     12  O   UNL     1       5.367   6.823  18.546  0.00  0.00    +0.000 OA
ATOM     13  O   UNL     1       6.724   4.917  19.470  0.00  0.00    +0.000 OA
BRANCH  11  14
ATOM     14  C   UNL     1       5.921   4.764  17.004  0.00  0.00    +0.000 A 
ATOM     15  C   UNL     1       4.910   4.075  16.313  0.00  0.00    +0.000 A 
ATOM     16  C   UNL     1       5.060   3.797  14.952  0.00  0.00    +0.000 A 
ATOM     17  C   UNL     1       6.243   4.139  14.302  0.00  0.00    +0.000 A 
ATOM     18 CL   UNL     1       6.441   3.746  12.640  0.00  0.00    +0.000 Cl
ATOM     19  C   UNL     1       7.261   4.804  14.989  0.00  0.00    +0.000 A 
ATOM     20  C   UNL     1       7.094   5.142  16.337  0.00  0.00    +0.000 A 
ENDBRANCH  11  14
ENDBRANCH   3  11
BRANCH   1  21
ATOM     21  C   UNL     1       2.397   2.756  20.215  0.00  0.00    +0.000 C 
BRANCH  21  23
ATOM     22  O   UNL     1       3.588   1.537  18.477  0.00  0.00    +0.000 OA
ATOM     23  C   UNL     1       2.530   1.869  18.984  0.00  0.00    +0.000 C 
BRANCH  23  24
ATOM     24  O   UNL     1       1.319   1.496  18.497  0.00  0.00    +0.000 OA
ATOM     25  H   UNL     1       1.069   2.116  17.775  0.00  0.00    +0.000 HD
ENDBRANCH  23  24
ENDBRANCH  21  23
ENDBRANCH   1  21
TORSDOF 6
ENDMDL
MODEL 8
REMARK VINA RESULT:      -7.3      1.987      4.297
REMARK  Name = 
REMARK  6 active torsions:
REMARK  status: ('A' for Active; 'I' for Inactive)
REMARK    1  A    between atoms: C_2  and  O_3
REMARK    2  A    between atoms: C_2  and  C_4
REMARK    3  A    between atoms: C_4  and  N_5
REMARK    4  A    between atoms: C_6  and  C_18
REMARK    5  A    between atoms: N_7  and  S_8
REMARK    6  A    between atoms: S_8  and  C_11
REMARK                            x       y       z     vdW  Elec       q    Type
REMARK                         _______ _______ _______ _____ _____    ______ ____
ROOT
ATOM      1  N   UNL     1       1.746   4.137  19.590  0.00  0.00    +0.000 NA
ATOM      2  C   UNL     1       2.695   4.967  19.308  0.00  0.00    +0.000 C 
ATOM      3  N   UNL     1       4.024   4.511  19.123  0.00  0.00    +0.000 N 
ATOM      4  H   UNL     1       4.243   3.543  19.348  0.00  0.00    +0.000 HD
ENDROOT
BRANCH   2   5
ATOM      5  C   UNL     1       2.328   6.425  19.111  0.00  0.00    +0.000 A 
ATOM      6  C   UNL     1       1.926   7.196  20.209  0.00  0.00    +0.000 A 
ATOM      7  C   UNL     1       1.609   8.559  20.048  0.00  0.00    +0.000 A 
ATOM      8  C   UNL     1       1.693   9.171  18.798  0.00  0.00    +0.000 A 
ATOM      9  C   UNL     1       2.062   8.423  17.701  0.00  0.00    +0.000 A 
ATOM     10  C   UNL     1       2.342   7.070  17.881  0.00  0.00    +0.000 A 
ENDBRANCH   2   5
BRANCH   3  11
ATOM     11  S   UNL     1       5.469   5.240  18.714  0.00  0.00    +0.000 S 
ATOM     12  O   UNL     1       5.293   6.672  18.690  0.00  0.00    +0.000 OA
ATOM     13  O   UNL     1       6.467   4.626  19.562  0.00  0.00    +0.000 OA
BRANCH  11  14
ATOM     14  C   UNL     1       5.824   4.686  17.046  0.00  0.00    +0.000 A 
ATOM     15  C   UNL     1       4.826   4.098  16.252  0.00  0.00    +0.000 A 
ATOM     16  C   UNL     1       5.047   3.900  14.887  0.00  0.00    +0.000 A 
ATOM     17  C   UNL     1       6.284   4.219  14.332  0.00  0.00    +0.000 A 
ATOM     18 CL   UNL     1       6.566   3.923  12.662  0.00  0.00    +0.000 Cl
ATOM     19  C   UNL     1       7.289   4.784  15.121  0.00  0.00    +0.000 A 
ATOM     20  C   UNL     1       7.054   5.043  16.476  0.00  0.00    +0.000 A 
ENDBRANCH  11  14
ENDBRANCH   3  11
BRANCH   1  21
ATOM     21  C   UNL     1       1.979   2.707  19.888  0.00  0.00    +0.000 C 
BRANCH  21  23
ATOM     22  O   UNL     1       1.544   2.563  22.278  0.00  0.00    +0.000 OA
ATOM     23  C   UNL     1       2.333   2.485  21.353  0.00  0.00    +0.000 C 
BRANCH  23  24
ATOM     24  O   UNL     1       3.651   2.200  21.516  0.00  0.00    +0.000 OA
ATOM     25  H   UNL     1       4.061   2.103  20.626  0.00  0.00    +0.000 HD
ENDBRANCH  23  24
ENDBRANCH  21  23
ENDBRANCH   1  21
TORSDOF 6
ENDMDL
MODEL 9
REMARK VINA RESULT:      -7.2      3.734      6.683
REMARK  Name = 
REMARK  6 active torsions:
REMARK  status: ('A' for Active; 'I' for Inactive)
REMARK    1  A    between atoms: C_2  and  O_3
REMARK    2  A    between atoms: C_2  and  C_4
REMARK    3  A    between atoms: C_4  and  N_5
REMARK    4  A    between atoms: C_6  and  C_18
REMARK    5  A    between atoms: N_7  and  S_8
REMARK    6  A    between atoms: S_8  and  C_11
REMARK                            x       y       z     vdW  Elec       q    Type
REMARK                         _______ _______ _______ _____ _____    ______ ____
ROOT
ATOM      1  N   UNL     1       6.387   4.306  15.092  0.00  0.00    +0.000 NA
ATOM      2  C   UNL     1       6.052   4.449  16.332  0.00  0.00    +0.000 C 
ATOM      3  N   UNL     1       5.025   3.654  16.899  0.00  0.00    +0.000 N 
ATOM      4  H   UNL     1       4.465   3.067  16.284  0.00  0.00    +0.000 HD
ENDROOT
BRANCH   2   5
ATOM      5  C   UNL     1       6.837   5.437  17.171  0.00  0.00    +0.000 A 
ATOM      6  C   UNL     1       6.880   6.787  16.798  0.00  0.00    +0.000 A 
ATOM      7  C   UNL     1       7.583   7.723  17.581  0.00  0.00    +0.000 A 
ATOM      8  C   UNL     1       8.243   7.332  18.745  0.00  0.00    +0.000 A 
ATOM      9  C   UNL     1       8.234   6.003  19.115  0.00  0.00    +0.000 A 
ATOM     10  C   UNL     1       7.557   5.092  18.307  0.00  0.00    +0.000 A 
ENDBRANCH   2   5
BRANCH   3  11
ATOM     11  S   UNL     1       4.357   3.511  18.423  0.00  0.00    +0.000 S 
ATOM     12  O   UNL     1       3.466   2.375  18.450  0.00  0.00    +0.000 OA
ATOM     13  O   UNL     1       5.466   3.611  19.345  0.00  0.00    +0.000 OA
BRANCH  11  14
ATOM     14  C   UNL     1       3.381   4.998  18.653  0.00  0.00    +0.000 A 
ATOM     15  C   UNL     1       2.730   5.255  19.871  0.00  0.00    +0.000 A 
ATOM     16  C   UNL     1       2.185   6.517  20.119  0.00  0.00    +0.000 A 
ATOM     17  C   UNL     1       2.225   7.495  19.129  0.00  0.00    +0.000 A 
ATOM     18 CL   UNL     1       1.506   9.028  19.423  0.00  0.00    +0.000 Cl
ATOM     19  C   UNL     1       2.852   7.240  17.907  0.00  0.00    +0.000 A 
ATOM     20  C   UNL     1       3.455   5.998  17.674  0.00  0.00    +0.000 A 
ENDBRANCH  11  14
ENDBRANCH   3  11
BRANCH   1  21
ATOM     21  C   UNL     1       5.652   3.439  14.146  0.00  0.00    +0.000 C 
BRANCH  21  23
ATOM     22  O   UNL     1       7.147   4.216  12.390  0.00  0.00    +0.000 OA
ATOM     23  C   UNL     1       6.120   3.643  12.711  0.00  0.00    +0.000 C 
BRANCH  23  24
ATOM     24  O   UNL     1       5.244   3.120  11.814  0.00  0.00    +0.000 OA
ATOM     25  H   UNL     1       4.741   3.860  11.404  0.00  0.00    +0.000 HD
ENDBRANCH  23  24
ENDBRANCH  21  23
ENDBRANCH   1  21
TORSDOF 6
ENDMDL
