MODEL 1
REMARK VINA RESULT:      -7.6      0.000      0.000
REMARK  Name = 
REMARK  2 active torsions:
REMARK  status: ('A' for Active; 'I' for Inactive)
REMARK    1  A    between atoms: C_1  and  N_2
REMARK    2  A    between atoms: C_4  and  C_5
REMARK                            x       y       z     vdW  Elec       q    Type
REMARK                         _______ _______ _______ _____ _____    ______ ____
ROOT
ATOM      1  C   UNL     1       3.410   7.736  17.564  0.00  0.00    +0.000 C 
ATOM      2  N   UNL     1       3.944   6.432  17.234  0.00  0.00    +0.000 N 
ATOM      3  C   UNL     1       4.930   6.204  16.313  0.00  0.00    +0.000 A 
ATOM      4  C   UNL     1       5.136   4.838  16.218  0.00  0.00    +0.000 A 
ATOM      5  C   UNL     1       4.258   4.224  17.169  0.00  0.00    +0.000 A 
ATOM      6  C   UNL     1       4.020   2.886  17.555  0.00  0.00    +0.000 A 
ATOM      7  C   UNL     1       3.029   2.603  18.500  0.00  0.00    +0.000 A 
ATOM      8  C   UNL     1       2.284   3.632  19.064  0.00  0.00    +0.000 A 
ATOM      9 BR   UNL     1       0.920   3.215  20.310  0.00  0.00    +0.000 Br
ATOM     10  C   UNL     1       2.511   4.968  18.724  0.00  0.00    +0.000 A 
ATOM     11  C   UNL     1       3.508   5.239  17.771  0.00  0.00    +0.000 A 
ENDROOT
BRANCH   4  12
ATOM     12  C   UNL     1       6.081   4.132  15.276  0.00  0.00    +0.000 C 
ATOM     13  C   UNL     1       7.321   4.962  14.989  0.00  0.00    +0.000 C 
ATOM     14  C   UNL     1       7.696   5.115  13.536  0.00  0.00    +0.000 C 
ATOM     15  O   UNL     1       8.631   5.870  13.260  0.00  0.00    +0.000 OA
ATOM     16  N   UNL     1       7.058   4.398  12.563  0.00  0.00    +0.000 NA
ATOM     17  C   UNL     1       5.997   3.749  12.867  0.00  0.00    +0.000 C 
ATOM     18  N   UNL     1       5.291   3.092  11.923  0.00  0.00    +0.000 N 
ATOM     19  N   UNL     1       5.446   3.644  14.080  0.00  0.00    +0.000 N 
ATOM     20  H   UNL     1       5.807   3.032  11.049  0.00  0.00    +0.000 HD
ATOM     21  H   UNL     1       4.910   2.198  12.199  0.00  0.00    +0.000 HD
ATOM     22  H   UNL     1       4.561   3.171  14.196  0.00  0.00    +0.000 HD
ENDBRANCH   4  12
TORSDOF 1
ENDMDL
MODEL 2
REMARK VINA RESULT:      -7.4      2.443      3.596
REMARK  Name = 
REMARK  2 active torsions:
REMARK  status: ('A' for Active; 'I' for Inactive)
REMARK    1  A    between atoms: C_1  and  N_2
REMARK    2  A    between atoms: C_4  and  C_5
REMARK                            x       y       z     vdW  Elec       q    Type
REMARK                         _______ _______ _______ _____ _____    ______ ____
ROOT
ATOM      1  C   UNL     1       2.493   2.760  21.370  0.00  0.00    +0.000 C 
ATOM      2  N   UNL     1       3.132   3.529  20.323  0.00  0.00    +0.000 N 
ATOM      3  C   UNL     1       4.128   3.062  19.509  0.00  0.00    +0.000 A 
ATOM      4  C   UNL     1       4.535   4.090  18.677  0.00  0.00    +0.000 A 
ATOM      5  C   UNL     1       3.703   5.216  18.980  0.00  0.00    +0.000 A 
ATOM      6  C   UNL     1       3.614   6.529  18.466  0.00  0.00    +0.000 A 
ATOM      7  C   UNL     1       2.709   7.434  19.029  0.00  0.00    +0.000 A 
ATOM      8  C   UNL     1       1.893   7.044  20.086  0.00  0.00    +0.000 A 
ATOM      9 BR   UNL     1       0.706   8.303  20.855  0.00  0.00    +0.000 Br
ATOM     10  C   UNL     1       1.938   5.746  20.599  0.00  0.00    +0.000 A 
ATOM     11  C   UNL     1       2.854   4.847  20.027  0.00  0.00    +0.000 A 
ENDROOT
BRANCH   4  12
ATOM     12  C   UNL     1       5.657   4.042  17.667  0.00  0.00    +0.000 C 
ATOM     13  C   UNL     1       6.654   5.169  17.873  0.00  0.00    +0.000 C 
ATOM     14  C   UNL     1       7.022   5.962  16.644  0.00  0.00    +0.000 C 
ATOM     15  O   UNL     1       7.744   6.951  16.793  0.00  0.00    +0.000 OA
ATOM     16  N   UNL     1       6.617   5.567  15.400  0.00  0.00    +0.000 NA
ATOM     17  C   UNL     1       5.746   4.634  15.301  0.00  0.00    +0.000 C 
ATOM     18  N   UNL     1       5.258   4.265  14.098  0.00  0.00    +0.000 N 
ATOM     19  N   UNL     1       5.203   3.939  16.305  0.00  0.00    +0.000 N 
ATOM     20  H   UNL     1       5.799   4.670  13.339  0.00  0.00    +0.000 HD
ATOM     21  H   UNL     1       5.108   3.274  13.967  0.00  0.00    +0.000 HD
ATOM     22  H   UNL     1       4.463   3.276  16.122  0.00  0.00    +0.000 HD
ENDBRANCH   4  12
TORSDOF 1
ENDMDL
MODEL 3
REMARK VINA RESULT:      -7.3      4.652      7.277
REMARK  Name = 
REMARK  2 active torsions:
REMARK  status: ('A' for Active; 'I' for Inactive)
REMARK    1  A    between atoms: C_1  and  N_2
REMARK    2  A    between atoms: C_4  and  C_5
REMARK                            x       y       z     vdW  Elec       q    Type
REMARK                         _______ _______ _______ _____ _____    ______ ____
ROOT
ATOM      1  C   UNL     1       1.814   2.904  18.372  0.00  0.00    +0.000 C 
ATOM      2  N   UNL     1       2.345   4.250  18.418  0.00  0.00    +0.000 N 
ATOM      3  C   UNL     1       1.867   5.249  19.221  0.00  0.00    +0.000 A 
ATOM      4  C   UNL     1       2.574   6.409  18.949  0.00  0.00    +0.000 A 
ATOM      5  C   UNL     1       3.557   6.068  17.965  0.00  0.00    +0.000 A 
ATOM      6  C   UNL     1       4.575   6.796  17.311  0.00  0.00    +0.000 A 
ATOM      7  C   UNL     1       5.354   6.172  16.331  0.00  0.00    +0.000 A 
ATOM      8  C   UNL     1       5.135   4.838  16.006  0.00  0.00    +0.000 A 
ATOM      9 BR   UNL     1       6.177   4.031  14.647  0.00  0.00    +0.000 Br
ATOM     10  C   UNL     1       4.154   4.082  16.653  0.00  0.00    +0.000 A 
ATOM     11  C   UNL     1       3.376   4.722  17.633  0.00  0.00    +0.000 A 
ENDROOT
BRANCH   4  12
ATOM     12  C   UNL     1       2.335   7.772  19.552  0.00  0.00    +0.000 C 
ATOM     13  C   UNL     1       1.517   7.692  20.829  0.00  0.00    +0.000 C 
ATOM     14  C   UNL     1       0.339   8.630  20.922  0.00  0.00    +0.000 C 
ATOM     15  O   UNL     1      -0.411   8.517  21.895  0.00  0.00    +0.000 OA
ATOM     16  N   UNL     1       0.140   9.609  19.990  0.00  0.00    +0.000 NA
ATOM     17  C   UNL     1       0.842   9.596  18.919  0.00  0.00    +0.000 C 
ATOM     18  N   UNL     1       0.627  10.496  17.937  0.00  0.00    +0.000 N 
ATOM     19  N   UNL     1       1.818   8.735  18.616  0.00  0.00    +0.000 N 
ATOM     20  H   UNL     1       0.013  11.243  18.247  0.00  0.00    +0.000 HD
ATOM     21  H   UNL     1       1.452  10.852  17.476  0.00  0.00    +0.000 HD
ATOM     22  H   UNL     1       2.257   8.765  17.706  0.00  0.00    +0.000 HD
ENDBRANCH   4  12
TORSDOF 1
ENDMDL
MODEL 4
REMARK VINA RESULT:      -7.3      4.332      6.455
REMARK  Name = 
REMARK  2 active torsions:
REMARK  status: ('A' for Active; 'I' for Inactive)
REMARK    1  A    between atoms: C_1  and  N_2
REMARK    2  A    between atoms: C_4  and  C_5
REMARK                            x       y       z     vdW  Elec       q    Type
REMARK                         _______ _______ _______ _____ _____    ______ ____
ROOT
ATOM      1  C   UNL     1       7.741   6.285  18.784  0.00  0.00    +0.000 C 
ATOM      2  N   UNL     1       6.739   5.385  18.256  0.00  0.00    +0.000 N 
ATOM      3  C   UNL     1       5.805   4.728  19.011  0.00  0.00    +0.000 A 
ATOM      4  C   UNL     1       5.060   3.911  18.177  0.00  0.00    +0.000 A 
ATOM      5  C   UNL     1       5.546   4.130  16.848  0.00  0.00    +0.000 A 
ATOM      6  C   UNL     1       5.186   3.619  15.581  0.00  0.00    +0.000 A 
ATOM      7  C   UNL     1       5.912   3.999  14.448  0.00  0.00    +0.000 A 
ATOM      8  C   UNL     1       6.979   4.884  14.563  0.00  0.00    +0.000 A 
ATOM      9 BR   UNL     1       7.968   5.349  13.018  0.00  0.00    +0.000 Br
ATOM     10  C   UNL     1       7.344   5.428  15.797  0.00  0.00    +0.000 A 
ATOM     11  C   UNL     1       6.609   5.035  16.928  0.00  0.00    +0.000 A 
ENDROOT
BRANCH   4  12
ATOM     12  C   UNL     1       3.969   2.954  18.593  0.00  0.00    +0.000 C 
ATOM     13  C   UNL     1       2.712   3.130  17.757  0.00  0.00    +0.000 C 
ATOM     14  C   UNL     1       1.418   3.251  18.523  0.00  0.00    +0.000 C 
ATOM     15  O   UNL     1       0.394   3.503  17.884  0.00  0.00    +0.000 OA
ATOM     16  N   UNL     1       1.371   3.032  19.871  0.00  0.00    +0.000 NA
ATOM     17  C   UNL     1       2.470   2.929  20.519  0.00  0.00    +0.000 C 
ATOM     18  N   UNL     1       2.474   2.791  21.862  0.00  0.00    +0.000 N 
ATOM     19  N   UNL     1       3.705   2.959  20.008  0.00  0.00    +0.000 N 
ATOM     20  H   UNL     1       1.542   2.594  22.216  0.00  0.00    +0.000 HD
ATOM     21  H   UNL     1       3.164   2.156  22.239  0.00  0.00    +0.000 HD
ATOM     22  H   UNL     1       4.508   2.949  20.620  0.00  0.00    +0.000 HD
ENDBRANCH   4  12
TORSDOF 1
ENDMDL
MODEL 5
REMARK VINA RESULT:      -7.3      2.840      4.488
REMARK  Name = 
REMARK  2 active torsions:
REMARK  status: ('A' for Active; 'I' for Inactive)
REMARK    1  A    between atoms: C_1  and  N_2
REMARK    2  A    between atoms: C_4  and  C_5
REMARK                            x       y       z     vdW  Elec       q    Type
REMARK                         _______ _______ _______ _____ _____    ______ ____
ROOT
ATOM      1  C   UNL     1       2.451   3.973  21.006  0.00  0.00    +0.000 C 
ATOM      2  N   UNL     1       2.732   4.976  20.003  0.00  0.00    +0.000 N 
ATOM      3  C   UNL     1       3.579   4.804  18.942  0.00  0.00    +0.000 A 
ATOM      4  C   UNL     1       3.648   5.992  18.235  0.00  0.00    +0.000 A 
ATOM      5  C   UNL     1       2.755   6.906  18.882  0.00  0.00    +0.000 A 
ATOM      6  C   UNL     1       2.375   8.242  18.628  0.00  0.00    +0.000 A 
ATOM      7  C   UNL     1       1.499   8.893  19.503  0.00  0.00    +0.000 A 
ATOM      8  C   UNL     1       0.998   8.227  20.616  0.00  0.00    +0.000 A 
ATOM      9 BR   UNL     1      -0.154   9.145  21.806  0.00  0.00    +0.000 Br
ATOM     10  C   UNL     1       1.333   6.897  20.882  0.00  0.00    +0.000 A 
ATOM     11  C   UNL     1       2.216   6.255  19.996  0.00  0.00    +0.000 A 
ENDROOT
BRANCH   4  12
ATOM     12  C   UNL     1       4.515   6.276  17.032  0.00  0.00    +0.000 C 
ATOM     13  C   UNL     1       4.857   5.009  16.267  0.00  0.00    +0.000 C 
ATOM     14  C   UNL     1       6.313   4.812  15.928  0.00  0.00    +0.000 C 
ATOM     15  O   UNL     1       6.642   3.745  15.404  0.00  0.00    +0.000 OA
ATOM     16  N   UNL     1       7.230   5.803  16.141  0.00  0.00    +0.000 NA
ATOM     17  C   UNL     1       6.884   6.828  16.826  0.00  0.00    +0.000 C 
ATOM     18  N   UNL     1       7.777   7.794  17.127  0.00  0.00    +0.000 N 
ATOM     19  N   UNL     1       5.673   7.078  17.332  0.00  0.00    +0.000 N 
ATOM     20  H   UNL     1       8.635   7.684  16.596  0.00  0.00    +0.000 HD
ATOM     21  H   UNL     1       7.430   8.743  17.092  0.00  0.00    +0.000 HD
ATOM     22  H   UNL     1       5.527   7.882  17.927  0.00  0.00    +0.000 HD
ENDBRANCH   4  12
TORSDOF 1
ENDMDL
MODEL 6
REMARK VINA RESULT:      -7.1      2.498      3.698
REMARK  Name = 
REMARK  2 active torsions:
REMARK  status: ('A' for Active; 'I' for Inactive)
REMARK    1  A    between atoms: C_1  and  N_2
REMARK    2  A    between atoms: C_4  and  C_5
REMARK                            x       y       z     vdW  Elec       q    Type
REMARK                         _______ _______ _______ _____ _____    ______ ____
ROOT
ATOM      1  C   UNL     1       2.036   4.373  21.197  0.00  0.00    +0.000 C 
ATOM      2  N   UNL     1       2.851   4.843  20.098  0.00  0.00    +0.000 N 
ATOM      3  C   UNL     1       3.911   4.160  19.565  0.00  0.00    +0.000 A 
ATOM      4  C   UNL     1       4.487   4.942  18.578  0.00  0.00    +0.000 A 
ATOM      5  C   UNL     1       3.697   6.133  18.485  0.00  0.00    +0.000 A 
ATOM      6  C   UNL     1       3.759   7.283  17.667  0.00  0.00    +0.000 A 
ATOM      7  C   UNL     1       2.849   8.326  17.867  0.00  0.00    +0.000 A 
ATOM      8  C   UNL     1       1.881   8.231  18.861  0.00  0.00    +0.000 A 
ATOM      9 BR   UNL     1       0.689   9.676  19.135  0.00  0.00    +0.000 Br
ATOM     10  C   UNL     1       1.776   7.097  19.669  0.00  0.00    +0.000 A 
ATOM     11  C   UNL     1       2.699   6.057  19.461  0.00  0.00    +0.000 A 
ENDROOT
BRANCH   4  12
ATOM     12  C   UNL     1       5.723   4.613  17.775  0.00  0.00    +0.000 C 
ATOM     13  C   UNL     1       6.754   5.727  17.841  0.00  0.00    +0.000 C 
ATOM     14  C   UNL     1       7.325   6.181  16.520  0.00  0.00    +0.000 C 
ATOM     15  O   UNL     1       8.081   7.155  16.526  0.00  0.00    +0.000 OA
ATOM     16  N   UNL     1       7.058   5.503  15.364  0.00  0.00    +0.000 NA
ATOM     17  C   UNL     1       6.150   4.600  15.372  0.00  0.00    +0.000 C 
ATOM     18  N   UNL     1       5.799   3.959  14.238  0.00  0.00    +0.000 N 
ATOM     19  N   UNL     1       5.442   4.190  16.429  0.00  0.00    +0.000 N 
ATOM     20  H   UNL     1       6.456   4.149  13.487  0.00  0.00    +0.000 HD
ATOM     21  H   UNL     1       5.605   2.972  14.330  0.00  0.00    +0.000 HD
ATOM     22  H   UNL     1       4.691   3.524  16.309  0.00  0.00    +0.000 HD
ENDBRANCH   4  12
TORSDOF 1
ENDMDL
MODEL 7
REMARK VINA RESULT:      -7.1      4.496      6.417
REMARK  Name = 
REMARK  2 active torsions:
REMARK  status: ('A' for Active; 'I' for Inactive)
REMARK    1  A    between atoms: C_1  and  N_2
REMARK    2  A    between atoms: C_4  and  C_5
REMARK                            x       y       z     vdW  Elec       q    Type
REMARK                         _______ _______ _______ _____ _____    ______ ____
ROOT
ATOM      1  C   UNL     1       7.918   5.859  19.131  0.00  0.00    +0.000 C 
ATOM      2  N   UNL     1       6.612   5.503  18.621  0.00  0.00    +0.000 N 
ATOM      3  C   UNL     1       5.488   5.356  19.389  0.00  0.00    +0.000 A 
ATOM      4  C   UNL     1       4.446   4.950  18.572  0.00  0.00    +0.000 A 
ATOM      5  C   UNL     1       4.967   4.899  17.239  0.00  0.00    +0.000 A 
ATOM      6  C   UNL     1       4.403   4.581  15.984  0.00  0.00    +0.000 A 
ATOM      7  C   UNL     1       5.212   4.569  14.843  0.00  0.00    +0.000 A 
ATOM      8  C   UNL     1       6.565   4.874  14.940  0.00  0.00    +0.000 A 
ATOM      9 BR   UNL     1       7.645   4.809  13.386  0.00  0.00    +0.000 Br
ATOM     10  C   UNL     1       7.149   5.218  16.162  0.00  0.00    +0.000 A 
ATOM     11  C   UNL     1       6.325   5.224  17.301  0.00  0.00    +0.000 A 
ENDROOT
BRANCH   4  12
ATOM     12  C   UNL     1       3.043   4.602  19.008  0.00  0.00    +0.000 C 
ATOM     13  C   UNL     1       2.897   4.623  20.519  0.00  0.00    +0.000 C 
ATOM     14  C   UNL     1       2.237   3.416  21.138  0.00  0.00    +0.000 C 
ATOM     15  O   UNL     1       2.199   3.349  22.369  0.00  0.00    +0.000 OA
ATOM     16  N   UNL     1       1.650   2.456  20.363  0.00  0.00    +0.000 NA
ATOM     17  C   UNL     1       1.844   2.478  19.098  0.00  0.00    +0.000 C 
ATOM     18  N   UNL     1       1.349   1.506  18.302  0.00  0.00    +0.000 N 
ATOM     19  N   UNL     1       2.537   3.393  18.413  0.00  0.00    +0.000 N 
ATOM     20  H   UNL     1       0.685   0.922  18.801  0.00  0.00    +0.000 HD
ATOM     21  H   UNL     1       0.989   1.809  17.408  0.00  0.00    +0.000 HD
ATOM     22  H   UNL     1       2.697   3.272  17.423  0.00  0.00    +0.000 HD
ENDBRANCH   4  12
TORSDOF 1
ENDMDL
MODEL 8
REMARK VINA RESULT:      -7.0      2.106      2.950
REMARK  Name = 
REMARK  2 active torsions:
REMARK  status: ('A' for Active; 'I' for Inactive)
REMARK    1  A    between atoms: C_1  and  N_2
REMARK    2  A    between atoms: C_4  and  C_5
REMARK                            x       y       z     vdW  Elec       q    Type
REMARK                         _______ _______ _______ _____ _____    ______ ____
ROOT
ATOM      1  C   UNL     1       1.461   8.165  19.106  0.00  0.00    +0.000 C 
ATOM      2  N   UNL     1       2.567   7.282  18.803  0.00  0.00    +0.000 N 
ATOM      3  C   UNL     1       3.601   7.588  17.961  0.00  0.00    +0.000 A 
ATOM      4  C   UNL     1       4.433   6.485  17.865  0.00  0.00    +0.000 A 
ATOM      5  C   UNL     1       3.890   5.486  18.736  0.00  0.00    +0.000 A 
ATOM      6  C   UNL     1       4.288   4.177  19.086  0.00  0.00    +0.000 A 
ATOM      7  C   UNL     1       3.489   3.415  19.945  0.00  0.00    +0.000 A 
ATOM      8  C   UNL     1       2.312   3.945  20.461  0.00  0.00    +0.000 A 
ATOM      9 BR   UNL     1       1.230   2.877  21.590  0.00  0.00    +0.000 Br
ATOM     10  C   UNL     1       1.904   5.246  20.157  0.00  0.00    +0.000 A 
ATOM     11  C   UNL     1       2.713   6.000  19.289  0.00  0.00    +0.000 A 
ENDROOT
BRANCH   4  12
ATOM     12  C   UNL     1       5.658   6.353  16.992  0.00  0.00    +0.000 C 
ATOM     13  C   UNL     1       5.307   5.886  15.590  0.00  0.00    +0.000 C 
ATOM     14  C   UNL     1       6.118   4.733  15.053  0.00  0.00    +0.000 C 
ATOM     15  O   UNL     1       5.789   4.257  13.964  0.00  0.00    +0.000 OA
ATOM     16  N   UNL     1       7.215   4.268  15.722  0.00  0.00    +0.000 NA
ATOM     17  C   UNL     1       7.431   4.677  16.916  0.00  0.00    +0.000 C 
ATOM     18  N   UNL     1       8.457   4.187  17.643  0.00  0.00    +0.000 N 
ATOM     19  N   UNL     1       6.713   5.579  17.592  0.00  0.00    +0.000 N 
ATOM     20  H   UNL     1       9.092   3.642  17.066  0.00  0.00    +0.000 HD
ATOM     21  H   UNL     1       8.949   4.855  18.219  0.00  0.00    +0.000 HD
ATOM     22  H   UNL     1       6.925   5.773  18.561  0.00  0.00    +0.000 HD
ENDBRANCH   4  12
TORSDOF 1
ENDMDL
MODEL 9
REMARK VINA RESULT:      -7.0      2.910      4.439
REMARK  Name = 
REMARK  2 active torsions:
REMARK  status: ('A' for Active; 'I' for Inactive)
REMARK    1  A    between atoms: C_1  and  N_2
REMARK    2  A    between atoms: C_4  and  C_5
REMARK                            x       y       z     vdW  Elec       q    Type
REMARK                         _______ _______ _______ _____ _____    ______ ____
ROOT
ATOM      1  C   UNL     1       2.025   5.150  20.869  0.00  0.00    +0.000 C 
ATOM      2  N   UNL     1       2.677   5.840  19.776  0.00  0.00    +0.000 N 
ATOM      3  C   UNL     1       3.766   5.367  19.096  0.00  0.00    +0.000 A 
ATOM      4  C   UNL     1       4.152   6.319  18.167  0.00  0.00    +0.000 A 
ATOM      5  C   UNL     1       3.212   7.395  18.268  0.00  0.00    +0.000 A 
ATOM      6  C   UNL     1       3.057   8.622  17.586  0.00  0.00    +0.000 A 
ATOM      7  C   UNL     1       2.042   9.505  17.968  0.00  0.00    +0.000 A 
ATOM      8  C   UNL     1       1.183   9.176  19.010  0.00  0.00    +0.000 A 
ATOM      9 BR   UNL     1      -0.156  10.408  19.533  0.00  0.00    +0.000 Br
ATOM     10  C   UNL     1       1.292   7.959  19.688  0.00  0.00    +0.000 A 
ATOM     11  C   UNL     1       2.318   7.082  19.296  0.00  0.00    +0.000 A 
ENDROOT
BRANCH   4  12
ATOM     12  C   UNL     1       5.347   6.248  17.247  0.00  0.00    +0.000 C 
ATOM     13  C   UNL     1       4.965   5.768  15.857  0.00  0.00    +0.000 C 
ATOM     14  C   UNL     1       5.810   4.658  15.284  0.00  0.00    +0.000 C 
ATOM     15  O   UNL     1       5.462   4.169  14.206  0.00  0.00    +0.000 OA
ATOM     16  N   UNL     1       6.952   4.244  15.908  0.00  0.00    +0.000 NA
ATOM     17  C   UNL     1       7.194   4.660  17.095  0.00  0.00    +0.000 C 
ATOM     18  N   UNL     1       8.270   4.217  17.780  0.00  0.00    +0.000 N 
ATOM     19  N   UNL     1       6.461   5.525  17.802  0.00  0.00    +0.000 N 
ATOM     20  H   UNL     1       8.907   3.705  17.177  0.00  0.00    +0.000 HD
ATOM     21  H   UNL     1       8.751   4.907  18.340  0.00  0.00    +0.000 HD
ATOM     22  H   UNL     1       6.700   5.725  18.763  0.00  0.00    +0.000 HD
ENDBRANCH   4  12
TORSDOF 1
ENDMDL
