MODEL 1
REMARK VINA RESULT:      -9.2      0.000      0.000
REMARK  Name = 
REMARK  12 active torsions:
REMARK  status: ('A' for Active; 'I' for Inactive)
REMARK    1  A    between atoms: C_1  and  O_2
REMARK    2  A    between atoms: O_2  and  C_3
REMARK    3  A    between atoms: C_7  and  N_8
REMARK    4  A    between atoms: C_9  and  C_11
REMARK    5  A    between atoms: C_11  and  N_12
REMARK    6  A    between atoms: N_12  and  C_13
REMARK    7  A    between atoms: C_14  and  C_16
REMARK    8  A    between atoms: N_24  and  C_25
REMARK    9  A    between atoms: C_25  and  C_26
REMARK   10  A    between atoms: C_26  and  C_27
REMARK   11  A    between atoms: C_27  and  C_28
REMARK   12  A    between atoms: C_27  and  C_29
REMARK                            x       y       z     vdW  Elec       q    Type
REMARK                         _______ _______ _______ _____ _____    ______ ____
ROOT
ATOM      1  N   UNL     1       2.311   4.388  19.384  0.00  0.00    +0.000 N 
ATOM      2  C   UNL     1       1.012   4.028  19.944  0.00  0.00    +0.000 C 
ATOM      3  C   UNL     1       2.825   3.572  18.358  0.00  0.00    +0.000 C 
ATOM      4  O   UNL     1       2.158   2.648  17.892  0.00  0.00    +0.000 OA
ENDROOT
BRANCH   3   5
ATOM      5  C   UNL     1       4.248   3.693  17.898  0.00  0.00    +0.000 A 
ATOM      6  C   UNL     1       4.660   3.587  16.553  0.00  0.00    +0.000 A 
ATOM      7  C   UNL     1       5.781   4.301  16.092  0.00  0.00    +0.000 A 
ATOM      8  C   UNL     1       6.530   4.963  17.038  0.00  0.00    +0.000 A 
ATOM      9  C   UNL     1       6.309   4.748  18.384  0.00  0.00    +0.000 A 
ATOM     10  C   UNL     1       5.162   4.146  18.853  0.00  0.00    +0.000 A 
ATOM     11  C   UNL     1       7.277   5.530  19.109  0.00  0.00    +0.000 C 
ATOM     12  O   UNL     1       7.617   5.298  20.254  0.00  0.00    +0.000 OA
ATOM     13  N   UNL     1       7.718   6.476  18.235  0.00  0.00    +0.000 N 
ATOM     14  C   UNL     1       7.442   6.123  16.943  0.00  0.00    +0.000 C 
ATOM     15  O   UNL     1       7.767   6.645  15.895  0.00  0.00    +0.000 OA
BRANCH  13  16
ATOM     16  C   UNL     1       8.431   7.650  18.698  0.00  0.00    +0.000 C 
BRANCH  16  17
ATOM     17  C   UNL     1       8.060   8.958  17.975  0.00  0.00    +0.000 C 
BRANCH  17  18
ATOM     18  C   UNL     1       8.999  10.174  18.164  0.00  0.00    +0.000 C 
ATOM     19  C   UNL     1       8.388  11.498  17.702  0.00  0.00    +0.000 C 
ATOM     20  C   UNL     1       9.388  10.306  19.645  0.00  0.00    +0.000 C 
ENDBRANCH  17  18
ENDBRANCH  16  17
ENDBRANCH  13  16
ENDBRANCH   3   5
BRANCH   1  21
ATOM     21  C   UNL     1       2.986   5.532  20.016  0.00  0.00    +0.000 C 
BRANCH  21  23
ATOM     22  N   UNL     1       1.853   7.615  20.695  0.00  0.00    +0.000 N 
ATOM     23  C   UNL     1       2.406   6.907  19.640  0.00  0.00    +0.000 C 
ATOM     24  O   UNL     1       2.457   7.287  18.471  0.00  0.00    +0.000 OA
ATOM     25  H   UNL     1       2.045   7.256  21.624  0.00  0.00    +0.000 HD
BRANCH  22  30
ATOM     26  C   UNL     1       0.068  10.680  21.776  0.00  0.00    +0.000 A 
ATOM     27  C   UNL     1      -0.270  11.247  20.547  0.00  0.00    +0.000 A 
ATOM     28  C   UNL     1       0.067  10.608  19.357  0.00  0.00    +0.000 A 
ATOM     29  C   UNL     1       0.766   9.402  19.391  0.00  0.00    +0.000 A 
ATOM     30  C   UNL     1       1.131   8.826  20.611  0.00  0.00    +0.000 A 
ATOM     31  C   UNL     1       0.750   9.457  21.806  0.00  0.00    +0.000 A 
BRANCH  26  33
ATOM     32  C   UNL     1      -1.707  11.403  23.190  0.00  0.00    +0.000 C 
ATOM     33  O   UNL     1      -0.326  11.417  22.859  0.00  0.00    +0.000 OA
ENDBRANCH  26  33
ENDBRANCH  22  30
ENDBRANCH  21  23
ENDBRANCH   1  21
TORSDOF 8
ENDMDL
MODEL 2
REMARK VINA RESULT:      -8.8      3.394      6.940
REMARK  Name = 
REMARK  12 active torsions:
REMARK  status: ('A' for Active; 'I' for Inactive)
REMARK    1  A    between atoms: C_1  and  O_2
REMARK    2  A    between atoms: O_2  and  C_3
REMARK    3  A    between atoms: C_7  and  N_8
REMARK    4  A    between atoms: C_9  and  C_11
REMARK    5  A    between atoms: C_11  and  N_12
REMARK    6  A    between atoms: N_12  and  C_13
REMARK    7  A    between atoms: C_14  and  C_16
REMARK    8  A    between atoms: N_24  and  C_25
REMARK    9  A    between atoms: C_25  and  C_26
REMARK   10  A    between atoms: C_26  and  C_27
REMARK   11  A    between atoms: C_27  and  C_28
REMARK   12  A    between atoms: C_27  and  C_29
REMARK                            x       y       z     vdW  Elec       q    Type
REMARK                         _______ _______ _______ _____ _____    ______ ____
ROOT
ATOM      1  N   UNL     1      -0.565  11.488  18.672  0.00  0.00    +0.000 N 
ATOM      2  C   UNL     1      -1.803  12.049  18.139  0.00  0.00    +0.000 C 
ATOM      3  C   UNL     1      -0.243  10.167  18.310  0.00  0.00    +0.000 C 
ATOM      4  O   UNL     1      -0.932   9.547  17.500  0.00  0.00    +0.000 OA
ENDROOT
BRANCH   3   5
ATOM      5  C   UNL     1       0.854   9.410  19.000  0.00  0.00    +0.000 A 
ATOM      6  C   UNL     1       0.825   9.034  20.360  0.00  0.00    +0.000 A 
ATOM      7  C   UNL     1       1.472   7.860  20.789  0.00  0.00    +0.000 A 
ATOM      8  C   UNL     1       2.251   7.204  19.863  0.00  0.00    +0.000 A 
ATOM      9  C   UNL     1       2.547   7.795  18.651  0.00  0.00    +0.000 A 
ATOM     10  C   UNL     1       1.846   8.879  18.171  0.00  0.00    +0.000 A 
ATOM     11  C   UNL     1       3.416   6.896  17.936  0.00  0.00    +0.000 C 
ATOM     12  O   UNL     1       4.157   7.241  17.035  0.00  0.00    +0.000 OA
ATOM     13  N   UNL     1       3.250   5.677  18.520  0.00  0.00    +0.000 N 
ATOM     14  C   UNL     1       2.694   5.797  19.764  0.00  0.00    +0.000 C 
ATOM     15  O   UNL     1       2.494   4.961  20.623  0.00  0.00    +0.000 OA
BRANCH  13  16
ATOM     16  C   UNL     1       3.688   4.464  17.860  0.00  0.00    +0.000 C 
BRANCH  16  17
ATOM     17  C   UNL     1       2.561   3.638  17.211  0.00  0.00    +0.000 C 
BRANCH  17  18
ATOM     18  C   UNL     1       2.200   2.281  17.862  0.00  0.00    +0.000 C 
ATOM     19  C   UNL     1       3.337   1.674  18.685  0.00  0.00    +0.000 C 
ATOM     20  C   UNL     1       0.974   2.450  18.773  0.00  0.00    +0.000 C 
ENDBRANCH  17  18
ENDBRANCH  16  17
ENDBRANCH  13  16
ENDBRANCH   3   5
BRANCH   1  21
ATOM     21  C   UNL     1       0.177  12.348  19.607  0.00  0.00    +0.000 C 
BRANCH  21  23
ATOM     22  N   UNL     1      -1.506  13.141  21.226  0.00  0.00    +0.000 N 
ATOM     23  C   UNL     1      -0.376  12.361  21.044  0.00  0.00    +0.000 C 
ATOM     24  O   UNL     1       0.194  11.708  21.916  0.00  0.00    +0.000 OA
ATOM     25  H   UNL     1      -1.962  13.472  20.384  0.00  0.00    +0.000 HD
BRANCH  22  30
ATOM     26  C   UNL     1      -3.970  13.028  23.995  0.00  0.00    +0.000 A 
ATOM     27  C   UNL     1      -3.422  13.951  24.887  0.00  0.00    +0.000 A 
ATOM     28  C   UNL     1      -2.250  14.632  24.567  0.00  0.00    +0.000 A 
ATOM     29  C   UNL     1      -1.607  14.377  23.357  0.00  0.00    +0.000 A 
ATOM     30  C   UNL     1      -2.129  13.444  22.457  0.00  0.00    +0.000 A 
ATOM     31  C   UNL     1      -3.333  12.793  22.770  0.00  0.00    +0.000 A 
BRANCH  26  33
ATOM     32  C   UNL     1      -6.311  12.695  23.712  0.00  0.00    +0.000 C 
ATOM     33  O   UNL     1      -5.119  12.436  24.441  0.00  0.00    +0.000 OA
ENDBRANCH  26  33
ENDBRANCH  22  30
ENDBRANCH  21  23
ENDBRANCH   1  21
TORSDOF 8
ENDMDL
MODEL 3
REMARK VINA RESULT:      -8.5      2.881      8.217
REMARK  Name = 
REMARK  12 active torsions:
REMARK  status: ('A' for Active; 'I' for Inactive)
REMARK    1  A    between atoms: C_1  and  O_2
REMARK    2  A    between atoms: O_2  and  C_3
REMARK    3  A    between atoms: C_7  and  N_8
REMARK    4  A    between atoms: C_9  and  C_11
REMARK    5  A    between atoms: C_11  and  N_12
REMARK    6  A    between atoms: N_12  and  C_13
REMARK    7  A    between atoms: C_14  and  C_16
REMARK    8  A    between atoms: N_24  and  C_25
REMARK    9  A    between atoms: C_25  and  C_26
REMARK   10  A    between atoms: C_26  and  C_27
REMARK   11  A    between atoms: C_27  and  C_28
REMARK   12  A    between atoms: C_27  and  C_29
REMARK                            x       y       z     vdW  Elec       q    Type
REMARK                         _______ _______ _______ _____ _____    ______ ____
ROOT
ATOM      1  N   UNL     1       3.141   3.179  19.116  0.00  0.00    +0.000 N 
ATOM      2  C   UNL     1       2.779   1.810  18.764  0.00  0.00    +0.000 C 
ATOM      3  C   UNL     1       2.173   4.180  18.908  0.00  0.00    +0.000 C 
ATOM      4  O   UNL     1       1.037   3.893  18.531  0.00  0.00    +0.000 OA
ENDROOT
BRANCH   3   5
ATOM      5  C   UNL     1       2.523   5.637  18.987  0.00  0.00    +0.000 A 
ATOM      6  C   UNL     1       3.076   6.380  17.922  0.00  0.00    +0.000 A 
ATOM      7  C   UNL     1       2.799   7.753  17.791  0.00  0.00    +0.000 A 
ATOM      8  C   UNL     1       2.110   8.351  18.822  0.00  0.00    +0.000 A 
ATOM      9  C   UNL     1       1.903   7.679  20.010  0.00  0.00    +0.000 A 
ATOM     10  C   UNL     1       2.066   6.316  20.120  0.00  0.00    +0.000 A 
ATOM     11  C   UNL     1       1.212   8.578  20.898  0.00  0.00    +0.000 C 
ATOM     12  O   UNL     1       1.208   8.466  22.109  0.00  0.00    +0.000 OA
ATOM     13  N   UNL     1       0.665   9.538  20.101  0.00  0.00    +0.000 N 
ATOM     14  C   UNL     1       1.271   9.567  18.875  0.00  0.00    +0.000 C 
ATOM     15  O   UNL     1       1.138  10.340  17.948  0.00  0.00    +0.000 OA
BRANCH  13  16
ATOM     16  C   UNL     1      -0.383  10.410  20.592  0.00  0.00    +0.000 C 
BRANCH  16  17
ATOM     17  C   UNL     1      -0.483  11.768  19.873  0.00  0.00    +0.000 C 
BRANCH  17  18
ATOM     18  C   UNL     1      -1.804  12.096  19.138  0.00  0.00    +0.000 C 
ATOM     19  C   UNL     1      -2.279  10.982  18.203  0.00  0.00    +0.000 C 
ATOM     20  C   UNL     1      -2.914  12.380  20.162  0.00  0.00    +0.000 C 
ENDBRANCH  17  18
ENDBRANCH  16  17
ENDBRANCH  13  16
ENDBRANCH   3   5
BRANCH   1  21
ATOM     21  C   UNL     1       4.522   3.377  19.581  0.00  0.00    +0.000 C 
BRANCH  21  23
ATOM     22  N   UNL     1       5.076   3.817  17.218  0.00  0.00    +0.000 N 
ATOM     23  C   UNL     1       5.468   3.994  18.535  0.00  0.00    +0.000 C 
ATOM     24  O   UNL     1       6.482   4.582  18.908  0.00  0.00    +0.000 OA
ATOM     25  H   UNL     1       4.133   3.472  17.075  0.00  0.00    +0.000 HD
BRANCH  22  30
ATOM     26  C   UNL     1       6.233   3.775  13.696  0.00  0.00    +0.000 A 
ATOM     27  C   UNL     1       7.218   4.763  13.719  0.00  0.00    +0.000 A 
ATOM     28  C   UNL     1       7.521   5.430  14.904  0.00  0.00    +0.000 A 
ATOM     29  C   UNL     1       6.823   5.123  16.071  0.00  0.00    +0.000 A 
ATOM     30  C   UNL     1       5.820   4.150  16.065  0.00  0.00    +0.000 A 
ATOM     31  C   UNL     1       5.551   3.455  14.875  0.00  0.00    +0.000 A 
BRANCH  26  33
ATOM     32  C   UNL     1       4.795   3.439  11.828  0.00  0.00    +0.000 C 
ATOM     33  O   UNL     1       6.042   3.207  12.466  0.00  0.00    +0.000 OA
ENDBRANCH  26  33
ENDBRANCH  22  30
ENDBRANCH  21  23
ENDBRANCH   1  21
TORSDOF 8
ENDMDL
MODEL 4
REMARK VINA RESULT:      -8.5      2.969      6.425
REMARK  Name = 
REMARK  12 active torsions:
REMARK  status: ('A' for Active; 'I' for Inactive)
REMARK    1  A    between atoms: C_1  and  O_2
REMARK    2  A    between atoms: O_2  and  C_3
REMARK    3  A    between atoms: C_7  and  N_8
REMARK    4  A    between atoms: C_9  and  C_11
REMARK    5  A    between atoms: C_11  and  N_12
REMARK    6  A    between atoms: N_12  and  C_13
REMARK    7  A    between atoms: C_14  and  C_16
REMARK    8  A    between atoms: N_24  and  C_25
REMARK    9  A    between atoms: C_25  and  C_26
REMARK   10  A    between atoms: C_26  and  C_27
REMARK   11  A    between atoms: C_27  and  C_28
REMARK   12  A    between atoms: C_27  and  C_29
REMARK                            x       y       z     vdW  Elec       q    Type
REMARK                         _______ _______ _______ _____ _____    ______ ____
ROOT
ATOM      1  N   UNL     1      -0.351  11.540  19.093  0.00  0.00    +0.000 N 
ATOM      2  C   UNL     1      -1.546  12.220  18.603  0.00  0.00    +0.000 C 
ATOM      3  C   UNL     1      -0.033  10.294  18.519  0.00  0.00    +0.000 C 
ATOM      4  O   UNL     1      -0.687   9.846  17.578  0.00  0.00    +0.000 OA
ENDROOT
BRANCH   3   5
ATOM      5  C   UNL     1       1.009   9.397  19.120  0.00  0.00    +0.000 A 
ATOM      6  C   UNL     1       0.935   8.856  20.422  0.00  0.00    +0.000 A 
ATOM      7  C   UNL     1       1.510   7.604  20.707  0.00  0.00    +0.000 A 
ATOM      8  C   UNL     1       2.269   7.026  19.714  0.00  0.00    +0.000 A 
ATOM      9  C   UNL     1       2.619   7.747  18.589  0.00  0.00    +0.000 A 
ATOM     10  C   UNL     1       1.986   8.920  18.242  0.00  0.00    +0.000 A 
ATOM     11  C   UNL     1       3.451   6.897  17.776  0.00  0.00    +0.000 C 
ATOM     12  O   UNL     1       4.226   7.311  16.935  0.00  0.00    +0.000 OA
ATOM     13  N   UNL     1       3.209   5.626  18.201  0.00  0.00    +0.000 N 
ATOM     14  C   UNL     1       2.638   5.620  19.443  0.00  0.00    +0.000 C 
ATOM     15  O   UNL     1       2.378   4.696  20.188  0.00  0.00    +0.000 OA
BRANCH  13  16
ATOM     16  C   UNL     1       3.593   4.483  17.397  0.00  0.00    +0.000 C 
BRANCH  16  17
ATOM     17  C   UNL     1       5.032   3.986  17.628  0.00  0.00    +0.000 C 
BRANCH  17  18
ATOM     18  C   UNL     1       6.154   4.608  16.762  0.00  0.00    +0.000 C 
ATOM     19  C   UNL     1       7.544   4.504  17.392  0.00  0.00    +0.000 C 
ATOM     20  C   UNL     1       6.190   3.925  15.386  0.00  0.00    +0.000 C 
ENDBRANCH  17  18
ENDBRANCH  16  17
ENDBRANCH  13  16
ENDBRANCH   3   5
BRANCH   1  21
ATOM     21  C   UNL     1       0.353  12.201  20.202  0.00  0.00    +0.000 C 
BRANCH  21  23
ATOM     22  N   UNL     1      -1.453  13.090  21.627  0.00  0.00    +0.000 N 
ATOM     23  C   UNL     1      -0.405  12.187  21.542  0.00  0.00    +0.000 C 
ATOM     24  O   UNL     1      -0.053  11.412  22.429  0.00  0.00    +0.000 OA
ATOM     25  H   UNL     1      -1.735  13.531  20.758  0.00  0.00    +0.000 HD
BRANCH  22  30
ATOM     26  C   UNL     1      -4.131  12.845  24.179  0.00  0.00    +0.000 A 
ATOM     27  C   UNL     1      -3.775  13.876  25.050  0.00  0.00    +0.000 A 
ATOM     28  C   UNL     1      -2.664  14.672  24.784  0.00  0.00    +0.000 A 
ATOM     29  C   UNL     1      -1.888  14.426  23.652  0.00  0.00    +0.000 A 
ATOM     30  C   UNL     1      -2.217  13.387  22.777  0.00  0.00    +0.000 A 
ATOM     31  C   UNL     1      -3.363  12.617  23.031  0.00  0.00    +0.000 A 
BRANCH  26  33
ATOM     32  C   UNL     1      -6.497  12.590  24.068  0.00  0.00    +0.000 C 
ATOM     33  O   UNL     1      -5.242  12.147  24.566  0.00  0.00    +0.000 OA
ENDBRANCH  26  33
ENDBRANCH  22  30
ENDBRANCH  21  23
ENDBRANCH   1  21
TORSDOF 8
ENDMDL
MODEL 5
REMARK VINA RESULT:      -8.4      2.873      8.602
REMARK  Name = 
REMARK  12 active torsions:
REMARK  status: ('A' for Active; 'I' for Inactive)
REMARK    1  A    between atoms: C_1  and  O_2
REMARK    2  A    between atoms: O_2  and  C_3
REMARK    3  A    between atoms: C_7  and  N_8
REMARK    4  A    between atoms: C_9  and  C_11
REMARK    5  A    between atoms: C_11  and  N_12
REMARK    6  A    between atoms: N_12  and  C_13
REMARK    7  A    between atoms: C_14  and  C_16
REMARK    8  A    between atoms: N_24  and  C_25
REMARK    9  A    between atoms: C_25  and  C_26
REMARK   10  A    between atoms: C_26  and  C_27
REMARK   11  A    between atoms: C_27  and  C_28
REMARK   12  A    between atoms: C_27  and  C_29
REMARK                            x       y       z     vdW  Elec       q    Type
REMARK                         _______ _______ _______ _____ _____    ______ ____
ROOT
ATOM      1  N   UNL     1       3.702   4.157  19.034  0.00  0.00    +0.000 N 
ATOM      2  C   UNL     1       3.596   2.729  18.750  0.00  0.00    +0.000 C 
ATOM      3  C   UNL     1       2.513   4.911  19.022  0.00  0.00    +0.000 C 
ATOM      4  O   UNL     1       1.420   4.366  18.870  0.00  0.00    +0.000 OA
ENDROOT
BRANCH   3   5
ATOM      5  C   UNL     1       2.536   6.411  19.039  0.00  0.00    +0.000 A 
ATOM      6  C   UNL     1       2.638   7.218  17.885  0.00  0.00    +0.000 A 
ATOM      7  C   UNL     1       2.037   8.489  17.849  0.00  0.00    +0.000 A 
ATOM      8  C   UNL     1       1.499   8.958  19.025  0.00  0.00    +0.000 A 
ATOM      9  C   UNL     1       1.737   8.302  20.217  0.00  0.00    +0.000 A 
ATOM     10  C   UNL     1       2.222   7.014  20.261  0.00  0.00    +0.000 A 
ATOM     11  C   UNL     1       1.095   9.059  21.260  0.00  0.00    +0.000 C 
ATOM     12  O   UNL     1       1.405   8.993  22.435  0.00  0.00    +0.000 OA
ATOM     13  N   UNL     1       0.173   9.842  20.636  0.00  0.00    +0.000 N 
ATOM     14  C   UNL     1       0.446   9.959  19.301  0.00  0.00    +0.000 C 
ATOM     15  O   UNL     1      -0.074  10.648  18.446  0.00  0.00    +0.000 OA
BRANCH  13  16
ATOM     16  C   UNL     1      -0.896  10.479  21.380  0.00  0.00    +0.000 C 
BRANCH  16  17
ATOM     17  C   UNL     1      -0.548  11.865  21.953  0.00  0.00    +0.000 C 
BRANCH  17  18
ATOM     18  C   UNL     1      -1.619  12.976  21.844  0.00  0.00    +0.000 C 
ATOM     19  C   UNL     1      -1.068  14.384  22.074  0.00  0.00    +0.000 C 
ATOM     20  C   UNL     1      -2.278  12.931  20.457  0.00  0.00    +0.000 C 
ENDBRANCH  17  18
ENDBRANCH  16  17
ENDBRANCH  13  16
ENDBRANCH   3   5
BRANCH   1  21
ATOM     21  C   UNL     1       5.066   4.673  19.223  0.00  0.00    +0.000 C 
BRANCH  21  23
ATOM     22  N   UNL     1       5.334   4.852  16.778  0.00  0.00    +0.000 N 
ATOM     23  C   UNL     1       5.967   4.575  17.979  0.00  0.00    +0.000 C 
ATOM     24  O   UNL     1       7.150   4.265  18.112  0.00  0.00    +0.000 OA
ATOM     25  H   UNL     1       4.411   5.265  16.844  0.00  0.00    +0.000 HD
BRANCH  22  30
ATOM     26  C   UNL     1       5.611   3.849  13.219  0.00  0.00    +0.000 A 
ATOM     27  C   UNL     1       6.859   4.375  12.883  0.00  0.00    +0.000 A 
ATOM     28  C   UNL     1       7.625   5.040  13.836  0.00  0.00    +0.000 A 
ATOM     29  C   UNL     1       7.135   5.202  15.132  0.00  0.00    +0.000 A 
ATOM     30  C   UNL     1       5.880   4.699  15.485  0.00  0.00    +0.000 A 
ATOM     31  C   UNL     1       5.133   3.994  14.527  0.00  0.00    +0.000 A 
BRANCH  26  33
ATOM     32  C   UNL     1       5.663   2.167  11.534  0.00  0.00    +0.000 C 
ATOM     33  O   UNL     1       4.971   3.224  12.184  0.00  0.00    +0.000 OA
ENDBRANCH  26  33
ENDBRANCH  22  30
ENDBRANCH  21  23
ENDBRANCH   1  21
TORSDOF 8
ENDMDL
MODEL 6
REMARK VINA RESULT:      -8.3      2.853      8.120
REMARK  Name = 
REMARK  12 active torsions:
REMARK  status: ('A' for Active; 'I' for Inactive)
REMARK    1  A    between atoms: C_1  and  O_2
REMARK    2  A    between atoms: O_2  and  C_3
REMARK    3  A    between atoms: C_7  and  N_8
REMARK    4  A    between atoms: C_9  and  C_11
REMARK    5  A    between atoms: C_11  and  N_12
REMARK    6  A    between atoms: N_12  and  C_13
REMARK    7  A    between atoms: C_14  and  C_16
REMARK    8  A    between atoms: N_24  and  C_25
REMARK    9  A    between atoms: C_25  and  C_26
REMARK   10  A    between atoms: C_26  and  C_27
REMARK   11  A    between atoms: C_27  and  C_28
REMARK   12  A    between atoms: C_27  and  C_29
REMARK                            x       y       z     vdW  Elec       q    Type
REMARK                         _______ _______ _______ _____ _____    ______ ____
ROOT
ATOM      1  N   UNL     1       2.882   3.183  19.692  0.00  0.00    +0.000 N 
ATOM      2  C   UNL     1       2.476   1.798  19.469  0.00  0.00    +0.000 C 
ATOM      3  C   UNL     1       1.921   4.186  19.461  0.00  0.00    +0.000 C 
ATOM      4  O   UNL     1       0.761   3.896  19.174  0.00  0.00    +0.000 OA
ENDROOT
BRANCH   3   5
ATOM      5  C   UNL     1       2.301   5.637  19.405  0.00  0.00    +0.000 A 
ATOM      6  C   UNL     1       2.811   6.280  18.258  0.00  0.00    +0.000 A 
ATOM      7  C   UNL     1       2.553   7.645  18.031  0.00  0.00    +0.000 A 
ATOM      8  C   UNL     1       1.930   8.337  19.044  0.00  0.00    +0.000 A 
ATOM      9  C   UNL     1       1.772   7.766  20.292  0.00  0.00    +0.000 A 
ATOM     10  C   UNL     1       1.916   6.412  20.503  0.00  0.00    +0.000 A 
ATOM     11  C   UNL     1       1.145   8.747  21.138  0.00  0.00    +0.000 C 
ATOM     12  O   UNL     1       1.202   8.731  22.354  0.00  0.00    +0.000 OA
ATOM     13  N   UNL     1       0.575   9.653  20.296  0.00  0.00    +0.000 N 
ATOM     14  C   UNL     1       1.116   9.572  19.043  0.00  0.00    +0.000 C 
ATOM     15  O   UNL     1       0.949  10.272  18.064  0.00  0.00    +0.000 OA
BRANCH  13  16
ATOM     16  C   UNL     1      -0.431  10.584  20.768  0.00  0.00    +0.000 C 
BRANCH  16  17
ATOM     17  C   UNL     1       0.104  11.980  21.136  0.00  0.00    +0.000 C 
BRANCH  17  18
ATOM     18  C   UNL     1      -0.864  12.956  21.847  0.00  0.00    +0.000 C 
ATOM     19  C   UNL     1      -1.444  12.403  23.150  0.00  0.00    +0.000 C 
ATOM     20  C   UNL     1      -0.141  14.276  22.156  0.00  0.00    +0.000 C 
ENDBRANCH  17  18
ENDBRANCH  16  17
ENDBRANCH  13  16
ENDBRANCH   3   5
BRANCH   1  21
ATOM     21  C   UNL     1       4.292   3.385  20.059  0.00  0.00    +0.000 C 
BRANCH  21  23
ATOM     22  N   UNL     1       4.987   3.634  17.706  0.00  0.00    +0.000 N 
ATOM     23  C   UNL     1       5.133   4.115  18.997  0.00  0.00    +0.000 C 
ATOM     24  O   UNL     1       5.863   5.045  19.338  0.00  0.00    +0.000 OA
ATOM     25  H   UNL     1       4.220   2.988  17.554  0.00  0.00    +0.000 HD
BRANCH  22  30
ATOM     26  C   UNL     1       5.977   3.999  14.152  0.00  0.00    +0.000 A 
ATOM     27  C   UNL     1       7.138   4.763  14.268  0.00  0.00    +0.000 A 
ATOM     28  C   UNL     1       7.614   5.140  15.521  0.00  0.00    +0.000 A 
ATOM     29  C   UNL     1       6.914   4.769  16.669  0.00  0.00    +0.000 A 
ATOM     30  C   UNL     1       5.738   4.019  16.574  0.00  0.00    +0.000 A 
ATOM     31  C   UNL     1       5.290   3.609  15.308  0.00  0.00    +0.000 A 
BRANCH  26  33
ATOM     32  C   UNL     1       6.684   3.525  11.927  0.00  0.00    +0.000 C 
ATOM     33  O   UNL     1       5.629   3.704  12.862  0.00  0.00    +0.000 OA
ENDBRANCH  26  33
ENDBRANCH  22  30
ENDBRANCH  21  23
ENDBRANCH   1  21
TORSDOF 8
ENDMDL
MODEL 7
REMARK VINA RESULT:      -8.3      2.943      9.214
REMARK  Name = 
REMARK  12 active torsions:
REMARK  status: ('A' for Active; 'I' for Inactive)
REMARK    1  A    between atoms: C_1  and  O_2
REMARK    2  A    between atoms: O_2  and  C_3
REMARK    3  A    between atoms: C_7  and  N_8
REMARK    4  A    between atoms: C_9  and  C_11
REMARK    5  A    between atoms: C_11  and  N_12
REMARK    6  A    between atoms: N_12  and  C_13
REMARK    7  A    between atoms: C_14  and  C_16
REMARK    8  A    between atoms: N_24  and  C_25
REMARK    9  A    between atoms: C_25  and  C_26
REMARK   10  A    between atoms: C_26  and  C_27
REMARK   11  A    between atoms: C_27  and  C_28
REMARK   12  A    between atoms: C_27  and  C_29
REMARK                            x       y       z     vdW  Elec       q    Type
REMARK                         _______ _______ _______ _____ _____    ______ ____
ROOT
ATOM      1  N   UNL     1       3.750   5.281  18.592  0.00  0.00    +0.000 N 
ATOM      2  C   UNL     1       3.714   3.833  18.414  0.00  0.00    +0.000 C 
ATOM      3  C   UNL     1       2.586   5.905  19.080  0.00  0.00    +0.000 C 
ATOM      4  O   UNL     1       1.612   5.239  19.429  0.00  0.00    +0.000 OA
ENDROOT
BRANCH   3   5
ATOM      5  C   UNL     1       2.425   7.397  19.052  0.00  0.00    +0.000 A 
ATOM      6  C   UNL     1       2.458   8.177  17.877  0.00  0.00    +0.000 A 
ATOM      7  C   UNL     1       1.708   9.364  17.789  0.00  0.00    +0.000 A 
ATOM      8  C   UNL     1       1.086   9.796  18.938  0.00  0.00    +0.000 A 
ATOM      9  C   UNL     1       1.372   9.206  20.154  0.00  0.00    +0.000 A 
ATOM     10  C   UNL     1       2.010   7.989  20.248  0.00  0.00    +0.000 A 
ATOM     11  C   UNL     1       0.616   9.907  21.160  0.00  0.00    +0.000 C 
ATOM     12  O   UNL     1       0.901   9.913  22.342  0.00  0.00    +0.000 OA
ATOM     13  N   UNL     1      -0.378  10.554  20.491  0.00  0.00    +0.000 N 
ATOM     14  C   UNL     1      -0.088  10.667  19.160  0.00  0.00    +0.000 C 
ATOM     15  O   UNL     1      -0.666  11.263  18.273  0.00  0.00    +0.000 OA
BRANCH  13  16
ATOM     16  C   UNL     1      -1.536  11.075  21.192  0.00  0.00    +0.000 C 
BRANCH  16  17
ATOM     17  C   UNL     1      -1.555  12.605  21.360  0.00  0.00    +0.000 C 
BRANCH  17  18
ATOM     18  C   UNL     1      -2.228  13.180  22.629  0.00  0.00    +0.000 C 
ATOM     19  C   UNL     1      -2.833  12.110  23.540  0.00  0.00    +0.000 C 
ATOM     20  C   UNL     1      -1.205  13.990  23.440  0.00  0.00    +0.000 C 
ENDBRANCH  17  18
ENDBRANCH  16  17
ENDBRANCH  13  16
ENDBRANCH   3   5
BRANCH   1  21
ATOM     21  C   UNL     1       4.988   5.948  18.160  0.00  0.00    +0.000 C 
BRANCH  21  23
ATOM     22  N   UNL     1       5.812   4.822  16.126  0.00  0.00    +0.000 N 
ATOM     23  C   UNL     1       5.211   5.961  16.637  0.00  0.00    +0.000 C 
ATOM     24  O   UNL     1       4.862   6.943  15.982  0.00  0.00    +0.000 OA
ATOM     25  H   UNL     1       5.876   4.030  16.756  0.00  0.00    +0.000 HD
BRANCH  22  30
ATOM     26  C   UNL     1       5.970   3.484  12.672  0.00  0.00    +0.000 A 
ATOM     27  C   UNL     1       7.049   4.199  12.150  0.00  0.00    +0.000 A 
ATOM     28  C   UNL     1       7.744   5.107  12.944  0.00  0.00    +0.000 A 
ATOM     29  C   UNL     1       7.349   5.321  14.264  0.00  0.00    +0.000 A 
ATOM     30  C   UNL     1       6.260   4.628  14.801  0.00  0.00    +0.000 A 
ATOM     31  C   UNL     1       5.591   3.684  14.005  0.00  0.00    +0.000 A 
BRANCH  26  33
ATOM     32  C   UNL     1       6.169   1.549  11.298  0.00  0.00    +0.000 C 
ATOM     33  O   UNL     1       5.383   2.630  11.779  0.00  0.00    +0.000 OA
ENDBRANCH  26  33
ENDBRANCH  22  30
ENDBRANCH  21  23
ENDBRANCH   1  21
TORSDOF 8
ENDMDL
MODEL 8
REMARK VINA RESULT:      -8.3      2.792      5.274
REMARK  Name = 
REMARK  12 active torsions:
REMARK  status: ('A' for Active; 'I' for Inactive)
REMARK    1  A    between atoms: C_1  and  O_2
REMARK    2  A    between atoms: O_2  and  C_3
REMARK    3  A    between atoms: C_7  and  N_8
REMARK    4  A    between atoms: C_9  and  C_11
REMARK    5  A    between atoms: C_11  and  N_12
REMARK    6  A    between atoms: N_12  and  C_13
REMARK    7  A    between atoms: C_14  and  C_16
REMARK    8  A    between atoms: N_24  and  C_25
REMARK    9  A    between atoms: C_25  and  C_26
REMARK   10  A    between atoms: C_26  and  C_27
REMARK   11  A    between atoms: C_27  and  C_28
REMARK   12  A    between atoms: C_27  and  C_29
REMARK                            x       y       z     vdW  Elec       q    Type
REMARK                         _______ _______ _______ _____ _____    ______ ____
ROOT
ATOM      1  N   UNL     1       1.175   9.031  19.129  0.00  0.00    +0.000 N 
ATOM      2  C   UNL     1       0.237  10.045  18.658  0.00  0.00    +0.000 C 
ATOM      3  C   UNL     1       2.118   8.541  18.206  0.00  0.00    +0.000 C 
ATOM      4  O   UNL     1       2.204   9.020  17.076  0.00  0.00    +0.000 OA
ENDROOT
BRANCH   3   5
ATOM      5  C   UNL     1       2.946   7.325  18.502  0.00  0.00    +0.000 A 
ATOM      6  C   UNL     1       2.495   6.221  19.257  0.00  0.00    +0.000 A 
ATOM      7  C   UNL     1       2.979   4.928  18.987  0.00  0.00    +0.000 A 
ATOM      8  C   UNL     1       4.011   4.825  18.082  0.00  0.00    +0.000 A 
ATOM      9  C   UNL     1       4.670   5.954  17.638  0.00  0.00    +0.000 A 
ATOM     10  C   UNL     1       4.150   7.219  17.800  0.00  0.00    +0.000 A 
ATOM     11  C   UNL     1       5.722   5.519  16.756  0.00  0.00    +0.000 C 
ATOM     12  O   UNL     1       6.707   6.184  16.494  0.00  0.00    +0.000 OA
ATOM     13  N   UNL     1       5.386   4.256  16.374  0.00  0.00    +0.000 N 
ATOM     14  C   UNL     1       4.469   3.708  17.227  0.00  0.00    +0.000 C 
ATOM     15  O   UNL     1       4.013   2.583  17.281  0.00  0.00    +0.000 OA
BRANCH  13  16
ATOM     16  C   UNL     1       6.014   3.628  15.228  0.00  0.00    +0.000 C 
BRANCH  16  17
ATOM     17  C   UNL     1       5.608   4.220  13.865  0.00  0.00    +0.000 C 
BRANCH  17  18
ATOM     18  C   UNL     1       5.902   3.377  12.600  0.00  0.00    +0.000 C 
ATOM     19  C   UNL     1       4.708   3.258  11.652  0.00  0.00    +0.000 C 
ATOM     20  C   UNL     1       7.080   3.991  11.828  0.00  0.00    +0.000 C 
ENDBRANCH  17  18
ENDBRANCH  16  17
ENDBRANCH  13  16
ENDBRANCH   3   5
BRANCH   1  21
ATOM     21  C   UNL     1       0.976   8.568  20.511  0.00  0.00    +0.000 C 
BRANCH  21  23
ATOM     22  N   UNL     1      -0.425  10.420  21.341  0.00  0.00    +0.000 N 
ATOM     23  C   UNL     1       0.737   9.692  21.536  0.00  0.00    +0.000 C 
ATOM     24  O   UNL     1       1.558   9.877  22.432  0.00  0.00    +0.000 OA
ATOM     25  H   UNL     1      -1.086  10.038  20.674  0.00  0.00    +0.000 HD
BRANCH  22  30
ATOM     26  C   UNL     1      -0.510  13.974  22.397  0.00  0.00    +0.000 A 
ATOM     27  C   UNL     1      -1.539  13.955  23.339  0.00  0.00    +0.000 A 
ATOM     28  C   UNL     1      -2.192  12.764  23.648  0.00  0.00    +0.000 A 
ATOM     29  C   UNL     1      -1.830  11.585  22.997  0.00  0.00    +0.000 A 
ATOM     30  C   UNL     1      -0.815  11.585  22.037  0.00  0.00    +0.000 A 
ATOM     31  C   UNL     1      -0.135  12.783  21.763  0.00  0.00    +0.000 A 
BRANCH  26  33
ATOM     32  C   UNL     1       0.890  15.369  21.069  0.00  0.00    +0.000 C 
ATOM     33  O   UNL     1       0.039  15.210  22.195  0.00  0.00    +0.000 OA
ENDBRANCH  26  33
ENDBRANCH  22  30
ENDBRANCH  21  23
ENDBRANCH   1  21
TORSDOF 8
ENDMDL
MODEL 9
REMARK VINA RESULT:      -8.2      1.663      2.061
REMARK  Name = 
REMARK  12 active torsions:
REMARK  status: ('A' for Active; 'I' for Inactive)
REMARK    1  A    between atoms: C_1  and  O_2
REMARK    2  A    between atoms: O_2  and  C_3
REMARK    3  A    between atoms: C_7  and  N_8
REMARK    4  A    between atoms: C_9  and  C_11
REMARK    5  A    between atoms: C_11  and  N_12
REMARK    6  A    between atoms: N_12  and  C_13
REMARK    7  A    between atoms: C_14  and  C_16
REMARK    8  A    between atoms: N_24  and  C_25
REMARK    9  A    between atoms: C_25  and  C_26
REMARK   10  A    between atoms: C_26  and  C_27
REMARK   11  A    between atoms: C_27  and  C_28
REMARK   12  A    between atoms: C_27  and  C_29
REMARK                            x       y       z     vdW  Elec       q    Type
REMARK                         _______ _______ _______ _____ _____    ______ ____
ROOT
ATOM      1  N   UNL     1       2.033   5.341  19.648  0.00  0.00    +0.000 N 
ATOM      2  C   UNL     1       0.776   5.234  20.383  0.00  0.00    +0.000 C 
ATOM      3  C   UNL     1       2.474   4.202  18.948  0.00  0.00    +0.000 C 
ATOM      4  O   UNL     1       1.777   3.189  18.884  0.00  0.00    +0.000 OA
ENDROOT
BRANCH   3   5
ATOM      5  C   UNL     1       3.861   4.117  18.383  0.00  0.00    +0.000 A 
ATOM      6  C   UNL     1       4.153   3.854  17.028  0.00  0.00    +0.000 A 
ATOM      7  C   UNL     1       5.307   4.393  16.430  0.00  0.00    +0.000 A 
ATOM      8  C   UNL     1       6.197   5.036  17.260  0.00  0.00    +0.000 A 
ATOM      9  C   UNL     1       6.059   4.959  18.632  0.00  0.00    +0.000 A 
ATOM     10  C   UNL     1       4.892   4.536  19.230  0.00  0.00    +0.000 A 
ATOM     11  C   UNL     1       7.161   5.678  19.216  0.00  0.00    +0.000 C 
ATOM     12  O   UNL     1       7.561   5.502  20.351  0.00  0.00    +0.000 OA
ATOM     13  N   UNL     1       7.635   6.492  18.232  0.00  0.00    +0.000 N 
ATOM     14  C   UNL     1       7.222   6.069  16.999  0.00  0.00    +0.000 C 
ATOM     15  O   UNL     1       7.520   6.463  15.889  0.00  0.00    +0.000 OA
BRANCH  13  16
ATOM     16  C   UNL     1       8.507   7.608  18.540  0.00  0.00    +0.000 C 
BRANCH  16  17
ATOM     17  C   UNL     1       8.101   8.943  17.889  0.00  0.00    +0.000 C 
BRANCH  17  18
ATOM     18  C   UNL     1       8.397  10.244  18.674  0.00  0.00    +0.000 C 
ATOM     19  C   UNL     1       9.592  10.130  19.622  0.00  0.00    +0.000 C 
ATOM     20  C   UNL     1       8.661  11.396  17.692  0.00  0.00    +0.000 C 
ENDBRANCH  17  18
ENDBRANCH  16  17
ENDBRANCH  13  16
ENDBRANCH   3   5
BRANCH   1  21
ATOM     21  C   UNL     1       2.750   6.617  19.788  0.00  0.00    +0.000 C 
BRANCH  21  23
ATOM     22  N   UNL     1       1.515   8.752  19.778  0.00  0.00    +0.000 N 
ATOM     23  C   UNL     1       2.135   7.788  19.000  0.00  0.00    +0.000 C 
ATOM     24  O   UNL     1       2.220   7.802  17.773  0.00  0.00    +0.000 OA
ATOM     25  H   UNL     1       1.683   8.697  20.776  0.00  0.00    +0.000 HD
BRANCH  22  30
ATOM     26  C   UNL     1      -1.206  10.630  18.099  0.00  0.00    +0.000 A 
ATOM     27  C   UNL     1      -0.842  11.948  18.378  0.00  0.00    +0.000 A 
ATOM     28  C   UNL     1       0.316  12.223  19.100  0.00  0.00    +0.000 A 
ATOM     29  C   UNL     1       1.109  11.175  19.566  0.00  0.00    +0.000 A 
ATOM     30  C   UNL     1       0.753   9.847  19.313  0.00  0.00    +0.000 A 
ATOM     31  C   UNL     1      -0.394   9.581  18.549  0.00  0.00    +0.000 A 
BRANCH  26  33
ATOM     32  C   UNL     1      -3.412  11.424  17.681  0.00  0.00    +0.000 C 
ATOM     33  O   UNL     1      -2.365  10.511  17.383  0.00  0.00    +0.000 OA
ENDBRANCH  26  33
ENDBRANCH  22  30
ENDBRANCH  21  23
ENDBRANCH   1  21
TORSDOF 8
ENDMDL
