MODEL 1
REMARK VINA RESULT:      -7.9      0.000      0.000
REMARK  Name = 
REMARK  10 active torsions:
REMARK  status: ('A' for Active; 'I' for Inactive)
REMARK    1  A    between atoms: C_1  and  O_2
REMARK    2  A    between atoms: O_2  and  C_3
REMARK    3  A    between atoms: C_6  and  C_7
REMARK    4  A    between atoms: C_13  and  C_14
REMARK    5  A    between atoms: C_18  and  O_19
REMARK    6  A    between atoms: O_19  and  C_20
REMARK    7  A    between atoms: C_21  and  O_22
REMARK    8  A    between atoms: O_22  and  C_23
REMARK    9  A    between atoms: C_27  and  O_28
REMARK   10  A    between atoms: O_28  and  C_29
REMARK                            x       y       z     vdW  Elec       q    Type
REMARK                         _______ _______ _______ _____ _____    ______ ____
ROOT
ATOM      1  C   UNL     1       0.011  10.690  18.591  0.00  0.00    +0.000 C 
ATOM      2  C   UNL     1       0.634   9.710  19.269  0.00  0.00    +0.000 C 
ATOM      3  C   UNL     1       0.338   9.326  20.690  0.00  0.00    +0.000 C 
ATOM      4  C   UNL     1       1.457   8.500  21.308  0.00  0.00    +0.000 C 
ATOM      5  C   UNL     1       1.731   7.268  20.459  0.00  0.00    +0.000 C 
ATOM      6  C   UNL     1       2.061   7.625  19.040  0.00  0.00    +0.000 C 
ATOM      7  C   UNL     1       2.613   6.788  18.142  0.00  0.00    +0.000 C 
ATOM      8  C   UNL     1       1.694   8.973  18.514  0.00  0.00    +0.000 C 
ATOM      9  O   UNL     1       2.198   9.430  17.493  0.00  0.00    +0.000 OA
ENDROOT
BRANCH   1  13
ATOM     10  C   UNL     1      -3.154  12.973  20.315  0.00  0.00    +0.000 A 
ATOM     11  C   UNL     1      -3.392  12.093  19.246  0.00  0.00    +0.000 A 
ATOM     12  C   UNL     1      -2.354  11.363  18.670  0.00  0.00    +0.000 A 
ATOM     13  C   UNL     1      -1.054  11.535  19.126  0.00  0.00    +0.000 A 
ATOM     14  C   UNL     1      -0.791  12.484  20.117  0.00  0.00    +0.000 A 
ATOM     15  C   UNL     1      -1.827  13.211  20.723  0.00  0.00    +0.000 A 
BRANCH  10  17
ATOM     16  C   UNL     1      -5.176  12.733  21.517  0.00  0.00    +0.000 C 
ATOM     17  O   UNL     1      -4.189  13.599  20.954  0.00  0.00    +0.000 OA
ENDBRANCH  10  17
BRANCH  15  18
ATOM     18  O   UNL     1      -1.361  14.065  21.688  0.00  0.00    +0.000 OA
ATOM     19  C   UNL     1      -1.221  13.595  23.018  0.00  0.00    +0.000 C 
ENDBRANCH  15  18
ENDBRANCH   1  13
BRANCH   7  20
ATOM     20  C   UNL     1       2.808   5.352  18.370  0.00  0.00    +0.000 A 
ATOM     21  C   UNL     1       1.809   4.504  17.863  0.00  0.00    +0.000 A 
ATOM     22  C   UNL     1       1.928   3.124  17.974  0.00  0.00    +0.000 A 
ATOM     23  C   UNL     1       3.044   2.584  18.602  0.00  0.00    +0.000 A 
ATOM     24  C   UNL     1       4.056   3.404  19.125  0.00  0.00    +0.000 A 
ATOM     25  C   UNL     1       3.947   4.808  19.016  0.00  0.00    +0.000 A 
BRANCH  24  26
ATOM     26  O   UNL     1       5.061   2.660  19.691  0.00  0.00    +0.000 OA
ATOM     27  C   UNL     1       4.739   1.665  20.649  0.00  0.00    +0.000 C 
ENDBRANCH  24  26
BRANCH  25  28
ATOM     28  O   UNL     1       5.018   5.543  19.456  0.00  0.00    +0.000 OA
ATOM     29  C   UNL     1       6.169   5.689  18.637  0.00  0.00    +0.000 C 
ENDBRANCH  25  28
ENDBRANCH   7  20
TORSDOF 6
ENDMDL
MODEL 2
REMARK VINA RESULT:      -7.8      2.484      3.786
REMARK  Name = 
REMARK  10 active torsions:
REMARK  status: ('A' for Active; 'I' for Inactive)
REMARK    1  A    between atoms: C_1  and  O_2
REMARK    2  A    between atoms: O_2  and  C_3
REMARK    3  A    between atoms: C_6  and  C_7
REMARK    4  A    between atoms: C_13  and  C_14
REMARK    5  A    between atoms: C_18  and  O_19
REMARK    6  A    between atoms: O_19  and  C_20
REMARK    7  A    between atoms: C_21  and  O_22
REMARK    8  A    between atoms: O_22  and  C_23
REMARK    9  A    between atoms: C_27  and  O_28
REMARK   10  A    between atoms: O_28  and  C_29
REMARK                            x       y       z     vdW  Elec       q    Type
REMARK                         _______ _______ _______ _____ _____    ______ ____
ROOT
ATOM      1  C   UNL     1       0.909   8.559  21.443  0.00  0.00    +0.000 C 
ATOM      2  C   UNL     1       1.447   8.192  20.267  0.00  0.00    +0.000 C 
ATOM      3  C   UNL     1       1.521   9.062  19.046  0.00  0.00    +0.000 C 
ATOM      4  C   UNL     1       1.785   8.259  17.780  0.00  0.00    +0.000 C 
ATOM      5  C   UNL     1       3.055   7.435  17.937  0.00  0.00    +0.000 C 
ATOM      6  C   UNL     1       2.996   6.532  19.132  0.00  0.00    +0.000 C 
ATOM      7  C   UNL     1       3.832   5.503  19.365  0.00  0.00    +0.000 C 
ATOM      8  C   UNL     1       2.003   6.804  20.214  0.00  0.00    +0.000 C 
ATOM      9  O   UNL     1       1.697   5.952  21.043  0.00  0.00    +0.000 OA
ENDROOT
BRANCH   1  13
ATOM     10  C   UNL     1      -0.670  12.393  22.447  0.00  0.00    +0.000 A 
ATOM     11  C   UNL     1      -1.166  11.224  23.048  0.00  0.00    +0.000 A 
ATOM     12  C   UNL     1      -0.663   9.970  22.704  0.00  0.00    +0.000 A 
ATOM     13  C   UNL     1       0.313   9.863  21.722  0.00  0.00    +0.000 A 
ATOM     14  C   UNL     1       0.737  11.009  21.044  0.00  0.00    +0.000 A 
ATOM     15  C   UNL     1       0.258  12.281  21.394  0.00  0.00    +0.000 A 
BRANCH  10  17
ATOM     16  C   UNL     1      -2.372  13.670  23.478  0.00  0.00    +0.000 C 
ATOM     17  O   UNL     1      -1.080  13.628  22.868  0.00  0.00    +0.000 OA
ENDBRANCH  10  17
BRANCH  15  18
ATOM     18  O   UNL     1       0.821  13.270  20.630  0.00  0.00    +0.000 OA
ATOM     19  C   UNL     1       1.983  12.980  19.871  0.00  0.00    +0.000 C 
ENDBRANCH  15  18
ENDBRANCH   1  13
BRANCH   7  20
ATOM     20  C   UNL     1       5.033   5.227  18.570  0.00  0.00    +0.000 A 
ATOM     21  C   UNL     1       6.256   5.614  19.143  0.00  0.00    +0.000 A 
ATOM     22  C   UNL     1       7.457   5.343  18.499  0.00  0.00    +0.000 A 
ATOM     23  C   UNL     1       7.442   4.692  17.271  0.00  0.00    +0.000 A 
ATOM     24  C   UNL     1       6.235   4.299  16.669  0.00  0.00    +0.000 A 
ATOM     25  C   UNL     1       5.009   4.566  17.316  0.00  0.00    +0.000 A 
BRANCH  24  26
ATOM     26  O   UNL     1       6.457   3.669  15.469  0.00  0.00    +0.000 OA
ATOM     27  C   UNL     1       6.614   4.443  14.292  0.00  0.00    +0.000 C 
ENDBRANCH  24  26
BRANCH  25  28
ATOM     28  O   UNL     1       3.880   4.064  16.721  0.00  0.00    +0.000 OA
ATOM     29  C   UNL     1       3.228   2.928  17.271  0.00  0.00    +0.000 C 
ENDBRANCH  25  28
ENDBRANCH   7  20
TORSDOF 6
ENDMDL
MODEL 3
REMARK VINA RESULT:      -7.8      0.764      1.820
REMARK  Name = 
REMARK  10 active torsions:
REMARK  status: ('A' for Active; 'I' for Inactive)
REMARK    1  A    between atoms: C_1  and  O_2
REMARK    2  A    between atoms: O_2  and  C_3
REMARK    3  A    between atoms: C_6  and  C_7
REMARK    4  A    between atoms: C_13  and  C_14
REMARK    5  A    between atoms: C_18  and  O_19
REMARK    6  A    between atoms: O_19  and  C_20
REMARK    7  A    between atoms: C_21  and  O_22
REMARK    8  A    between atoms: O_22  and  C_23
REMARK    9  A    between atoms: C_27  and  O_28
REMARK   10  A    between atoms: O_28  and  C_29
REMARK                            x       y       z     vdW  Elec       q    Type
REMARK                         _______ _______ _______ _____ _____    ______ ____
ROOT
ATOM      1  C   UNL     1      -0.011  10.726  18.754  0.00  0.00    +0.000 C 
ATOM      2  C   UNL     1       0.620   9.725  19.394  0.00  0.00    +0.000 C 
ATOM      3  C   UNL     1       0.336   9.293  20.803  0.00  0.00    +0.000 C 
ATOM      4  C   UNL     1       1.462   8.449  21.384  0.00  0.00    +0.000 C 
ATOM      5  C   UNL     1       1.731   7.247  20.491  0.00  0.00    +0.000 C 
ATOM      6  C   UNL     1       2.049   7.652  19.083  0.00  0.00    +0.000 C 
ATOM      7  C   UNL     1       2.595   6.846  18.152  0.00  0.00    +0.000 C 
ATOM      8  C   UNL     1       1.675   9.016  18.606  0.00  0.00    +0.000 C 
ATOM      9  O   UNL     1       2.170   9.508  17.596  0.00  0.00    +0.000 OA
ENDROOT
BRANCH   1  13
ATOM     10  C   UNL     1      -3.066  13.303  20.245  0.00  0.00    +0.000 A 
ATOM     11  C   UNL     1      -1.737  13.425  20.682  0.00  0.00    +0.000 A 
ATOM     12  C   UNL     1      -0.743  12.569  20.209  0.00  0.00    +0.000 A 
ATOM     13  C   UNL     1      -1.072  11.550  19.326  0.00  0.00    +0.000 A 
ATOM     14  C   UNL     1      -2.409  11.355  18.967  0.00  0.00    +0.000 A 
ATOM     15  C   UNL     1      -3.417  12.221  19.416  0.00  0.00    +0.000 A 
BRANCH  10  17
ATOM     16  C   UNL     1      -4.663  13.948  21.864  0.00  0.00    +0.000 C 
ATOM     17  O   UNL     1      -4.015  14.215  20.619  0.00  0.00    +0.000 OA
ENDBRANCH  10  17
BRANCH  15  18
ATOM     18  O   UNL     1      -4.650  11.872  18.926  0.00  0.00    +0.000 OA
ATOM     19  C   UNL     1      -4.826  11.747  17.525  0.00  0.00    +0.000 C 
ENDBRANCH  15  18
ENDBRANCH   1  13
BRANCH   7  20
ATOM     20  C   UNL     1       2.794   5.405  18.331  0.00  0.00    +0.000 A 
ATOM     21  C   UNL     1       1.805   4.571  17.782  0.00  0.00    +0.000 A 
ATOM     22  C   UNL     1       1.930   3.188  17.844  0.00  0.00    +0.000 A 
ATOM     23  C   UNL     1       3.041   2.630  18.465  0.00  0.00    +0.000 A 
ATOM     24  C   UNL     1       4.044   3.436  19.029  0.00  0.00    +0.000 A 
ATOM     25  C   UNL     1       3.928   4.842  18.969  0.00  0.00    +0.000 A 
BRANCH  24  26
ATOM     26  O   UNL     1       5.046   2.676  19.579  0.00  0.00    +0.000 OA
ATOM     27  C   UNL     1       4.730   1.721  20.578  0.00  0.00    +0.000 C 
ENDBRANCH  24  26
BRANCH  25  28
ATOM     28  O   UNL     1       4.991   5.565  19.448  0.00  0.00    +0.000 OA
ATOM     29  C   UNL     1       6.161   5.723  18.659  0.00  0.00    +0.000 C 
ENDBRANCH  25  28
ENDBRANCH   7  20
TORSDOF 6
ENDMDL
MODEL 4
REMARK VINA RESULT:      -7.7      5.153      8.773
REMARK  Name = 
REMARK  10 active torsions:
REMARK  status: ('A' for Active; 'I' for Inactive)
REMARK    1  A    between atoms: C_1  and  O_2
REMARK    2  A    between atoms: O_2  and  C_3
REMARK    3  A    between atoms: C_6  and  C_7
REMARK    4  A    between atoms: C_13  and  C_14
REMARK    5  A    between atoms: C_18  and  O_19
REMARK    6  A    between atoms: O_19  and  C_20
REMARK    7  A    between atoms: C_21  and  O_22
REMARK    8  A    between atoms: O_22  and  C_23
REMARK    9  A    between atoms: C_27  and  O_28
REMARK   10  A    between atoms: O_28  and  C_29
REMARK                            x       y       z     vdW  Elec       q    Type
REMARK                         _______ _______ _______ _____ _____    ______ ____
ROOT
ATOM      1  C   UNL     1       7.909   9.077  17.626  0.00  0.00    +0.000 C 
ATOM      2  C   UNL     1       7.686   7.813  18.025  0.00  0.00    +0.000 C 
ATOM      3  C   UNL     1       8.350   7.153  19.199  0.00  0.00    +0.000 C 
ATOM      4  C   UNL     1       8.230   5.636  19.150  0.00  0.00    +0.000 C 
ATOM      5  C   UNL     1       6.767   5.228  19.053  0.00  0.00    +0.000 C 
ATOM      6  C   UNL     1       6.087   5.849  17.870  0.00  0.00    +0.000 C 
ATOM      7  C   UNL     1       4.897   5.462  17.372  0.00  0.00    +0.000 C 
ATOM      8  C   UNL     1       6.698   7.041  17.210  0.00  0.00    +0.000 C 
ATOM      9  O   UNL     1       6.371   7.396  16.081  0.00  0.00    +0.000 OA
ENDROOT
BRANCH   1  13
ATOM     10  C   UNL     1      10.750  11.614  19.548  0.00  0.00    +0.000 A 
ATOM     11  C   UNL     1       9.770  10.931  20.286  0.00  0.00    +0.000 A 
ATOM     12  C   UNL     1       8.829  10.119  19.655  0.00  0.00    +0.000 A 
ATOM     13  C   UNL     1       8.827  10.011  18.271  0.00  0.00    +0.000 A 
ATOM     14  C   UNL     1       9.731  10.768  17.520  0.00  0.00    +0.000 A 
ATOM     15  C   UNL     1      10.699  11.573  18.141  0.00  0.00    +0.000 A 
BRANCH  10  17
ATOM     16  C   UNL     1      11.492  13.713  20.343  0.00  0.00    +0.000 C 
ATOM     17  O   UNL     1      11.742  12.316  20.176  0.00  0.00    +0.000 OA
ENDBRANCH  10  17
BRANCH  15  18
ATOM     18  O   UNL     1      11.503  12.206  17.228  0.00  0.00    +0.000 OA
ATOM     19  C   UNL     1      11.155  13.509  16.788  0.00  0.00    +0.000 C 
ENDBRANCH  15  18
ENDBRANCH   1  13
BRANCH   7  20
ATOM     20  C   UNL     1       4.011   4.493  18.025  0.00  0.00    +0.000 A 
ATOM     21  C   UNL     1       4.013   3.194  17.489  0.00  0.00    +0.000 A 
ATOM     22  C   UNL     1       3.255   2.186  18.071  0.00  0.00    +0.000 A 
ATOM     23  C   UNL     1       2.480   2.474  19.188  0.00  0.00    +0.000 A 
ATOM     24  C   UNL     1       2.451   3.763  19.744  0.00  0.00    +0.000 A 
ATOM     25  C   UNL     1       3.220   4.794  19.162  0.00  0.00    +0.000 A 
BRANCH  24  26
ATOM     26  O   UNL     1       1.629   3.816  20.842  0.00  0.00    +0.000 OA
ATOM     27  C   UNL     1       1.454   2.657  21.641  0.00  0.00    +0.000 C 
ENDBRANCH  24  26
BRANCH  25  28
ATOM     28  O   UNL     1       3.224   6.000  19.816  0.00  0.00    +0.000 OA
ATOM     29  C   UNL     1       2.304   7.016  19.447  0.00  0.00    +0.000 C 
ENDBRANCH  25  28
ENDBRANCH   7  20
TORSDOF 6
ENDMDL
MODEL 5
REMARK VINA RESULT:      -7.7      5.124      8.390
REMARK  Name = 
REMARK  10 active torsions:
REMARK  status: ('A' for Active; 'I' for Inactive)
REMARK    1  A    between atoms: C_1  and  O_2
REMARK    2  A    between atoms: O_2  and  C_3
REMARK    3  A    between atoms: C_6  and  C_7
REMARK    4  A    between atoms: C_13  and  C_14
REMARK    5  A    between atoms: C_18  and  O_19
REMARK    6  A    between atoms: O_19  and  C_20
REMARK    7  A    between atoms: C_21  and  O_22
REMARK    8  A    between atoms: O_22  and  C_23
REMARK    9  A    between atoms: C_27  and  O_28
REMARK   10  A    between atoms: O_28  and  C_29
REMARK                            x       y       z     vdW  Elec       q    Type
REMARK                         _______ _______ _______ _____ _____    ______ ____
ROOT
ATOM      1  C   UNL     1       7.878   9.039  17.663  0.00  0.00    +0.000 C 
ATOM      2  C   UNL     1       7.621   7.761  17.995  0.00  0.00    +0.000 C 
ATOM      3  C   UNL     1       8.290   7.013  19.112  0.00  0.00    +0.000 C 
ATOM      4  C   UNL     1       8.115   5.506  18.981  0.00  0.00    +0.000 C 
ATOM      5  C   UNL     1       6.636   5.154  18.900  0.00  0.00    +0.000 C 
ATOM      6  C   UNL     1       5.950   5.865  17.772  0.00  0.00    +0.000 C 
ATOM      7  C   UNL     1       4.736   5.548  17.285  0.00  0.00    +0.000 C 
ATOM      8  C   UNL     1       6.586   7.072  17.165  0.00  0.00    +0.000 C 
ATOM      9  O   UNL     1       6.244   7.501  16.067  0.00  0.00    +0.000 OA
ENDROOT
BRANCH   1  13
ATOM     10  C   UNL     1      10.555  11.758  19.571  0.00  0.00    +0.000 A 
ATOM     11  C   UNL     1      10.672  11.464  18.202  0.00  0.00    +0.000 A 
ATOM     12  C   UNL     1       9.810  10.560  17.584  0.00  0.00    +0.000 A 
ATOM     13  C   UNL     1       8.845   9.902  18.335  0.00  0.00    +0.000 A 
ATOM     14  C   UNL     1       8.788  10.109  19.716  0.00  0.00    +0.000 A 
ATOM     15  C   UNL     1       9.634  11.032  20.350  0.00  0.00    +0.000 A 
BRANCH  10  17
ATOM     16  C   UNL     1      11.433  13.947  19.409  0.00  0.00    +0.000 C 
ATOM     17  O   UNL     1      11.325  12.730  20.149  0.00  0.00    +0.000 OA
ENDBRANCH  10  17
BRANCH  15  18
ATOM     18  O   UNL     1       9.397  11.105  21.698  0.00  0.00    +0.000 OA
ATOM     19  C   UNL     1       8.488  12.076  22.189  0.00  0.00    +0.000 C 
ENDBRANCH  15  18
ENDBRANCH   1  13
BRANCH   7  20
ATOM     20  C   UNL     1       3.832   4.573  17.905  0.00  0.00    +0.000 A 
ATOM     21  C   UNL     1       3.768   3.311  17.290  0.00  0.00    +0.000 A 
ATOM     22  C   UNL     1       2.988   2.298  17.834  0.00  0.00    +0.000 A 
ATOM     23  C   UNL     1       2.259   2.543  18.991  0.00  0.00    +0.000 A 
ATOM     24  C   UNL     1       2.297   3.796  19.626  0.00  0.00    +0.000 A 
ATOM     25  C   UNL     1       3.088   4.832  19.084  0.00  0.00    +0.000 A 
BRANCH  24  26
ATOM     26  O   UNL     1       1.510   3.810  20.751  0.00  0.00    +0.000 OA
ATOM     27  C   UNL     1       1.600   2.743  21.680  0.00  0.00    +0.000 C 
ENDBRANCH  24  26
BRANCH  25  28
ATOM     28  O   UNL     1       3.158   5.993  19.810  0.00  0.00    +0.000 OA
ATOM     29  C   UNL     1       2.292   7.078  19.508  0.00  0.00    +0.000 C 
ENDBRANCH  25  28
ENDBRANCH   7  20
TORSDOF 6
ENDMDL
MODEL 6
REMARK VINA RESULT:      -7.5      1.753      2.684
REMARK  Name = 
REMARK  10 active torsions:
REMARK  status: ('A' for Active; 'I' for Inactive)
REMARK    1  A    between atoms: C_1  and  O_2
REMARK    2  A    between atoms: O_2  and  C_3
REMARK    3  A    between atoms: C_6  and  C_7
REMARK    4  A    between atoms: C_13  and  C_14
REMARK    5  A    between atoms: C_18  and  O_19
REMARK    6  A    between atoms: O_19  and  C_20
REMARK    7  A    between atoms: C_21  and  O_22
REMARK    8  A    between atoms: O_22  and  C_23
REMARK    9  A    between atoms: C_27  and  O_28
REMARK   10  A    between atoms: O_28  and  C_29
REMARK                            x       y       z     vdW  Elec       q    Type
REMARK                         _______ _______ _______ _____ _____    ______ ____
ROOT
ATOM      1  C   UNL     1      -0.314  11.073  18.589  0.00  0.00    +0.000 C 
ATOM      2  C   UNL     1       0.419  10.073  19.111  0.00  0.00    +0.000 C 
ATOM      3  C   UNL     1       0.067   9.309  20.355  0.00  0.00    +0.000 C 
ATOM      4  C   UNL     1       1.261   8.553  20.922  0.00  0.00    +0.000 C 
ATOM      5  C   UNL     1       1.848   7.629  19.865  0.00  0.00    +0.000 C 
ATOM      6  C   UNL     1       2.237   8.372  18.622  0.00  0.00    +0.000 C 
ATOM      7  C   UNL     1       3.023   7.883  17.645  0.00  0.00    +0.000 C 
ATOM      8  C   UNL     1       1.668   9.729  18.365  0.00  0.00    +0.000 C 
ATOM      9  O   UNL     1       2.170  10.498  17.552  0.00  0.00    +0.000 OA
ENDROOT
BRANCH   1  13
ATOM     10  C   UNL     1      -3.943  12.746  20.084  0.00  0.00    +0.000 A 
ATOM     11  C   UNL     1      -2.718  12.973  20.732  0.00  0.00    +0.000 A 
ATOM     12  C   UNL     1      -1.535  12.410  20.254  0.00  0.00    +0.000 A 
ATOM     13  C   UNL     1      -1.568  11.573  19.146  0.00  0.00    +0.000 A 
ATOM     14  C   UNL     1      -2.795  11.256  18.558  0.00  0.00    +0.000 A 
ATOM     15  C   UNL     1      -3.991  11.833  19.012  0.00  0.00    +0.000 A 
BRANCH  10  17
ATOM     16  C   UNL     1      -5.834  12.731  21.502  0.00  0.00    +0.000 C 
ATOM     17  O   UNL     1      -5.080  13.392  20.484  0.00  0.00    +0.000 OA
ENDBRANCH  10  17
BRANCH  15  18
ATOM     18  O   UNL     1      -5.074  11.414  18.283  0.00  0.00    +0.000 OA
ATOM     19  C   UNL     1      -5.475  12.164  17.149  0.00  0.00    +0.000 C 
ENDBRANCH  15  18
ENDBRANCH   1  13
BRANCH   7  20
ATOM     20  C   UNL     1       3.469   6.488  17.572  0.00  0.00    +0.000 A 
ATOM     21  C   UNL     1       2.534   5.518  17.973  0.00  0.00    +0.000 A 
ATOM     22  C   UNL     1       2.836   4.165  17.885  0.00  0.00    +0.000 A 
ATOM     23  C   UNL     1       4.080   3.773  17.405  0.00  0.00    +0.000 A 
ATOM     24  C   UNL     1       5.038   4.717  17.003  0.00  0.00    +0.000 A 
ATOM     25  C   UNL     1       4.741   6.095  17.085  0.00  0.00    +0.000 A 
BRANCH  24  26
ATOM     26  O   UNL     1       6.185   4.107  16.558  0.00  0.00    +0.000 OA
ATOM     27  C   UNL     1       6.343   3.840  15.175  0.00  0.00    +0.000 C 
ENDBRANCH  24  26
BRANCH  25  28
ATOM     28  O   UNL     1       5.682   6.956  16.580  0.00  0.00    +0.000 OA
ATOM     29  C   UNL     1       6.837   7.278  17.342  0.00  0.00    +0.000 C 
ENDBRANCH  25  28
ENDBRANCH   7  20
TORSDOF 6
ENDMDL
MODEL 7
REMARK VINA RESULT:      -7.4      2.323      3.678
REMARK  Name = 
REMARK  10 active torsions:
REMARK  status: ('A' for Active; 'I' for Inactive)
REMARK    1  A    between atoms: C_1  and  O_2
REMARK    2  A    between atoms: O_2  and  C_3
REMARK    3  A    between atoms: C_6  and  C_7
REMARK    4  A    between atoms: C_13  and  C_14
REMARK    5  A    between atoms: C_18  and  O_19
REMARK    6  A    between atoms: O_19  and  C_20
REMARK    7  A    between atoms: C_21  and  O_22
REMARK    8  A    between atoms: O_22  and  C_23
REMARK    9  A    between atoms: C_27  and  O_28
REMARK   10  A    between atoms: O_28  and  C_29
REMARK                            x       y       z     vdW  Elec       q    Type
REMARK                         _______ _______ _______ _____ _____    ______ ____
ROOT
ATOM      1  C   UNL     1       0.929   8.949  21.346  0.00  0.00    +0.000 C 
ATOM      2  C   UNL     1       1.432   8.540  20.167  0.00  0.00    +0.000 C 
ATOM      3  C   UNL     1       1.567   9.402  18.946  0.00  0.00    +0.000 C 
ATOM      4  C   UNL     1       1.762   8.580  17.680  0.00  0.00    +0.000 C 
ATOM      5  C   UNL     1       2.965   7.660  17.831  0.00  0.00    +0.000 C 
ATOM      6  C   UNL     1       2.841   6.765  19.027  0.00  0.00    +0.000 C 
ATOM      7  C   UNL     1       3.596   5.674  19.257  0.00  0.00    +0.000 C 
ATOM      8  C   UNL     1       1.877   7.113  20.113  0.00  0.00    +0.000 C 
ATOM      9  O   UNL     1       1.510   6.288  20.944  0.00  0.00    +0.000 OA
ENDROOT
BRANCH   1  13
ATOM     10  C   UNL     1      -0.651  12.864  21.961  0.00  0.00    +0.000 A 
ATOM     11  C   UNL     1       0.491  12.658  21.169  0.00  0.00    +0.000 A 
ATOM     12  C   UNL     1       1.018  11.380  20.985  0.00  0.00    +0.000 A 
ATOM     13  C   UNL     1       0.437  10.294  21.627  0.00  0.00    +0.000 A 
ATOM     14  C   UNL     1      -0.634  10.503  22.500  0.00  0.00    +0.000 A 
ATOM     15  C   UNL     1      -1.191  11.779  22.678  0.00  0.00    +0.000 A 
BRANCH  10  17
ATOM     16  C   UNL     1      -0.701  14.960  23.053  0.00  0.00    +0.000 C 
ATOM     17  O   UNL     1      -1.234  14.098  22.045  0.00  0.00    +0.000 OA
ENDBRANCH  10  17
BRANCH  15  18
ATOM     18  O   UNL     1      -2.248  11.761  23.550  0.00  0.00    +0.000 OA
ATOM     19  C   UNL     1      -3.496  12.292  23.135  0.00  0.00    +0.000 C 
ENDBRANCH  15  18
ENDBRANCH   1  13
BRANCH   7  20
ATOM     20  C   UNL     1       4.768   5.305  18.457  0.00  0.00    +0.000 A 
ATOM     21  C   UNL     1       6.011   5.749  18.939  0.00  0.00    +0.000 A 
ATOM     22  C   UNL     1       7.189   5.403  18.288  0.00  0.00    +0.000 A 
ATOM     23  C   UNL     1       7.130   4.617  17.143  0.00  0.00    +0.000 A 
ATOM     24  C   UNL     1       5.903   4.163  16.631  0.00  0.00    +0.000 A 
ATOM     25  C   UNL     1       4.701   4.507  17.287  0.00  0.00    +0.000 A 
BRANCH  24  26
ATOM     26  O   UNL     1       6.083   3.401  15.504  0.00  0.00    +0.000 OA
ATOM     27  C   UNL     1       6.293   4.039  14.255  0.00  0.00    +0.000 C 
ENDBRANCH  24  26
BRANCH  25  28
ATOM     28  O   UNL     1       3.551   3.945  16.793  0.00  0.00    +0.000 OA
ATOM     29  C   UNL     1       3.006   2.783  17.401  0.00  0.00    +0.000 C 
ENDBRANCH  25  28
ENDBRANCH   7  20
TORSDOF 6
ENDMDL
MODEL 8
REMARK VINA RESULT:      -7.2      1.829      9.781
REMARK  Name = 
REMARK  10 active torsions:
REMARK  status: ('A' for Active; 'I' for Inactive)
REMARK    1  A    between atoms: C_1  and  O_2
REMARK    2  A    between atoms: O_2  and  C_3
REMARK    3  A    between atoms: C_6  and  C_7
REMARK    4  A    between atoms: C_13  and  C_14
REMARK    5  A    between atoms: C_18  and  O_19
REMARK    6  A    between atoms: O_19  and  C_20
REMARK    7  A    between atoms: C_21  and  O_22
REMARK    8  A    between atoms: O_22  and  C_23
REMARK    9  A    between atoms: C_27  and  O_28
REMARK   10  A    between atoms: O_28  and  C_29
REMARK                            x       y       z     vdW  Elec       q    Type
REMARK                         _______ _______ _______ _____ _____    ______ ____
ROOT
ATOM      1  C   UNL     1       2.717   6.417  19.492  0.00  0.00    +0.000 C 
ATOM      2  C   UNL     1       2.333   7.652  19.123  0.00  0.00    +0.000 C 
ATOM      3  C   UNL     1       2.668   8.299  17.811  0.00  0.00    +0.000 C 
ATOM      4  C   UNL     1       2.470   9.808  17.846  0.00  0.00    +0.000 C 
ATOM      5  C   UNL     1       1.047  10.141  18.268  0.00  0.00    +0.000 C 
ATOM      6  C   UNL     1       0.695   9.532  19.592  0.00  0.00    +0.000 C 
ATOM      7  C   UNL     1      -0.370   9.875  20.342  0.00  0.00    +0.000 C 
ATOM      8  C   UNL     1       1.512   8.401  20.124  0.00  0.00    +0.000 C 
ATOM      9  O   UNL     1       1.475   8.074  21.306  0.00  0.00    +0.000 OA
ENDROOT
BRANCH   1  13
ATOM     10  C   UNL     1       5.050   3.933  16.924  0.00  0.00    +0.000 A 
ATOM     11  C   UNL     1       3.646   3.880  16.907  0.00  0.00    +0.000 A 
ATOM     12  C   UNL     1       2.885   4.677  17.761  0.00  0.00    +0.000 A 
ATOM     13  C   UNL     1       3.517   5.508  18.676  0.00  0.00    +0.000 A 
ATOM     14  C   UNL     1       4.912   5.491  18.774  0.00  0.00    +0.000 A 
ATOM     15  C   UNL     1       5.693   4.712  17.907  0.00  0.00    +0.000 A 
BRANCH  10  17
ATOM     16  C   UNL     1       6.209   3.987  14.865  0.00  0.00    +0.000 C 
ATOM     17  O   UNL     1       5.791   3.239  16.009  0.00  0.00    +0.000 OA
ENDBRANCH  10  17
BRANCH  15  18
ATOM     18  O   UNL     1       7.034   4.860  18.149  0.00  0.00    +0.000 OA
ATOM     19  C   UNL     1       7.596   6.162  18.146  0.00  0.00    +0.000 C 
ENDBRANCH  15  18
ENDBRANCH   1  13
BRANCH   7  20
ATOM     20  C   UNL     1      -1.439  10.769  19.887  0.00  0.00    +0.000 A 
ATOM     21  C   UNL     1      -2.076  10.411  18.687  0.00  0.00    +0.000 A 
ATOM     22  C   UNL     1      -3.142  11.158  18.200  0.00  0.00    +0.000 A 
ATOM     23  C   UNL     1      -3.570  12.276  18.906  0.00  0.00    +0.000 A 
ATOM     24  C   UNL     1      -2.950  12.664  20.105  0.00  0.00    +0.000 A 
ATOM     25  C   UNL     1      -1.868  11.911  20.610  0.00  0.00    +0.000 A 
BRANCH  24  26
ATOM     26  O   UNL     1      -3.539  13.787  20.632  0.00  0.00    +0.000 OA
ATOM     27  C   UNL     1      -4.952  13.897  20.637  0.00  0.00    +0.000 C 
ENDBRANCH  24  26
BRANCH  25  28
ATOM     28  O   UNL     1      -1.377  12.287  21.834  0.00  0.00    +0.000 OA
ATOM     29  C   UNL     1      -2.007  11.836  23.025  0.00  0.00    +0.000 C 
ENDBRANCH  25  28
ENDBRANCH   7  20
TORSDOF 6
ENDMDL
MODEL 9
REMARK VINA RESULT:      -7.1      5.718      8.126
REMARK  Name = 
REMARK  10 active torsions:
REMARK  status: ('A' for Active; 'I' for Inactive)
REMARK    1  A    between atoms: C_1  and  O_2
REMARK    2  A    between atoms: O_2  and  C_3
REMARK    3  A    between atoms: C_6  and  C_7
REMARK    4  A    between atoms: C_13  and  C_14
REMARK    5  A    between atoms: C_18  and  O_19
REMARK    6  A    between atoms: O_19  and  C_20
REMARK    7  A    between atoms: C_21  and  O_22
REMARK    8  A    between atoms: O_22  and  C_23
REMARK    9  A    between atoms: C_27  and  O_28
REMARK   10  A    between atoms: O_28  and  C_29
REMARK                            x       y       z     vdW  Elec       q    Type
REMARK                         _______ _______ _______ _____ _____    ______ ____
ROOT
ATOM      1  C   UNL     1       7.269   8.863  17.313  0.00  0.00    +0.000 C 
ATOM      2  C   UNL     1       7.160   7.577  17.691  0.00  0.00    +0.000 C 
ATOM      3  C   UNL     1       7.910   6.950  18.831  0.00  0.00    +0.000 C 
ATOM      4  C   UNL     1       7.909   5.430  18.754  0.00  0.00    +0.000 C 
ATOM      5  C   UNL     1       6.481   4.908  18.692  0.00  0.00    +0.000 C 
ATOM      6  C   UNL     1       5.717   5.495  17.543  0.00  0.00    +0.000 C 
ATOM      7  C   UNL     1       4.547   5.024  17.072  0.00  0.00    +0.000 C 
ATOM      8  C   UNL     1       6.211   6.744  16.890  0.00  0.00    +0.000 C 
ATOM      9  O   UNL     1       5.821   7.093  15.780  0.00  0.00    +0.000 OA
ENDROOT
BRANCH   1  13
ATOM     10  C   UNL     1       9.964  11.703  19.009  0.00  0.00    +0.000 A 
ATOM     11  C   UNL     1       9.949  10.367  19.442  0.00  0.00    +0.000 A 
ATOM     12  C   UNL     1       9.054   9.444  18.902  0.00  0.00    +0.000 A 
ATOM     13  C   UNL     1       8.130   9.855  17.950  0.00  0.00    +0.000 A 
ATOM     14  C   UNL     1       8.066  11.203  17.589  0.00  0.00    +0.000 A 
ATOM     15  C   UNL     1       8.974  12.140  18.106  0.00  0.00    +0.000 A 
BRANCH  10  17
ATOM     16  C   UNL     1      10.706  13.096  20.768  0.00  0.00    +0.000 C 
ATOM     17  O   UNL     1      10.917  12.576  19.454  0.00  0.00    +0.000 OA
ENDBRANCH  10  17
BRANCH  15  18
ATOM     18  O   UNL     1       8.759  13.397  17.603  0.00  0.00    +0.000 OA
ATOM     19  C   UNL     1       7.464  13.966  17.696  0.00  0.00    +0.000 C 
ENDBRANCH  15  18
ENDBRANCH   1  13
BRANCH   7  20
ATOM     20  C   UNL     1       3.762   3.975  17.730  0.00  0.00    +0.000 A 
ATOM     21  C   UNL     1       4.157   2.652  17.471  0.00  0.00    +0.000 A 
ATOM     22  C   UNL     1       3.517   1.586  18.092  0.00  0.00    +0.000 A 
ATOM     23  C   UNL     1       2.469   1.837  18.969  0.00  0.00    +0.000 A 
ATOM     24  C   UNL     1       2.046   3.148  19.245  0.00  0.00    +0.000 A 
ATOM     25  C   UNL     1       2.691   4.238  18.621  0.00  0.00    +0.000 A 
BRANCH  24  26
ATOM     26  O   UNL     1       1.006   3.159  20.141  0.00  0.00    +0.000 OA
ATOM     27  C   UNL     1       1.256   2.860  21.504  0.00  0.00    +0.000 C 
ENDBRANCH  24  26
BRANCH  25  28
ATOM     28  O   UNL     1       2.295   5.491  19.014  0.00  0.00    +0.000 OA
ATOM     29  C   UNL     1       2.847   6.082  20.181  0.00  0.00    +0.000 C 
ENDBRANCH  25  28
ENDBRANCH   7  20
TORSDOF 6
ENDMDL
