MODEL 1
REMARK VINA RESULT:      -6.8      0.000      0.000
REMARK  Name = 
REMARK  14 active torsions:
REMARK  status: ('A' for Active; 'I' for Inactive)
REMARK    1  A    between atoms: C_1  and  C_2
REMARK    2  A    between atoms: C_2  and  O_3
REMARK    3  A    between atoms: O_3  and  C_4
REMARK    4  A    between atoms: C_9  and  O_10
REMARK    5  A    between atoms: O_10  and  C_11
REMARK    6  A    between atoms: C_11  and  C_12
REMARK    7  A    between atoms: C_12  and  C_13
REMARK    8  A    between atoms: C_13  and  O_14
REMARK    9  A    between atoms: O_14  and  C_15
REMARK   10  A    between atoms: C_20  and  C_21
REMARK   11  A    between atoms: C_21  and  C_22
REMARK   12  A    between atoms: C_22  and  C_23
REMARK   13  A    between atoms: C_22  and  C_24
REMARK   14  A    between atoms: C_25  and  O_26
REMARK                            x       y       z     vdW  Elec       q    Type
REMARK                         _______ _______ _______ _____ _____    ______ ____
ROOT
ATOM      1  C   UNL     1       2.693   7.032  18.558  0.00  0.00    +0.000 A 
ATOM      2  C   UNL     1       2.302   8.376  18.195  0.00  0.00    +0.000 A 
ATOM      3  C   UNL     1       1.543   9.198  19.074  0.00  0.00    +0.000 A 
ATOM      4  C   UNL     1       1.246   8.582  20.349  0.00  0.00    +0.000 A 
ATOM      5  C   UNL     1       1.599   7.272  20.688  0.00  0.00    +0.000 A 
ATOM      6  C   UNL     1       2.293   6.479  19.800  0.00  0.00    +0.000 A 
ATOM      7  C   UNL     1       0.364   9.240  21.379  0.00  0.00    +0.000 C 
ATOM      8  C   UNL     1       0.215  10.671  20.979  0.00  0.00    +0.000 C 
ATOM      9  N   UNL     1      -0.360  10.530  19.647  0.00  0.00    +0.000 NA
ATOM     10  C   UNL     1      -1.583  11.167  19.299  0.00  0.00    +0.000 C 
ATOM     11  C   UNL     1      -1.562  12.656  19.424  0.00  0.00    +0.000 C 
ATOM     12  C   UNL     1      -0.259  13.091  18.644  0.00  0.00    +0.000 C 
ATOM     13  C   UNL     1       1.032  12.082  18.599  0.00  0.00    +0.000 C 
ATOM     14  C   UNL     1       0.691  10.514  18.649  0.00  0.00    +0.000 C 
ENDROOT
BRANCH  12  15
ATOM     15  O   UNL     1       0.108  14.407  19.026  0.00  0.00    +0.000 OA
ATOM     16  H   UNL     1      -0.004  15.011  18.241  0.00  0.00    +0.000 HD
ENDBRANCH  12  15
BRANCH   1  17
ATOM     17  O   UNL     1       3.381   6.149  17.760  0.00  0.00    +0.000 OA
BRANCH  17  19
ATOM     18  C   UNL     1       5.094   6.003  16.114  0.00  0.00    +0.000 C 
ATOM     19  C   UNL     1       4.769   6.360  17.558  0.00  0.00    +0.000 C 
ENDBRANCH  17  19
ENDBRANCH   1  17
BRANCH   6  20
ATOM     20  O   UNL     1       2.409   5.206  20.260  0.00  0.00    +0.000 OA
BRANCH  20  21
ATOM     21  C   UNL     1       1.259   4.441  20.551  0.00  0.00    +0.000 C 
BRANCH  21  22
ATOM     22  C   UNL     1       1.528   2.959  20.233  0.00  0.00    +0.000 C 
BRANCH  22  23
ATOM     23  C   UNL     1       0.796   2.592  18.950  0.00  0.00    +0.000 C 
BRANCH  23  24
ATOM     24  O   UNL     1       1.334   3.279  17.823  0.00  0.00    +0.000 OA
ATOM     25  C   UNL     1       2.603   2.729  17.473  0.00  0.00    +0.000 C 
ENDBRANCH  23  24
ENDBRANCH  22  23
ENDBRANCH  21  22
ENDBRANCH  20  21
ENDBRANCH   6  20
BRANCH  11  26
ATOM     26  C   UNL     1      -1.860  13.162  20.887  0.00  0.00    +0.000 C 
BRANCH  26  27
ATOM     27  C   UNL     1      -2.958  12.450  21.815  0.00  0.00    +0.000 C 
ATOM     28  C   UNL     1      -2.406  12.014  23.180  0.00  0.00    +0.000 C 
ATOM     29  C   UNL     1      -4.349  13.088  22.065  0.00  0.00    +0.000 C 
ENDBRANCH  26  27
ENDBRANCH  11  26
TORSDOF 10
ENDMDL
MODEL 2
REMARK VINA RESULT:      -6.7      2.641      8.697
REMARK  Name = 
REMARK  14 active torsions:
REMARK  status: ('A' for Active; 'I' for Inactive)
REMARK    1  A    between atoms: C_1  and  C_2
REMARK    2  A    between atoms: C_2  and  O_3
REMARK    3  A    between atoms: O_3  and  C_4
REMARK    4  A    between atoms: C_9  and  O_10
REMARK    5  A    between atoms: O_10  and  C_11
REMARK    6  A    between atoms: C_11  and  C_12
REMARK    7  A    between atoms: C_12  and  C_13
REMARK    8  A    between atoms: C_13  and  O_14
REMARK    9  A    between atoms: O_14  and  C_15
REMARK   10  A    between atoms: C_20  and  C_21
REMARK   11  A    between atoms: C_21  and  C_22
REMARK   12  A    between atoms: C_22  and  C_23
REMARK   13  A    between atoms: C_22  and  C_24
REMARK   14  A    between atoms: C_25  and  O_26
REMARK                            x       y       z     vdW  Elec       q    Type
REMARK                         _______ _______ _______ _____ _____    ______ ____
ROOT
ATOM      1  C   UNL     1       0.344   8.593  20.896  0.00  0.00    +0.000 A 
ATOM      2  C   UNL     1       0.991   7.300  20.917  0.00  0.00    +0.000 A 
ATOM      3  C   UNL     1       1.976   6.940  19.957  0.00  0.00    +0.000 A 
ATOM      4  C   UNL     1       2.285   7.987  19.007  0.00  0.00    +0.000 A 
ATOM      5  C   UNL     1       1.638   9.226  18.969  0.00  0.00    +0.000 A 
ATOM      6  C   UNL     1       0.652   9.533  19.882  0.00  0.00    +0.000 A 
ATOM      7  C   UNL     1       3.221   7.774  17.844  0.00  0.00    +0.000 C 
ATOM      8  C   UNL     1       3.965   6.506  18.106  0.00  0.00    +0.000 C 
ATOM      9  N   UNL     1       2.864   5.556  18.218  0.00  0.00    +0.000 NA
ATOM     10  C   UNL     1       2.812   4.387  17.410  0.00  0.00    +0.000 C 
ATOM     11  C   UNL     1       3.977   3.467  17.578  0.00  0.00    +0.000 C 
ATOM     12  C   UNL     1       4.095   3.274  19.142  0.00  0.00    +0.000 C 
ATOM     13  C   UNL     1       3.639   4.489  20.143  0.00  0.00    +0.000 C 
ATOM     14  C   UNL     1       2.454   5.428  19.603  0.00  0.00    +0.000 C 
ENDROOT
BRANCH  12  15
ATOM     15  O   UNL     1       5.383   2.774  19.465  0.00  0.00    +0.000 OA
ATOM     16  H   UNL     1       6.058   3.482  19.277  0.00  0.00    +0.000 HD
ENDBRANCH  12  15
BRANCH   1  17
ATOM     17  O   UNL     1      -0.650   9.011  21.748  0.00  0.00    +0.000 OA
BRANCH  17  19
ATOM     18  C   UNL     1      -1.139  10.994  22.971  0.00  0.00    +0.000 C 
ATOM     19  C   UNL     1      -0.284   9.735  22.912  0.00  0.00    +0.000 C 
ENDBRANCH  17  19
ENDBRANCH   1  17
BRANCH   6  20
ATOM     20  O   UNL     1       0.055  10.716  19.585  0.00  0.00    +0.000 OA
BRANCH  20  21
ATOM     21  C   UNL     1      -1.292  10.755  19.166  0.00  0.00    +0.000 C 
BRANCH  21  22
ATOM     22  C   UNL     1      -1.399  10.249  17.716  0.00  0.00    +0.000 C 
BRANCH  22  23
ATOM     23  C   UNL     1      -2.539  10.981  17.024  0.00  0.00    +0.000 C 
BRANCH  23  24
ATOM     24  O   UNL     1      -3.809  10.547  17.502  0.00  0.00    +0.000 OA
ATOM     25  C   UNL     1      -4.693  11.660  17.632  0.00  0.00    +0.000 C 
ENDBRANCH  23  24
ENDBRANCH  22  23
ENDBRANCH  21  22
ENDBRANCH  20  21
ENDBRANCH   6  20
BRANCH  11  26
ATOM     26  C   UNL     1       5.220   3.869  16.697  0.00  0.00    +0.000 C 
BRANCH  26  27
ATOM     27  C   UNL     1       5.044   4.502  15.233  0.00  0.00    +0.000 C 
ATOM     28  C   UNL     1       5.357   6.004  15.182  0.00  0.00    +0.000 C 
ATOM     29  C   UNL     1       5.694   3.855  13.983  0.00  0.00    +0.000 C 
ENDBRANCH  26  27
ENDBRANCH  11  26
TORSDOF 10
ENDMDL
MODEL 3
REMARK VINA RESULT:      -6.5      0.981      1.094
REMARK  Name = 
REMARK  14 active torsions:
REMARK  status: ('A' for Active; 'I' for Inactive)
REMARK    1  A    between atoms: C_1  and  C_2
REMARK    2  A    between atoms: C_2  and  O_3
REMARK    3  A    between atoms: O_3  and  C_4
REMARK    4  A    between atoms: C_9  and  O_10
REMARK    5  A    between atoms: O_10  and  C_11
REMARK    6  A    between atoms: C_11  and  C_12
REMARK    7  A    between atoms: C_12  and  C_13
REMARK    8  A    between atoms: C_13  and  O_14
REMARK    9  A    between atoms: O_14  and  C_15
REMARK   10  A    between atoms: C_20  and  C_21
REMARK   11  A    between atoms: C_21  and  C_22
REMARK   12  A    between atoms: C_22  and  C_23
REMARK   13  A    between atoms: C_22  and  C_24
REMARK   14  A    between atoms: C_25  and  O_26
REMARK                            x       y       z     vdW  Elec       q    Type
REMARK                         _______ _______ _______ _____ _____    ______ ____
ROOT
ATOM      1  C   UNL     1       3.010   6.306  18.532  0.00  0.00    +0.000 A 
ATOM      2  C   UNL     1       2.655   7.660  18.169  0.00  0.00    +0.000 A 
ATOM      3  C   UNL     1       1.931   8.507  19.053  0.00  0.00    +0.000 A 
ATOM      4  C   UNL     1       1.627   7.903  20.332  0.00  0.00    +0.000 A 
ATOM      5  C   UNL     1       1.944   6.584  20.671  0.00  0.00    +0.000 A 
ATOM      6  C   UNL     1       2.605   5.768  19.779  0.00  0.00    +0.000 A 
ATOM      7  C   UNL     1       0.776   8.590  21.369  0.00  0.00    +0.000 C 
ATOM      8  C   UNL     1       0.667  10.024  20.967  0.00  0.00    +0.000 C 
ATOM      9  N   UNL     1       0.074   9.896  19.641  0.00  0.00    +0.000 NA
ATOM     10  C   UNL     1      -1.133  10.569  19.303  0.00  0.00    +0.000 C 
ATOM     11  C   UNL     1      -1.066  12.057  19.424  0.00  0.00    +0.000 C 
ATOM     12  C   UNL     1       0.242  12.451  18.630  0.00  0.00    +0.000 C 
ATOM     13  C   UNL     1       1.502  11.403  18.575  0.00  0.00    +0.000 C 
ATOM     14  C   UNL     1       1.114   9.846  18.632  0.00  0.00    +0.000 C 
ENDROOT
BRANCH  12  15
ATOM     15  O   UNL     1       0.652  13.757  19.004  0.00  0.00    +0.000 OA
ATOM     16  H   UNL     1      -0.146  14.264  19.319  0.00  0.00    +0.000 HD
ENDBRANCH  12  15
BRANCH   1  17
ATOM     17  O   UNL     1       3.663   5.401  17.729  0.00  0.00    +0.000 OA
BRANCH  17  19
ATOM     18  C   UNL     1       5.155   4.704  16.010  0.00  0.00    +0.000 C 
ATOM     19  C   UNL     1       4.661   5.880  16.842  0.00  0.00    +0.000 C 
ENDBRANCH  17  19
ENDBRANCH   1  17
BRANCH   6  20
ATOM     20  O   UNL     1       2.687   4.493  20.242  0.00  0.00    +0.000 OA
BRANCH  20  21
ATOM     21  C   UNL     1       1.540   3.832  20.729  0.00  0.00    +0.000 C 
BRANCH  21  22
ATOM     22  C   UNL     1       0.725   3.272  19.550  0.00  0.00    +0.000 C 
BRANCH  22  23
ATOM     23  C   UNL     1       1.419   2.024  19.023  0.00  0.00    +0.000 C 
BRANCH  23  24
ATOM     24  O   UNL     1       2.172   2.299  17.845  0.00  0.00    +0.000 OA
ATOM     25  C   UNL     1       3.521   1.862  18.009  0.00  0.00    +0.000 C 
ENDBRANCH  23  24
ENDBRANCH  22  23
ENDBRANCH  21  22
ENDBRANCH  20  21
ENDBRANCH   6  20
BRANCH  11  26
ATOM     26  C   UNL     1      -1.334  12.575  20.888  0.00  0.00    +0.000 C 
BRANCH  26  27
ATOM     27  C   UNL     1      -2.564  13.549  21.222  0.00  0.00    +0.000 C 
ATOM     28  C   UNL     1      -3.924  12.837  21.200  0.00  0.00    +0.000 C 
ATOM     29  C   UNL     1      -2.553  14.476  22.466  0.00  0.00    +0.000 C 
ENDBRANCH  26  27
ENDBRANCH  11  26
TORSDOF 10
ENDMDL
MODEL 4
REMARK VINA RESULT:      -6.5      1.927      4.280
REMARK  Name = 
REMARK  14 active torsions:
REMARK  status: ('A' for Active; 'I' for Inactive)
REMARK    1  A    between atoms: C_1  and  C_2
REMARK    2  A    between atoms: C_2  and  O_3
REMARK    3  A    between atoms: O_3  and  C_4
REMARK    4  A    between atoms: C_9  and  O_10
REMARK    5  A    between atoms: O_10  and  C_11
REMARK    6  A    between atoms: C_11  and  C_12
REMARK    7  A    between atoms: C_12  and  C_13
REMARK    8  A    between atoms: C_13  and  O_14
REMARK    9  A    between atoms: O_14  and  C_15
REMARK   10  A    between atoms: C_20  and  C_21
REMARK   11  A    between atoms: C_21  and  C_22
REMARK   12  A    between atoms: C_22  and  C_23
REMARK   13  A    between atoms: C_22  and  C_24
REMARK   14  A    between atoms: C_25  and  O_26
REMARK                            x       y       z     vdW  Elec       q    Type
REMARK                         _______ _______ _______ _____ _____    ______ ____
ROOT
ATOM      1  C   UNL     1       2.366   6.538  19.888  0.00  0.00    +0.000 A 
ATOM      2  C   UNL     1       1.649   7.508  20.685  0.00  0.00    +0.000 A 
ATOM      3  C   UNL     1       1.232   8.758  20.148  0.00  0.00    +0.000 A 
ATOM      4  C   UNL     1       1.558   8.937  18.750  0.00  0.00    +0.000 A 
ATOM      5  C   UNL     1       2.277   8.012  17.988  0.00  0.00    +0.000 A 
ATOM      6  C   UNL     1       2.711   6.828  18.544  0.00  0.00    +0.000 A 
ATOM      7  C   UNL     1       1.301  10.231  18.020  0.00  0.00    +0.000 C 
ATOM      8  C   UNL     1       0.384  11.043  18.874  0.00  0.00    +0.000 C 
ATOM      9  N   UNL     1       1.167  11.149  20.100  0.00  0.00    +0.000 NA
ATOM     10  C   UNL     1       1.476  12.414  20.672  0.00  0.00    +0.000 C 
ATOM     11  C   UNL     1       0.282  13.231  21.045  0.00  0.00    +0.000 C 
ATOM     12  C   UNL     1      -0.615  12.242  21.890  0.00  0.00    +0.000 C 
ATOM     13  C   UNL     1      -0.576  10.636  21.564  0.00  0.00    +0.000 C 
ATOM     14  C   UNL     1       0.821  10.073  21.008  0.00  0.00    +0.000 C 
ENDROOT
BRANCH  12  15
ATOM     15  O   UNL     1      -1.942  12.740  21.955  0.00  0.00    +0.000 OA
ATOM     16  H   UNL     1      -1.935  13.704  21.703  0.00  0.00    +0.000 HD
ENDBRANCH  12  15
BRANCH   1  17
ATOM     17  O   UNL     1       2.850   5.330  20.330  0.00  0.00    +0.000 OA
BRANCH  17  19
ATOM     18  C   UNL     1       0.960   3.893  20.147  0.00  0.00    +0.000 C 
ATOM     19  C   UNL     1       1.992   4.495  21.092  0.00  0.00    +0.000 C 
ENDBRANCH  17  19
ENDBRANCH   1  17
BRANCH   6  20
ATOM     20  O   UNL     1       3.510   6.142  17.686  0.00  0.00    +0.000 OA
BRANCH  20  21
ATOM     21  C   UNL     1       4.539   6.801  16.982  0.00  0.00    +0.000 C 
BRANCH  21  22
ATOM     22  C   UNL     1       5.217   5.816  16.012  0.00  0.00    +0.000 C 
BRANCH  22  23
ATOM     23  C   UNL     1       6.679   5.667  16.408  0.00  0.00    +0.000 C 
BRANCH  23  24
ATOM     24  O   UNL     1       7.518   5.507  15.267  0.00  0.00    +0.000 OA
ATOM     25  C   UNL     1       6.845   4.749  14.263  0.00  0.00    +0.000 C 
ENDBRANCH  23  24
ENDBRANCH  22  23
ENDBRANCH  21  22
ENDBRANCH  20  21
ENDBRANCH   6  20
BRANCH  11  26
ATOM     26  C   UNL     1      -0.307  14.060  19.841  0.00  0.00    +0.000 C 
BRANCH  26  27
ATOM     27  C   UNL     1       0.503  15.281  19.186  0.00  0.00    +0.000 C 
ATOM     28  C   UNL     1      -0.409  16.339  18.548  0.00  0.00    +0.000 C 
ATOM     29  C   UNL     1       1.607  16.038  19.968  0.00  0.00    +0.000 C 
ENDBRANCH  26  27
ENDBRANCH  11  26
TORSDOF 10
ENDMDL
MODEL 5
REMARK VINA RESULT:      -6.5      1.193      1.753
REMARK  Name = 
REMARK  14 active torsions:
REMARK  status: ('A' for Active; 'I' for Inactive)
REMARK    1  A    between atoms: C_1  and  C_2
REMARK    2  A    between atoms: C_2  and  O_3
REMARK    3  A    between atoms: O_3  and  C_4
REMARK    4  A    between atoms: C_9  and  O_10
REMARK    5  A    between atoms: O_10  and  C_11
REMARK    6  A    between atoms: C_11  and  C_12
REMARK    7  A    between atoms: C_12  and  C_13
REMARK    8  A    between atoms: C_13  and  O_14
REMARK    9  A    between atoms: O_14  and  C_15
REMARK   10  A    between atoms: C_20  and  C_21
REMARK   11  A    between atoms: C_21  and  C_22
REMARK   12  A    between atoms: C_22  and  C_23
REMARK   13  A    between atoms: C_22  and  C_24
REMARK   14  A    between atoms: C_25  and  O_26
REMARK                            x       y       z     vdW  Elec       q    Type
REMARK                         _______ _______ _______ _____ _____    ______ ____
ROOT
ATOM      1  C   UNL     1       3.545   6.445  17.808  0.00  0.00    +0.000 A 
ATOM      2  C   UNL     1       3.061   7.799  17.651  0.00  0.00    +0.000 A 
ATOM      3  C   UNL     1       2.275   8.434  18.651  0.00  0.00    +0.000 A 
ATOM      4  C   UNL     1       2.047   7.621  19.827  0.00  0.00    +0.000 A 
ATOM      5  C   UNL     1       2.490   6.303  19.966  0.00  0.00    +0.000 A 
ATOM      6  C   UNL     1       3.211   5.693  18.961  0.00  0.00    +0.000 A 
ATOM      7  C   UNL     1       1.151   8.064  20.955  0.00  0.00    +0.000 C 
ATOM      8  C   UNL     1       0.904   9.526  20.771  0.00  0.00    +0.000 C 
ATOM      9  N   UNL     1       0.307   9.541  19.441  0.00  0.00    +0.000 NA
ATOM     10  C   UNL     1      -0.963  10.141  19.208  0.00  0.00    +0.000 C 
ATOM     11  C   UNL     1      -1.032  11.593  19.549  0.00  0.00    +0.000 C 
ATOM     12  C   UNL     1       0.223  12.222  18.822  0.00  0.00    +0.000 C 
ATOM     13  C   UNL     1       1.573  11.316  18.610  0.00  0.00    +0.000 C 
ATOM     14  C   UNL     1       1.332   9.738  18.436  0.00  0.00    +0.000 C 
ENDROOT
BRANCH  12  15
ATOM     15  O   UNL     1       0.515  13.490  19.386  0.00  0.00    +0.000 OA
ATOM     16  H   UNL     1       1.451  13.479  19.729  0.00  0.00    +0.000 HD
ENDBRANCH  12  15
BRANCH   1  17
ATOM     17  O   UNL     1       4.267   5.734  16.879  0.00  0.00    +0.000 OA
BRANCH  17  19
ATOM     18  C   UNL     1       5.792   5.436  15.076  0.00  0.00    +0.000 C 
ATOM     19  C   UNL     1       5.138   6.443  16.011  0.00  0.00    +0.000 C 
ENDBRANCH  17  19
ENDBRANCH   1  17
BRANCH   6  20
ATOM     20  O   UNL     1       3.417   4.377  19.229  0.00  0.00    +0.000 OA
BRANCH  20  21
ATOM     21  C   UNL     1       2.895   3.381  18.377  0.00  0.00    +0.000 C 
BRANCH  21  22
ATOM     22  C   UNL     1       2.216   2.284  19.217  0.00  0.00    +0.000 C 
BRANCH  22  23
ATOM     23  C   UNL     1       0.829   2.764  19.620  0.00  0.00    +0.000 C 
BRANCH  23  24
ATOM     24  O   UNL     1       0.826   3.318  20.933  0.00  0.00    +0.000 OA
ATOM     25  C   UNL     1       1.712   2.585  21.779  0.00  0.00    +0.000 C 
ENDBRANCH  23  24
ENDBRANCH  22  23
ENDBRANCH  21  22
ENDBRANCH  20  21
ENDBRANCH   6  20
BRANCH  11  26
ATOM     26  C   UNL     1      -1.324  11.862  21.074  0.00  0.00    +0.000 C 
BRANCH  26  27
ATOM     27  C   UNL     1      -2.565  12.764  21.546  0.00  0.00    +0.000 C 
ATOM     28  C   UNL     1      -3.700  12.820  20.513  0.00  0.00    +0.000 C 
ATOM     29  C   UNL     1      -3.221  12.581  22.939  0.00  0.00    +0.000 C 
ENDBRANCH  26  27
ENDBRANCH  11  26
TORSDOF 10
ENDMDL
MODEL 6
REMARK VINA RESULT:      -6.4      2.700      9.042
REMARK  Name = 
REMARK  14 active torsions:
REMARK  status: ('A' for Active; 'I' for Inactive)
REMARK    1  A    between atoms: C_1  and  C_2
REMARK    2  A    between atoms: C_2  and  O_3
REMARK    3  A    between atoms: O_3  and  C_4
REMARK    4  A    between atoms: C_9  and  O_10
REMARK    5  A    between atoms: O_10  and  C_11
REMARK    6  A    between atoms: C_11  and  C_12
REMARK    7  A    between atoms: C_12  and  C_13
REMARK    8  A    between atoms: C_13  and  O_14
REMARK    9  A    between atoms: O_14  and  C_15
REMARK   10  A    between atoms: C_20  and  C_21
REMARK   11  A    between atoms: C_21  and  C_22
REMARK   12  A    between atoms: C_22  and  C_23
REMARK   13  A    between atoms: C_22  and  C_24
REMARK   14  A    between atoms: C_25  and  O_26
REMARK                            x       y       z     vdW  Elec       q    Type
REMARK                         _______ _______ _______ _____ _____    ______ ____
ROOT
ATOM      1  C   UNL     1       0.559   8.425  20.962  0.00  0.00    +0.000 A 
ATOM      2  C   UNL     1       1.537   7.366  20.851  0.00  0.00    +0.000 A 
ATOM      3  C   UNL     1       2.385   7.246  19.716  0.00  0.00    +0.000 A 
ATOM      4  C   UNL     1       2.200   8.287  18.728  0.00  0.00    +0.000 A 
ATOM      5  C   UNL     1       1.234   9.293  18.822  0.00  0.00    +0.000 A 
ATOM      6  C   UNL     1       0.392   9.360  19.911  0.00  0.00    +0.000 A 
ATOM      7  C   UNL     1       2.922   8.283  17.405  0.00  0.00    +0.000 C 
ATOM      8  C   UNL     1       4.030   7.287  17.511  0.00  0.00    +0.000 C 
ATOM      9  N   UNL     1       3.284   6.076  17.833  0.00  0.00    +0.000 NA
ATOM     10  C   UNL     1       3.414   4.898  17.045  0.00  0.00    +0.000 C 
ATOM     11  C   UNL     1       4.802   4.349  16.979  0.00  0.00    +0.000 C 
ATOM     12  C   UNL     1       5.262   4.278  18.489  0.00  0.00    +0.000 C 
ATOM     13  C   UNL     1       4.678   5.368  19.565  0.00  0.00    +0.000 C 
ATOM     14  C   UNL     1       3.196   5.911  19.270  0.00  0.00    +0.000 C 
ENDROOT
BRANCH  12  15
ATOM     15  O   UNL     1       6.676   4.173  18.553  0.00  0.00    +0.000 OA
ATOM     16  H   UNL     1       6.998   4.670  19.354  0.00  0.00    +0.000 HD
ENDBRANCH  12  15
BRANCH   1  17
ATOM     17  O   UNL     1      -0.334   8.593  21.993  0.00  0.00    +0.000 OA
BRANCH  17  19
ATOM     18  C   UNL     1      -1.067  10.512  23.197  0.00  0.00    +0.000 C 
ATOM     19  C   UNL     1       0.021   9.456  23.063  0.00  0.00    +0.000 C 
ENDBRANCH  17  19
ENDBRANCH   1  17
BRANCH   6  20
ATOM     20  O   UNL     1      -0.561  10.314  19.740  0.00  0.00    +0.000 OA
BRANCH  20  21
ATOM     21  C   UNL     1      -0.246  11.679  19.903  0.00  0.00    +0.000 C 
BRANCH  21  22
ATOM     22  C   UNL     1      -0.701  12.467  18.662  0.00  0.00    +0.000 C 
BRANCH  22  23
ATOM     23  C   UNL     1       0.107  13.754  18.575  0.00  0.00    +0.000 C 
BRANCH  23  24
ATOM     24  O   UNL     1       1.476  13.538  18.906  0.00  0.00    +0.000 OA
ATOM     25  C   UNL     1       2.281  14.596  18.386  0.00  0.00    +0.000 C 
ENDBRANCH  23  24
ENDBRANCH  22  23
ENDBRANCH  21  22
ENDBRANCH  20  21
ENDBRANCH   6  20
BRANCH  11  26
ATOM     26  C   UNL     1       5.692   5.035  15.874  0.00  0.00    +0.000 C 
BRANCH  26  27
ATOM     27  C   UNL     1       6.230   4.218  14.602  0.00  0.00    +0.000 C 
ATOM     28  C   UNL     1       5.108   3.742  13.669  0.00  0.00    +0.000 C 
ATOM     29  C   UNL     1       7.369   4.768  13.705  0.00  0.00    +0.000 C 
ENDBRANCH  26  27
ENDBRANCH  11  26
TORSDOF 10
ENDMDL
MODEL 7
REMARK VINA RESULT:      -6.4      2.488      8.431
REMARK  Name = 
REMARK  14 active torsions:
REMARK  status: ('A' for Active; 'I' for Inactive)
REMARK    1  A    between atoms: C_1  and  C_2
REMARK    2  A    between atoms: C_2  and  O_3
REMARK    3  A    between atoms: O_3  and  C_4
REMARK    4  A    between atoms: C_9  and  O_10
REMARK    5  A    between atoms: O_10  and  C_11
REMARK    6  A    between atoms: C_11  and  C_12
REMARK    7  A    between atoms: C_12  and  C_13
REMARK    8  A    between atoms: C_13  and  O_14
REMARK    9  A    between atoms: O_14  and  C_15
REMARK   10  A    between atoms: C_20  and  C_21
REMARK   11  A    between atoms: C_21  and  C_22
REMARK   12  A    between atoms: C_22  and  C_23
REMARK   13  A    between atoms: C_22  and  C_24
REMARK   14  A    between atoms: C_25  and  O_26
REMARK                            x       y       z     vdW  Elec       q    Type
REMARK                         _______ _______ _______ _____ _____    ______ ____
ROOT
ATOM      1  C   UNL     1       1.001   9.508  21.365  0.00  0.00    +0.000 A 
ATOM      2  C   UNL     1       1.695   8.241  21.319  0.00  0.00    +0.000 A 
ATOM      3  C   UNL     1       2.171   7.691  20.096  0.00  0.00    +0.000 A 
ATOM      4  C   UNL     1       1.929   8.527  18.940  0.00  0.00    +0.000 A 
ATOM      5  C   UNL     1       1.233   9.738  18.981  0.00  0.00    +0.000 A 
ATOM      6  C   UNL     1       0.739  10.226  20.172  0.00  0.00    +0.000 A 
ATOM      7  C   UNL     1       2.258   8.083  17.538  0.00  0.00    +0.000 C 
ATOM      8  C   UNL     1       3.144   6.886  17.653  0.00  0.00    +0.000 C 
ATOM      9  N   UNL     1       2.296   5.985  18.424  0.00  0.00    +0.000 NA
ATOM     10  C   UNL     1       1.986   4.679  17.952  0.00  0.00    +0.000 C 
ATOM     11  C   UNL     1       3.175   3.803  17.731  0.00  0.00    +0.000 C 
ATOM     12  C   UNL     1       3.999   3.923  19.074  0.00  0.00    +0.000 C 
ATOM     13  C   UNL     1       3.941   5.315  19.937  0.00  0.00    +0.000 C 
ATOM     14  C   UNL     1       2.564   6.136  19.840  0.00  0.00    +0.000 C 
ENDROOT
BRANCH  12  15
ATOM     15  O   UNL     1       5.332   3.488  18.856  0.00  0.00    +0.000 OA
ATOM     16  H   UNL     1       5.878   3.713  19.659  0.00  0.00    +0.000 HD
ENDBRANCH  12  15
BRANCH   1  17
ATOM     17  O   UNL     1       0.464  10.093  22.487  0.00  0.00    +0.000 OA
BRANCH  17  19
ATOM     18  C   UNL     1      -1.582  11.112  23.152  0.00  0.00    +0.000 C 
ATOM     19  C   UNL     1      -0.883   9.800  22.824  0.00  0.00    +0.000 C 
ENDBRANCH  17  19
ENDBRANCH   1  17
BRANCH   6  20
ATOM     20  O   UNL     1      -0.026  11.332  19.974  0.00  0.00    +0.000 OA
BRANCH  20  21
ATOM     21  C   UNL     1      -0.436  11.697  18.675  0.00  0.00    +0.000 C 
BRANCH  21  22
ATOM     22  C   UNL     1      -1.974  11.697  18.598  0.00  0.00    +0.000 C 
BRANCH  22  23
ATOM     23  C   UNL     1      -2.437  10.356  18.046  0.00  0.00    +0.000 C 
BRANCH  23  24
ATOM     24  O   UNL     1      -1.903  10.110  16.749  0.00  0.00    +0.000 OA
ATOM     25  C   UNL     1      -2.737  10.700  15.752  0.00  0.00    +0.000 C 
ENDBRANCH  23  24
ENDBRANCH  22  23
ENDBRANCH  21  22
ENDBRANCH  20  21
ENDBRANCH   6  20
BRANCH  11  26
ATOM     26  C   UNL     1       3.851   4.014  16.323  0.00  0.00    +0.000 C 
BRANCH  26  27
ATOM     27  C   UNL     1       5.407   4.381  16.185  0.00  0.00    +0.000 C 
ATOM     28  C   UNL     1       6.060   3.785  14.929  0.00  0.00    +0.000 C 
ATOM     29  C   UNL     1       5.914   5.841  16.317  0.00  0.00    +0.000 C 
ENDBRANCH  26  27
ENDBRANCH  11  26
TORSDOF 10
ENDMDL
MODEL 8
REMARK VINA RESULT:      -6.3      1.868      3.766
REMARK  Name = 
REMARK  14 active torsions:
REMARK  status: ('A' for Active; 'I' for Inactive)
REMARK    1  A    between atoms: C_1  and  C_2
REMARK    2  A    between atoms: C_2  and  O_3
REMARK    3  A    between atoms: O_3  and  C_4
REMARK    4  A    between atoms: C_9  and  O_10
REMARK    5  A    between atoms: O_10  and  C_11
REMARK    6  A    between atoms: C_11  and  C_12
REMARK    7  A    between atoms: C_12  and  C_13
REMARK    8  A    between atoms: C_13  and  O_14
REMARK    9  A    between atoms: O_14  and  C_15
REMARK   10  A    between atoms: C_20  and  C_21
REMARK   11  A    between atoms: C_21  and  C_22
REMARK   12  A    between atoms: C_22  and  C_23
REMARK   13  A    between atoms: C_22  and  C_24
REMARK   14  A    between atoms: C_25  and  O_26
REMARK                            x       y       z     vdW  Elec       q    Type
REMARK                         _______ _______ _______ _____ _____    ______ ____
ROOT
ATOM      1  C   UNL     1       2.241   6.626  19.921  0.00  0.00    +0.000 A 
ATOM      2  C   UNL     1       1.563   7.635  20.703  0.00  0.00    +0.000 A 
ATOM      3  C   UNL     1       1.180   8.885  20.142  0.00  0.00    +0.000 A 
ATOM      4  C   UNL     1       1.496   9.022  18.736  0.00  0.00    +0.000 A 
ATOM      5  C   UNL     1       2.178   8.058  17.989  0.00  0.00    +0.000 A 
ATOM      6  C   UNL     1       2.580   6.873  18.569  0.00  0.00    +0.000 A 
ATOM      7  C   UNL     1       1.273  10.306  17.979  0.00  0.00    +0.000 C 
ATOM      8  C   UNL     1       0.390  11.166  18.823  0.00  0.00    +0.000 C 
ATOM      9  N   UNL     1       1.189  11.275  20.038  0.00  0.00    +0.000 NA
ATOM     10  C   UNL     1       1.544  12.543  20.577  0.00  0.00    +0.000 C 
ATOM     11  C   UNL     1       0.380  13.406  20.944  0.00  0.00    +0.000 C 
ATOM     12  C   UNL     1      -0.538  12.465  21.820  0.00  0.00    +0.000 C 
ATOM     13  C   UNL     1      -0.554  10.852  21.531  0.00  0.00    +0.000 C 
ATOM     14  C   UNL     1       0.819  10.232  20.974  0.00  0.00    +0.000 C 
ENDROOT
BRANCH  12  15
ATOM     15  O   UNL     1      -1.849  13.006  21.887  0.00  0.00    +0.000 OA
ATOM     16  H   UNL     1      -2.117  13.308  20.976  0.00  0.00    +0.000 HD
ENDBRANCH  12  15
BRANCH   1  17
ATOM     17  O   UNL     1       2.691   5.413  20.387  0.00  0.00    +0.000 OA
BRANCH  17  19
ATOM     18  C   UNL     1       1.049   3.766  19.881  0.00  0.00    +0.000 C 
ATOM     19  C   UNL     1       1.758   4.531  20.990  0.00  0.00    +0.000 C 
ENDBRANCH  17  19
ENDBRANCH   1  17
BRANCH   6  20
ATOM     20  O   UNL     1       3.348   6.143  17.718  0.00  0.00    +0.000 OA
BRANCH  20  21
ATOM     21  C   UNL     1       4.755   6.169  17.820  0.00  0.00    +0.000 C 
BRANCH  21  22
ATOM     22  C   UNL     1       5.330   4.803  17.404  0.00  0.00    +0.000 C 
BRANCH  22  23
ATOM     23  C   UNL     1       4.553   3.706  18.117  0.00  0.00    +0.000 C 
BRANCH  23  24
ATOM     24  O   UNL     1       5.115   3.410  19.393  0.00  0.00    +0.000 OA
ATOM     25  C   UNL     1       4.474   2.267  19.960  0.00  0.00    +0.000 C 
ENDBRANCH  23  24
ENDBRANCH  22  23
ENDBRANCH  21  22
ENDBRANCH  20  21
ENDBRANCH   6  20
BRANCH  11  26
ATOM     26  C   UNL     1      -0.195  14.225  19.726  0.00  0.00    +0.000 C 
BRANCH  26  27
ATOM     27  C   UNL     1       0.312  15.711  19.398  0.00  0.00    +0.000 C 
ATOM     28  C   UNL     1       1.683  15.745  18.708  0.00  0.00    +0.000 C 
ATOM     29  C   UNL     1      -0.593  16.738  18.669  0.00  0.00    +0.000 C 
ENDBRANCH  26  27
ENDBRANCH  11  26
TORSDOF 10
ENDMDL
MODEL 9
REMARK VINA RESULT:      -6.3      2.497      9.101
REMARK  Name = 
REMARK  14 active torsions:
REMARK  status: ('A' for Active; 'I' for Inactive)
REMARK    1  A    between atoms: C_1  and  C_2
REMARK    2  A    between atoms: C_2  and  O_3
REMARK    3  A    between atoms: O_3  and  C_4
REMARK    4  A    between atoms: C_9  and  O_10
REMARK    5  A    between atoms: O_10  and  C_11
REMARK    6  A    between atoms: C_11  and  C_12
REMARK    7  A    between atoms: C_12  and  C_13
REMARK    8  A    between atoms: C_13  and  O_14
REMARK    9  A    between atoms: O_14  and  C_15
REMARK   10  A    between atoms: C_20  and  C_21
REMARK   11  A    between atoms: C_21  and  C_22
REMARK   12  A    between atoms: C_22  and  C_23
REMARK   13  A    between atoms: C_22  and  C_24
REMARK   14  A    between atoms: C_25  and  O_26
REMARK                            x       y       z     vdW  Elec       q    Type
REMARK                         _______ _______ _______ _____ _____    ______ ____
ROOT
ATOM      1  C   UNL     1       0.419   8.845  20.686  0.00  0.00    +0.000 A 
ATOM      2  C   UNL     1       1.046   7.545  20.769  0.00  0.00    +0.000 A 
ATOM      3  C   UNL     1       2.026   7.124  19.828  0.00  0.00    +0.000 A 
ATOM      4  C   UNL     1       2.351   8.120  18.829  0.00  0.00    +0.000 A 
ATOM      5  C   UNL     1       1.724   9.365  18.732  0.00  0.00    +0.000 A 
ATOM      6  C   UNL     1       0.742   9.731  19.628  0.00  0.00    +0.000 A 
ATOM      7  C   UNL     1       3.284   7.837  17.680  0.00  0.00    +0.000 C 
ATOM      8  C   UNL     1       4.008   6.571  18.003  0.00  0.00    +0.000 C 
ATOM      9  N   UNL     1       2.892   5.645  18.159  0.00  0.00    +0.000 NA
ATOM     10  C   UNL     1       2.822   4.439  17.407  0.00  0.00    +0.000 C 
ATOM     11  C   UNL     1       3.973   3.511  17.621  0.00  0.00    +0.000 C 
ATOM     12  C   UNL     1       4.088   3.392  19.192  0.00  0.00    +0.000 C 
ATOM     13  C   UNL     1       3.650   4.660  20.134  0.00  0.00    +0.000 C 
ATOM     14  C   UNL     1       2.480   5.590  19.548  0.00  0.00    +0.000 C 
ENDROOT
BRANCH  12  15
ATOM     15  O   UNL     1       5.367   2.887  19.540  0.00  0.00    +0.000 OA
ATOM     16  H   UNL     1       5.328   1.892  19.547  0.00  0.00    +0.000 HD
ENDBRANCH  12  15
BRANCH   1  17
ATOM     17  O   UNL     1      -0.569   9.319  21.516  0.00  0.00    +0.000 OA
BRANCH  17  19
ATOM     18  C   UNL     1      -1.137  10.997  23.106  0.00  0.00    +0.000 C 
ATOM     19  C   UNL     1      -0.196   9.845  22.780  0.00  0.00    +0.000 C 
ENDBRANCH  17  19
ENDBRANCH   1  17
BRANCH   6  20
ATOM     20  O   UNL     1       0.163  10.908  19.274  0.00  0.00    +0.000 OA
BRANCH  20  21
ATOM     21  C   UNL     1       0.666  12.131  19.766  0.00  0.00    +0.000 C 
BRANCH  21  22
ATOM     22  C   UNL     1       1.074  13.035  18.589  0.00  0.00    +0.000 C 
BRANCH  22  23
ATOM     23  C   UNL     1       0.767  14.481  18.952  0.00  0.00    +0.000 C 
BRANCH  23  24
ATOM     24  O   UNL     1       1.448  14.880  20.140  0.00  0.00    +0.000 OA
ATOM     25  C   UNL     1       2.540  15.739  19.816  0.00  0.00    +0.000 C 
ENDBRANCH  23  24
ENDBRANCH  22  23
ENDBRANCH  21  22
ENDBRANCH  20  21
ENDBRANCH   6  20
BRANCH  11  26
ATOM     26  C   UNL     1       5.223   3.851  16.723  0.00  0.00    +0.000 C 
BRANCH  26  27
ATOM     27  C   UNL     1       5.057   4.470  15.252  0.00  0.00    +0.000 C 
ATOM     28  C   UNL     1       5.386   5.968  15.186  0.00  0.00    +0.000 C 
ATOM     29  C   UNL     1       5.705   3.803  14.011  0.00  0.00    +0.000 C 
ENDBRANCH  26  27
ENDBRANCH  11  26
TORSDOF 10
ENDMDL
