MODEL 1
REMARK VINA RESULT:      -7.2      0.000      0.000
REMARK  Name = 
REMARK  10 active torsions:
REMARK  status: ('A' for Active; 'I' for Inactive)
REMARK    1  A    between atoms: C_1  and  O_2
REMARK    2  A    between atoms: O_2  and  C_3
REMARK    3  A    between atoms: C_6  and  C_7
REMARK    4  A    between atoms: C_7  and  N_8
REMARK    5  A    between atoms: C_9  and  C_11
REMARK    6  A    between atoms: C_11  and  O_12
REMARK    7  A    between atoms: O_12  and  C_13
REMARK    8  A    between atoms: C_13  and  C_15
REMARK    9  A    between atoms: C_25  and  O_26
REMARK   10  A    between atoms: O_26  and  C_27
REMARK                            x       y       z     vdW  Elec       q    Type
REMARK                         _______ _______ _______ _____ _____    ______ ____
ROOT
ATOM      1  N   UNL     1       2.362   4.138  20.131  0.00  0.00    +0.000 N 
ATOM      2  C   UNL     1       2.382   2.807  20.497  0.00  0.00    +0.000 C 
ATOM      3  O   UNL     1       2.157   2.420  21.643  0.00  0.00    +0.000 OA
ATOM      4  H   UNL     1       2.698   4.405  19.214  0.00  0.00    +0.000 HD
ENDROOT
BRANCH   1   5
ATOM      5  C   UNL     1       2.099   5.195  21.084  0.00  0.00    +0.000 C 
BRANCH   5   9
ATOM      6  C   UNL     1       1.468   9.027  19.160  0.00  0.00    +0.000 A 
ATOM      7  C   UNL     1       2.207   8.012  18.530  0.00  0.00    +0.000 A 
ATOM      8  C   UNL     1       2.398   6.773  19.144  0.00  0.00    +0.000 A 
ATOM      9  C   UNL     1       1.910   6.539  20.430  0.00  0.00    +0.000 A 
ATOM     10  C   UNL     1       1.248   7.584  21.091  0.00  0.00    +0.000 A 
ATOM     11  C   UNL     1       1.029   8.831  20.478  0.00  0.00    +0.000 A 
BRANCH   6  13
ATOM     12  C   UNL     1      -0.165  10.375  18.108  0.00  0.00    +0.000 C 
ATOM     13  O   UNL     1       1.197  10.203  18.509  0.00  0.00    +0.000 OA
ENDBRANCH   6  13
BRANCH  11  14
ATOM     14  O   UNL     1       0.372   9.698  21.311  0.00  0.00    +0.000 OA
ATOM     15  C   UNL     1       0.329   9.435  22.704  0.00  0.00    +0.000 C 
ENDBRANCH  11  14
ENDBRANCH   5   9
ENDBRANCH   1   5
BRANCH   2  16
ATOM     16  C   UNL     1       2.647   1.836  19.339  0.00  0.00    +0.000 C 
BRANCH  16  17
ATOM     17  O   UNL     1       3.746   2.220  18.513  0.00  0.00    +0.000 OA
BRANCH  17  18
ATOM     18  C   UNL     1       3.414   3.138  17.568  0.00  0.00    +0.000 C 
ATOM     19  O   UNL     1       2.433   3.086  16.849  0.00  0.00    +0.000 OA
BRANCH  18  20
ATOM     20  C   UNL     1       4.430   4.227  17.487  0.00  0.00    +0.000 A 
ATOM     21  C   UNL     1       4.328   5.126  16.421  0.00  0.00    +0.000 A 
ATOM     22  C   UNL     1       5.244   6.174  16.273  0.00  0.00    +0.000 A 
ATOM     23  C   UNL     1       6.285   6.328  17.207  0.00  0.00    +0.000 A 
ATOM     24  N   UNL     1       7.256   7.316  17.182  0.00  0.00    +0.000 NA
ATOM     25  C   UNL     1       8.064   7.160  18.205  0.00  0.00    +0.000 A 
ATOM     26  S   UNL     1       7.732   5.844  19.247  0.00  0.00    +0.000 S 
ATOM     27  C   UNL     1       6.377   5.421  18.267  0.00  0.00    +0.000 A 
ATOM     28  C   UNL     1       5.462   4.362  18.429  0.00  0.00    +0.000 A 
ENDBRANCH  18  20
ENDBRANCH  17  18
ENDBRANCH  16  17
ENDBRANCH   2  16
TORSDOF 8
ENDMDL
MODEL 2
REMARK VINA RESULT:      -7.2      5.263      8.078
REMARK  Name = 
REMARK  10 active torsions:
REMARK  status: ('A' for Active; 'I' for Inactive)
REMARK    1  A    between atoms: C_1  and  O_2
REMARK    2  A    between atoms: O_2  and  C_3
REMARK    3  A    between atoms: C_6  and  C_7
REMARK    4  A    between atoms: C_7  and  N_8
REMARK    5  A    between atoms: C_9  and  C_11
REMARK    6  A    between atoms: C_11  and  O_12
REMARK    7  A    between atoms: O_12  and  C_13
REMARK    8  A    between atoms: C_13  and  C_15
REMARK    9  A    between atoms: C_25  and  O_26
REMARK   10  A    between atoms: O_26  and  C_27
REMARK                            x       y       z     vdW  Elec       q    Type
REMARK                         _______ _______ _______ _____ _____    ______ ____
ROOT
ATOM      1  N   UNL     1       8.314   9.422  18.132  0.00  0.00    +0.000 N 
ATOM      2  C   UNL     1       8.006   8.076  18.148  0.00  0.00    +0.000 C 
ATOM      3  O   UNL     1       8.545   7.270  18.905  0.00  0.00    +0.000 OA
ATOM      4  H   UNL     1       7.945  10.005  17.392  0.00  0.00    +0.000 HD
ENDROOT
BRANCH   1   5
ATOM      5  C   UNL     1       9.329   9.990  18.994  0.00  0.00    +0.000 C 
BRANCH   5   9
ATOM      6  C   UNL     1      10.828  13.746  17.436  0.00  0.00    +0.000 A 
ATOM      7  C   UNL     1      11.676  12.639  17.602  0.00  0.00    +0.000 A 
ATOM      8  C   UNL     1      11.190  11.425  18.089  0.00  0.00    +0.000 A 
ATOM      9  C   UNL     1       9.858  11.306  18.486  0.00  0.00    +0.000 A 
ATOM     10  C   UNL     1       9.034  12.437  18.401  0.00  0.00    +0.000 A 
ATOM     11  C   UNL     1       9.503  13.662  17.891  0.00  0.00    +0.000 A 
BRANCH   6  13
ATOM     12  C   UNL     1      12.333  15.563  17.578  0.00  0.00    +0.000 C 
ATOM     13  O   UNL     1      11.288  14.901  16.860  0.00  0.00    +0.000 OA
ENDBRANCH   6  13
BRANCH  11  14
ATOM     14  O   UNL     1       8.530  14.626  17.910  0.00  0.00    +0.000 OA
ATOM     15  C   UNL     1       8.672  15.748  18.765  0.00  0.00    +0.000 C 
ENDBRANCH  11  14
ENDBRANCH   5   9
ENDBRANCH   1   5
BRANCH   2  16
ATOM     16  C   UNL     1       6.881   7.672  17.186  0.00  0.00    +0.000 C 
BRANCH  16  17
ATOM     17  O   UNL     1       6.516   6.294  17.282  0.00  0.00    +0.000 OA
BRANCH  17  18
ATOM     18  C   UNL     1       5.447   5.966  16.511  0.00  0.00    +0.000 C 
ATOM     19  O   UNL     1       5.295   6.283  15.346  0.00  0.00    +0.000 OA
BRANCH  18  20
ATOM     20  C   UNL     1       4.441   5.180  17.283  0.00  0.00    +0.000 A 
ATOM     21  C   UNL     1       4.199   3.865  16.872  0.00  0.00    +0.000 A 
ATOM     22  C   UNL     1       3.267   3.062  17.542  0.00  0.00    +0.000 A 
ATOM     23  C   UNL     1       2.562   3.583  18.644  0.00  0.00    +0.000 A 
ATOM     24  N   UNL     1       1.618   2.902  19.394  0.00  0.00    +0.000 NA
ATOM     25  C   UNL     1       1.166   3.688  20.344  0.00  0.00    +0.000 A 
ATOM     26  S   UNL     1       1.820   5.268  20.402  0.00  0.00    +0.000 S 
ATOM     27  C   UNL     1       2.813   4.899  19.041  0.00  0.00    +0.000 A 
ATOM     28  C   UNL     1       3.748   5.718  18.377  0.00  0.00    +0.000 A 
ENDBRANCH  18  20
ENDBRANCH  17  18
ENDBRANCH  16  17
ENDBRANCH   2  16
TORSDOF 8
ENDMDL
MODEL 3
REMARK VINA RESULT:      -7.2      2.880      6.053
REMARK  Name = 
REMARK  10 active torsions:
REMARK  status: ('A' for Active; 'I' for Inactive)
REMARK    1  A    between atoms: C_1  and  O_2
REMARK    2  A    between atoms: O_2  and  C_3
REMARK    3  A    between atoms: C_6  and  C_7
REMARK    4  A    between atoms: C_7  and  N_8
REMARK    5  A    between atoms: C_9  and  C_11
REMARK    6  A    between atoms: C_11  and  O_12
REMARK    7  A    between atoms: O_12  and  C_13
REMARK    8  A    between atoms: C_13  and  C_15
REMARK    9  A    between atoms: C_25  and  O_26
REMARK   10  A    between atoms: O_26  and  C_27
REMARK                            x       y       z     vdW  Elec       q    Type
REMARK                         _______ _______ _______ _____ _____    ______ ____
ROOT
ATOM      1  N   UNL     1       2.876   2.896  18.135  0.00  0.00    +0.000 N 
ATOM      2  C   UNL     1       2.789   2.520  19.461  0.00  0.00    +0.000 C 
ATOM      3  O   UNL     1       3.692   1.934  20.055  0.00  0.00    +0.000 OA
ATOM      4  H   UNL     1       2.050   3.242  17.663  0.00  0.00    +0.000 HD
ENDROOT
BRANCH   1   5
ATOM      5  C   UNL     1       4.038   2.600  17.325  0.00  0.00    +0.000 C 
BRANCH   5   9
ATOM      6  C   UNL     1       6.747   5.949  16.850  0.00  0.00    +0.000 A 
ATOM      7  C   UNL     1       6.315   5.541  18.122  0.00  0.00    +0.000 A 
ATOM      8  C   UNL     1       5.454   4.453  18.276  0.00  0.00    +0.000 A 
ATOM      9  C   UNL     1       4.952   3.786  17.158  0.00  0.00    +0.000 A 
ATOM     10  C   UNL     1       5.316   4.251  15.886  0.00  0.00    +0.000 A 
ATOM     11  C   UNL     1       6.200   5.332  15.715  0.00  0.00    +0.000 A 
BRANCH   6  13
ATOM     12  C   UNL     1       7.567   8.011  17.667  0.00  0.00    +0.000 C 
ATOM     13  O   UNL     1       7.673   6.951  16.712  0.00  0.00    +0.000 OA
ENDBRANCH   6  13
BRANCH  11  14
ATOM     14  O   UNL     1       6.405   5.615  14.390  0.00  0.00    +0.000 OA
ATOM     15  C   UNL     1       7.112   4.692  13.577  0.00  0.00    +0.000 C 
ENDBRANCH  11  14
ENDBRANCH   5   9
ENDBRANCH   1   5
BRANCH   2  16
ATOM     16  C   UNL     1       1.493   2.952  20.158  0.00  0.00    +0.000 C 
BRANCH  16  17
ATOM     17  O   UNL     1       1.132   4.310  19.899  0.00  0.00    +0.000 OA
BRANCH  17  18
ATOM     18  C   UNL     1       1.918   5.209  20.547  0.00  0.00    +0.000 C 
ATOM     19  O   UNL     1       2.511   5.002  21.590  0.00  0.00    +0.000 OA
BRANCH  18  20
ATOM     20  C   UNL     1       1.949   6.518  19.834  0.00  0.00    +0.000 A 
ATOM     21  C   UNL     1       2.553   6.551  18.573  0.00  0.00    +0.000 A 
ATOM     22  C   UNL     1       2.624   7.743  17.841  0.00  0.00    +0.000 A 
ATOM     23  C   UNL     1       2.084   8.926  18.379  0.00  0.00    +0.000 A 
ATOM     24  N   UNL     1       2.086  10.168  17.765  0.00  0.00    +0.000 NA
ATOM     25  C   UNL     1       1.497  11.042  18.548  0.00  0.00    +0.000 A 
ATOM     26  S   UNL     1       0.916  10.455  20.046  0.00  0.00    +0.000 S 
ATOM     27  C   UNL     1       1.486   8.878  19.641  0.00  0.00    +0.000 A 
ATOM     28  C   UNL     1       1.406   7.687  20.389  0.00  0.00    +0.000 A 
ENDBRANCH  18  20
ENDBRANCH  17  18
ENDBRANCH  16  17
ENDBRANCH   2  16
TORSDOF 8
ENDMDL
MODEL 4
REMARK VINA RESULT:      -7.1      5.325      8.052
REMARK  Name = 
REMARK  10 active torsions:
REMARK  status: ('A' for Active; 'I' for Inactive)
REMARK    1  A    between atoms: C_1  and  O_2
REMARK    2  A    between atoms: O_2  and  C_3
REMARK    3  A    between atoms: C_6  and  C_7
REMARK    4  A    between atoms: C_7  and  N_8
REMARK    5  A    between atoms: C_9  and  C_11
REMARK    6  A    between atoms: C_11  and  O_12
REMARK    7  A    between atoms: O_12  and  C_13
REMARK    8  A    between atoms: C_13  and  C_15
REMARK    9  A    between atoms: C_25  and  O_26
REMARK   10  A    between atoms: O_26  and  C_27
REMARK                            x       y       z     vdW  Elec       q    Type
REMARK                         _______ _______ _______ _____ _____    ______ ____
ROOT
ATOM      1  N   UNL     1       8.355   9.374  18.148  0.00  0.00    +0.000 N 
ATOM      2  C   UNL     1       8.046   8.029  18.084  0.00  0.00    +0.000 C 
ATOM      3  O   UNL     1       8.470   7.202  18.889  0.00  0.00    +0.000 OA
ATOM      4  H   UNL     1       8.098   9.978  17.377  0.00  0.00    +0.000 HD
ENDROOT
BRANCH   1   5
ATOM      5  C   UNL     1       9.235   9.915  19.162  0.00  0.00    +0.000 C 
BRANCH   5   9
ATOM      6  C   UNL     1      10.579  13.907  18.145  0.00  0.00    +0.000 A 
ATOM      7  C   UNL     1      10.976  12.793  17.388  0.00  0.00    +0.000 A 
ATOM      8  C   UNL     1      10.531  11.509  17.707  0.00  0.00    +0.000 A 
ATOM      9  C   UNL     1       9.731  11.298  18.829  0.00  0.00    +0.000 A 
ATOM     10  C   UNL     1       9.408  12.400  19.634  0.00  0.00    +0.000 A 
ATOM     11  C   UNL     1       9.830  13.703  19.314  0.00  0.00    +0.000 A 
BRANCH   6  13
ATOM     12  C   UNL     1      12.281  15.546  18.075  0.00  0.00    +0.000 C 
ATOM     13  O   UNL     1      10.935  15.175  17.766  0.00  0.00    +0.000 OA
ENDBRANCH   6  13
BRANCH  11  14
ATOM     14  O   UNL     1       9.405  14.617  20.242  0.00  0.00    +0.000 OA
ATOM     15  C   UNL     1      10.273  15.002  21.295  0.00  0.00    +0.000 C 
ENDBRANCH  11  14
ENDBRANCH   5   9
ENDBRANCH   1   5
BRANCH   2  16
ATOM     16  C   UNL     1       7.072   7.657  16.959  0.00  0.00    +0.000 C 
BRANCH  16  17
ATOM     17  O   UNL     1       6.509   6.351  17.101  0.00  0.00    +0.000 OA
BRANCH  17  18
ATOM     18  C   UNL     1       5.403   6.155  16.337  0.00  0.00    +0.000 C 
ATOM     19  O   UNL     1       5.299   6.452  15.161  0.00  0.00    +0.000 OA
BRANCH  18  20
ATOM     20  C   UNL     1       4.295   5.550  17.129  0.00  0.00    +0.000 A 
ATOM     21  C   UNL     1       3.511   6.411  17.904  0.00  0.00    +0.000 A 
ATOM     22  C   UNL     1       2.453   5.919  18.679  0.00  0.00    +0.000 A 
ATOM     23  C   UNL     1       2.173   4.540  18.682  0.00  0.00    +0.000 A 
ATOM     24  N   UNL     1       1.161   3.922  19.399  0.00  0.00    +0.000 NA
ATOM     25  C   UNL     1       1.186   2.630  19.165  0.00  0.00    +0.000 A 
ATOM     26  S   UNL     1       2.402   2.072  18.098  0.00  0.00    +0.000 S 
ATOM     27  C   UNL     1       2.966   3.691  17.905  0.00  0.00    +0.000 A 
ATOM     28  C   UNL     1       4.033   4.171  17.120  0.00  0.00    +0.000 A 
ENDBRANCH  18  20
ENDBRANCH  17  18
ENDBRANCH  16  17
ENDBRANCH   2  16
TORSDOF 8
ENDMDL
MODEL 5
REMARK VINA RESULT:      -7.1      2.990      6.232
REMARK  Name = 
REMARK  10 active torsions:
REMARK  status: ('A' for Active; 'I' for Inactive)
REMARK    1  A    between atoms: C_1  and  O_2
REMARK    2  A    between atoms: O_2  and  C_3
REMARK    3  A    between atoms: C_6  and  C_7
REMARK    4  A    between atoms: C_7  and  N_8
REMARK    5  A    between atoms: C_9  and  C_11
REMARK    6  A    between atoms: C_11  and  O_12
REMARK    7  A    between atoms: O_12  and  C_13
REMARK    8  A    between atoms: C_13  and  C_15
REMARK    9  A    between atoms: C_25  and  O_26
REMARK   10  A    between atoms: O_26  and  C_27
REMARK                            x       y       z     vdW  Elec       q    Type
REMARK                         _______ _______ _______ _____ _____    ______ ____
ROOT
ATOM      1  N   UNL     1       3.398   3.076  18.870  0.00  0.00    +0.000 N 
ATOM      2  C   UNL     1       3.847   2.653  20.105  0.00  0.00    +0.000 C 
ATOM      3  O   UNL     1       4.942   2.120  20.279  0.00  0.00    +0.000 OA
ATOM      4  H   UNL     1       2.436   3.371  18.767  0.00  0.00    +0.000 HD
ENDROOT
BRANCH   1   5
ATOM      5  C   UNL     1       4.180   2.897  17.664  0.00  0.00    +0.000 C 
BRANCH   5   9
ATOM      6  C   UNL     1       6.795   6.254  16.844  0.00  0.00    +0.000 A 
ATOM      7  C   UNL     1       5.909   6.274  17.934  0.00  0.00    +0.000 A 
ATOM      8  C   UNL     1       5.077   5.186  18.207  0.00  0.00    +0.000 A 
ATOM      9  C   UNL     1       5.063   4.078  17.359  0.00  0.00    +0.000 A 
ATOM     10  C   UNL     1       5.884   4.098  16.223  0.00  0.00    +0.000 A 
ATOM     11  C   UNL     1       6.744   5.177  15.946  0.00  0.00    +0.000 A 
BRANCH   6  13
ATOM     12  C   UNL     1       7.972   8.067  17.801  0.00  0.00    +0.000 C 
ATOM     13  O   UNL     1       7.681   7.280  16.643  0.00  0.00    +0.000 OA
ENDBRANCH   6  13
BRANCH  11  14
ATOM     14  O   UNL     1       7.444   4.983  14.784  0.00  0.00    +0.000 OA
ATOM     15  C   UNL     1       6.798   4.397  13.667  0.00  0.00    +0.000 C 
ENDBRANCH  11  14
ENDBRANCH   5   9
ENDBRANCH   1   5
BRANCH   2  16
ATOM     16  C   UNL     1       2.891   2.961  21.265  0.00  0.00    +0.000 C 
BRANCH  16  17
ATOM     17  O   UNL     1       2.542   4.343  21.364  0.00  0.00    +0.000 OA
BRANCH  17  18
ATOM     18  C   UNL     1       1.475   4.685  20.597  0.00  0.00    +0.000 C 
ATOM     19  O   UNL     1       0.625   3.915  20.189  0.00  0.00    +0.000 OA
BRANCH  18  20
ATOM     20  C   UNL     1       1.479   6.142  20.278  0.00  0.00    +0.000 A 
ATOM     21  C   UNL     1       2.003   6.529  19.040  0.00  0.00    +0.000 A 
ATOM     22  C   UNL     1       2.046   7.878  18.668  0.00  0.00    +0.000 A 
ATOM     23  C   UNL     1       1.558   8.861  19.548  0.00  0.00    +0.000 A 
ATOM     24  N   UNL     1       1.539  10.225  19.308  0.00  0.00    +0.000 NA
ATOM     25  C   UNL     1       1.013  10.844  20.340  0.00  0.00    +0.000 A 
ATOM     26  S   UNL     1       0.518   9.858  21.649  0.00  0.00    +0.000 S 
ATOM     27  C   UNL     1       1.039   8.460  20.782  0.00  0.00    +0.000 A 
ATOM     28  C   UNL     1       0.989   7.107  21.171  0.00  0.00    +0.000 A 
ENDBRANCH  18  20
ENDBRANCH  17  18
ENDBRANCH  16  17
ENDBRANCH   2  16
TORSDOF 8
ENDMDL
MODEL 6
REMARK VINA RESULT:      -7.0      3.105      4.945
REMARK  Name = 
REMARK  10 active torsions:
REMARK  status: ('A' for Active; 'I' for Inactive)
REMARK    1  A    between atoms: C_1  and  O_2
REMARK    2  A    between atoms: O_2  and  C_3
REMARK    3  A    between atoms: C_6  and  C_7
REMARK    4  A    between atoms: C_7  and  N_8
REMARK    5  A    between atoms: C_9  and  C_11
REMARK    6  A    between atoms: C_11  and  O_12
REMARK    7  A    between atoms: O_12  and  C_13
REMARK    8  A    between atoms: C_13  and  C_15
REMARK    9  A    between atoms: C_25  and  O_26
REMARK   10  A    between atoms: O_26  and  C_27
REMARK                            x       y       z     vdW  Elec       q    Type
REMARK                         _______ _______ _______ _____ _____    ______ ____
ROOT
ATOM      1  N   UNL     1       1.224   9.639  19.100  0.00  0.00    +0.000 N 
ATOM      2  C   UNL     1       1.525   8.560  19.908  0.00  0.00    +0.000 C 
ATOM      3  O   UNL     1       1.186   8.486  21.087  0.00  0.00    +0.000 OA
ATOM      4  H   UNL     1       1.653   9.708  18.186  0.00  0.00    +0.000 HD
ENDROOT
BRANCH   1   5
ATOM      5  C   UNL     1       0.503  10.793  19.594  0.00  0.00    +0.000 C 
BRANCH   5   9
ATOM      6  C   UNL     1      -3.397  11.285  17.768  0.00  0.00    +0.000 A 
ATOM      7  C   UNL     1      -3.081  11.913  18.983  0.00  0.00    +0.000 A 
ATOM      8  C   UNL     1      -1.819  11.766  19.563  0.00  0.00    +0.000 A 
ATOM      9  C   UNL     1      -0.865  10.935  18.977  0.00  0.00    +0.000 A 
ATOM     10  C   UNL     1      -1.213  10.240  17.811  0.00  0.00    +0.000 A 
ATOM     11  C   UNL     1      -2.472  10.394  17.202  0.00  0.00    +0.000 A 
BRANCH   6  13
ATOM     12  C   UNL     1      -5.753  11.241  17.950  0.00  0.00    +0.000 C 
ATOM     13  O   UNL     1      -4.599  11.516  17.151  0.00  0.00    +0.000 OA
ENDBRANCH   6  13
BRANCH  11  14
ATOM     14  O   UNL     1      -2.593   9.615  16.081  0.00  0.00    +0.000 OA
ATOM     15  C   UNL     1      -2.902  10.220  14.837  0.00  0.00    +0.000 C 
ENDBRANCH  11  14
ENDBRANCH   5   9
ENDBRANCH   1   5
BRANCH   2  16
ATOM     16  C   UNL     1       2.265   7.422  19.194  0.00  0.00    +0.000 C 
BRANCH  16  17
ATOM     17  O   UNL     1       2.471   6.272  20.016  0.00  0.00    +0.000 OA
BRANCH  17  18
ATOM     18  C   UNL     1       2.554   5.114  19.310  0.00  0.00    +0.000 C 
ATOM     19  O   UNL     1       1.710   4.236  19.296  0.00  0.00    +0.000 OA
BRANCH  18  20
ATOM     20  C   UNL     1       3.840   5.023  18.562  0.00  0.00    +0.000 A 
ATOM     21  C   UNL     1       5.023   5.172  19.294  0.00  0.00    +0.000 A 
ATOM     22  C   UNL     1       6.272   5.103  18.664  0.00  0.00    +0.000 A 
ATOM     23  C   UNL     1       6.342   4.883  17.276  0.00  0.00    +0.000 A 
ATOM     24  N   UNL     1       7.506   4.793  16.529  0.00  0.00    +0.000 NA
ATOM     25  C   UNL     1       7.201   4.580  15.269  0.00  0.00    +0.000 A 
ATOM     26  S   UNL     1       5.534   4.481  14.894  0.00  0.00    +0.000 S 
ATOM     27  C   UNL     1       5.152   4.738  16.557  0.00  0.00    +0.000 A 
ATOM     28  C   UNL     1       3.889   4.804  17.177  0.00  0.00    +0.000 A 
ENDBRANCH  18  20
ENDBRANCH  17  18
ENDBRANCH  16  17
ENDBRANCH   2  16
TORSDOF 8
ENDMDL
MODEL 7
REMARK VINA RESULT:      -6.9      5.077      7.866
REMARK  Name = 
REMARK  10 active torsions:
REMARK  status: ('A' for Active; 'I' for Inactive)
REMARK    1  A    between atoms: C_1  and  O_2
REMARK    2  A    between atoms: O_2  and  C_3
REMARK    3  A    between atoms: C_6  and  C_7
REMARK    4  A    between atoms: C_7  and  N_8
REMARK    5  A    between atoms: C_9  and  C_11
REMARK    6  A    between atoms: C_11  and  O_12
REMARK    7  A    between atoms: O_12  and  C_13
REMARK    8  A    between atoms: C_13  and  C_15
REMARK    9  A    between atoms: C_25  and  O_26
REMARK   10  A    between atoms: O_26  and  C_27
REMARK                            x       y       z     vdW  Elec       q    Type
REMARK                         _______ _______ _______ _____ _____    ______ ____
ROOT
ATOM      1  N   UNL     1       6.132   7.608  17.824  0.00  0.00    +0.000 N 
ATOM      2  C   UNL     1       7.443   7.486  17.404  0.00  0.00    +0.000 C 
ATOM      3  O   UNL     1       7.776   6.836  16.415  0.00  0.00    +0.000 OA
ATOM      4  H   UNL     1       5.937   8.031  18.722  0.00  0.00    +0.000 HD
ENDROOT
BRANCH   1   5
ATOM      5  C   UNL     1       5.041   6.948  17.140  0.00  0.00    +0.000 C 
BRANCH   5   9
ATOM      6  C   UNL     1       2.608   4.432  19.696  0.00  0.00    +0.000 A 
ATOM      7  C   UNL     1       2.357   5.809  19.583  0.00  0.00    +0.000 A 
ATOM      8  C   UNL     1       3.131   6.617  18.748  0.00  0.00    +0.000 A 
ATOM      9  C   UNL     1       4.217   6.080  18.056  0.00  0.00    +0.000 A 
ATOM     10  C   UNL     1       4.519   4.723  18.239  0.00  0.00    +0.000 A 
ATOM     11  C   UNL     1       3.735   3.891  19.059  0.00  0.00    +0.000 A 
BRANCH   6  13
ATOM     12  C   UNL     1       0.681   3.062  19.716  0.00  0.00    +0.000 C 
ATOM     13  O   UNL     1       1.780   3.627  20.435  0.00  0.00    +0.000 OA
ENDBRANCH   6  13
BRANCH  11  14
ATOM     14  O   UNL     1       4.219   2.610  19.093  0.00  0.00    +0.000 OA
ATOM     15  C   UNL     1       3.624   1.613  18.280  0.00  0.00    +0.000 C 
ENDBRANCH  11  14
ENDBRANCH   5   9
ENDBRANCH   1   5
BRANCH   2  16
ATOM     16  C   UNL     1       8.451   8.287  18.238  0.00  0.00    +0.000 C 
BRANCH  16  17
ATOM     17  O   UNL     1       8.366   9.699  18.035  0.00  0.00    +0.000 OA
BRANCH  17  18
ATOM     18  C   UNL     1       9.018  10.420  18.984  0.00  0.00    +0.000 C 
ATOM     19  O   UNL     1       9.127  10.106  20.155  0.00  0.00    +0.000 OA
BRANCH  18  20
ATOM     20  C   UNL     1       9.571  11.685  18.421  0.00  0.00    +0.000 A 
ATOM     21  C   UNL     1      10.791  11.609  17.741  0.00  0.00    +0.000 A 
ATOM     22  C   UNL     1      11.377  12.753  17.187  0.00  0.00    +0.000 A 
ATOM     23  C   UNL     1      10.735  13.998  17.314  0.00  0.00    +0.000 A 
ATOM     24  N   UNL     1      11.201  15.204  16.815  0.00  0.00    +0.000 NA
ATOM     25  C   UNL     1      10.350  16.159  17.113  0.00  0.00    +0.000 A 
ATOM     26  S   UNL     1       8.962  15.693  18.000  0.00  0.00    +0.000 S 
ATOM     27  C   UNL     1       9.518  14.060  17.997  0.00  0.00    +0.000 A 
ATOM     28  C   UNL     1       8.915  12.918  18.560  0.00  0.00    +0.000 A 
ENDBRANCH  18  20
ENDBRANCH  17  18
ENDBRANCH  16  17
ENDBRANCH   2  16
TORSDOF 8
ENDMDL
MODEL 8
REMARK VINA RESULT:      -6.9      5.080      7.979
REMARK  Name = 
REMARK  10 active torsions:
REMARK  status: ('A' for Active; 'I' for Inactive)
REMARK    1  A    between atoms: C_1  and  O_2
REMARK    2  A    between atoms: O_2  and  C_3
REMARK    3  A    between atoms: C_6  and  C_7
REMARK    4  A    between atoms: C_7  and  N_8
REMARK    5  A    between atoms: C_9  and  C_11
REMARK    6  A    between atoms: C_11  and  O_12
REMARK    7  A    between atoms: O_12  and  C_13
REMARK    8  A    between atoms: C_13  and  C_15
REMARK    9  A    between atoms: C_25  and  O_26
REMARK   10  A    between atoms: O_26  and  C_27
REMARK                            x       y       z     vdW  Elec       q    Type
REMARK                         _______ _______ _______ _____ _____    ______ ____
ROOT
ATOM      1  N   UNL     1       7.106   7.257  16.800  0.00  0.00    +0.000 N 
ATOM      2  C   UNL     1       7.845   7.671  17.891  0.00  0.00    +0.000 C 
ATOM      3  O   UNL     1       8.317   6.895  18.719  0.00  0.00    +0.000 OA
ATOM      4  H   UNL     1       6.622   7.946  16.238  0.00  0.00    +0.000 HD
ENDROOT
BRANCH   1   5
ATOM      5  C   UNL     1       6.802   5.862  16.562  0.00  0.00    +0.000 C 
BRANCH   5   9
ATOM      6  C   UNL     1       2.873   4.721  17.992  0.00  0.00    +0.000 A 
ATOM      7  C   UNL     1       3.316   6.051  18.072  0.00  0.00    +0.000 A 
ATOM      8  C   UNL     1       4.575   6.421  17.597  0.00  0.00    +0.000 A 
ATOM      9  C   UNL     1       5.450   5.459  17.091  0.00  0.00    +0.000 A 
ATOM     10  C   UNL     1       5.039   4.119  17.094  0.00  0.00    +0.000 A 
ATOM     11  C   UNL     1       3.765   3.733  17.548  0.00  0.00    +0.000 A 
BRANCH   6  13
ATOM     12  C   UNL     1       1.358   4.376  19.774  0.00  0.00    +0.000 C 
ATOM     13  O   UNL     1       1.597   4.383  18.364  0.00  0.00    +0.000 OA
ENDBRANCH   6  13
BRANCH  11  14
ATOM     14  O   UNL     1       3.586   2.377  17.465  0.00  0.00    +0.000 OA
ATOM     15  C   UNL     1       3.581   1.597  18.650  0.00  0.00    +0.000 C 
ENDBRANCH  11  14
ENDBRANCH   5   9
ENDBRANCH   1   5
BRANCH   2  16
ATOM     16  C   UNL     1       8.088   9.185  17.952  0.00  0.00    +0.000 C 
BRANCH  16  17
ATOM     17  O   UNL     1       9.027   9.571  18.956  0.00  0.00    +0.000 OA
BRANCH  17  18
ATOM     18  C   UNL     1       9.610  10.775  18.714  0.00  0.00    +0.000 C 
ATOM     19  O   UNL     1      10.234  11.066  17.711  0.00  0.00    +0.000 OA
BRANCH  18  20
ATOM     20  C   UNL     1       9.418  11.711  19.859  0.00  0.00    +0.000 A 
ATOM     21  C   UNL     1       9.698  13.064  19.639  0.00  0.00    +0.000 A 
ATOM     22  C   UNL     1       9.546  14.005  20.664  0.00  0.00    +0.000 A 
ATOM     23  C   UNL     1       9.109  13.589  21.935  0.00  0.00    +0.000 A 
ATOM     24  N   UNL     1       8.916  14.411  23.033  0.00  0.00    +0.000 NA
ATOM     25  C   UNL     1       8.502  13.691  24.050  0.00  0.00    +0.000 A 
ATOM     26  S   UNL     1       8.323  12.012  23.774  0.00  0.00    +0.000 S 
ATOM     27  C   UNL     1       8.836  12.234  22.141  0.00  0.00    +0.000 A 
ATOM     28  C   UNL     1       8.983  11.275  21.120  0.00  0.00    +0.000 A 
ENDBRANCH  18  20
ENDBRANCH  17  18
ENDBRANCH  16  17
ENDBRANCH   2  16
TORSDOF 8
ENDMDL
MODEL 9
REMARK VINA RESULT:      -6.9      3.569      7.097
REMARK  Name = 
REMARK  10 active torsions:
REMARK  status: ('A' for Active; 'I' for Inactive)
REMARK    1  A    between atoms: C_1  and  O_2
REMARK    2  A    between atoms: O_2  and  C_3
REMARK    3  A    between atoms: C_6  and  C_7
REMARK    4  A    between atoms: C_7  and  N_8
REMARK    5  A    between atoms: C_9  and  C_11
REMARK    6  A    between atoms: C_11  and  O_12
REMARK    7  A    between atoms: O_12  and  C_13
REMARK    8  A    between atoms: C_13  and  C_15
REMARK    9  A    between atoms: C_25  and  O_26
REMARK   10  A    between atoms: O_26  and  C_27
REMARK                            x       y       z     vdW  Elec       q    Type
REMARK                         _______ _______ _______ _____ _____    ______ ____
ROOT
ATOM      1  N   UNL     1       3.719   3.991  18.364  0.00  0.00    +0.000 N 
ATOM      2  C   UNL     1       2.417   4.246  18.746  0.00  0.00    +0.000 C 
ATOM      3  O   UNL     1       1.439   3.800  18.148  0.00  0.00    +0.000 OA
ATOM      4  H   UNL     1       4.474   4.501  18.804  0.00  0.00    +0.000 HD
ENDROOT
BRANCH   1   5
ATOM      5  C   UNL     1       4.037   3.194  17.198  0.00  0.00    +0.000 C 
BRANCH   5   9
ATOM      6  C   UNL     1       7.098   5.010  14.726  0.00  0.00    +0.000 A 
ATOM      7  C   UNL     1       6.354   3.911  14.268  0.00  0.00    +0.000 A 
ATOM      8  C   UNL     1       5.358   3.335  15.058  0.00  0.00    +0.000 A 
ATOM      9  C   UNL     1       5.125   3.802  16.352  0.00  0.00    +0.000 A 
ATOM     10  C   UNL     1       5.929   4.843  16.839  0.00  0.00    +0.000 A 
ATOM     11  C   UNL     1       6.921   5.448  16.047  0.00  0.00    +0.000 A 
BRANCH   6  13
ATOM     12  C   UNL     1       7.915   5.279  12.523  0.00  0.00    +0.000 C 
ATOM     13  O   UNL     1       8.001   5.635  13.906  0.00  0.00    +0.000 OA
ENDBRANCH   6  13
BRANCH  11  14
ATOM     14  O   UNL     1       7.584   6.434  16.730  0.00  0.00    +0.000 OA
ATOM     15  C   UNL     1       7.242   6.704  18.079  0.00  0.00    +0.000 C 
ENDBRANCH  11  14
ENDBRANCH   5   9
ENDBRANCH   1   5
BRANCH   2  16
ATOM     16  C   UNL     1       2.286   5.082  20.026  0.00  0.00    +0.000 C 
BRANCH  16  17
ATOM     17  O   UNL     1       3.007   6.314  19.978  0.00  0.00    +0.000 OA
BRANCH  17  18
ATOM     18  C   UNL     1       2.543   7.173  19.032  0.00  0.00    +0.000 C 
ATOM     19  O   UNL     1       2.780   7.102  17.841  0.00  0.00    +0.000 OA
BRANCH  18  20
ATOM     20  C   UNL     1       1.717   8.255  19.640  0.00  0.00    +0.000 A 
ATOM     21  C   UNL     1       1.358   9.330  18.819  0.00  0.00    +0.000 A 
ATOM     22  C   UNL     1       0.586  10.387  19.315  0.00  0.00    +0.000 A 
ATOM     23  C   UNL     1       0.165  10.374  20.658  0.00  0.00    +0.000 A 
ATOM     24  N   UNL     1      -0.600  11.350  21.275  0.00  0.00    +0.000 NA
ATOM     25  C   UNL     1      -0.809  11.014  22.527  0.00  0.00    +0.000 A 
ATOM     26  S   UNL     1      -0.115   9.539  23.047  0.00  0.00    +0.000 S 
ATOM     27  C   UNL     1       0.533   9.296  21.466  0.00  0.00    +0.000 A 
ATOM     28  C   UNL     1       1.308   8.224  20.982  0.00  0.00    +0.000 A 
ENDBRANCH  18  20
ENDBRANCH  17  18
ENDBRANCH  16  17
ENDBRANCH   2  16
TORSDOF 8
ENDMDL
