MODEL 1
REMARK VINA RESULT:      -6.1      0.000      0.000
REMARK  Name = 
REMARK  1 active torsions:
REMARK  status: ('A' for Active; 'I' for Inactive)
REMARK    1  A    between atoms: C_4  and  O_5
REMARK                            x       y       z     vdW  Elec       q    Type
REMARK                         _______ _______ _______ _____ _____    ______ ____
ROOT
ATOM      1  O   UNL     1       4.838   4.780  19.441  0.00  0.00    +0.000 OA
ATOM      2  C   UNL     1       4.088   3.847  19.221  0.00  0.00    +0.000 C 
ATOM      3  N   UNL     1       4.251   2.958  18.167  0.00  0.00    +0.000 N 
ATOM      4  C   UNL     1       3.243   1.967  18.179  0.00  0.00    +0.000 C 
ATOM      5  N   UNL     1       2.436   2.255  19.330  0.00  0.00    +0.000 N 
ATOM      6  C   UNL     1       1.070   2.498  19.232  0.00  0.00    +0.000 A 
ATOM      7  O   UNL     1       0.290   1.991  18.443  0.00  0.00    +0.000 OA
ATOM      8  N   UNL     1       0.774   3.532  20.079  0.00  0.00    +0.000 N 
ATOM      9  C   UNL     1       1.937   4.204  20.388  0.00  0.00    +0.000 A 
ATOM     10  O   UNL     1       1.970   5.299  20.923  0.00  0.00    +0.000 OA
ATOM     11  N   UNL     1       3.008   3.385  19.988  0.00  0.00    +0.000 N 
ATOM     12  H   UNL     1       5.019   3.008  17.515  0.00  0.00    +0.000 HD
ATOM     13  H   UNL     1      -0.127   3.978  20.118  0.00  0.00    +0.000 HD
ENDROOT
BRANCH   4  14
ATOM     14  O   UNL     1       3.892   0.744  18.384  0.00  0.00    +0.000 OA
ATOM     15  H   UNL     1       4.458   0.898  19.158  0.00  0.00    +0.000 HD
ENDBRANCH   4  14
TORSDOF 1
ENDMDL
MODEL 2
REMARK VINA RESULT:      -6.0      3.441      5.246
REMARK  Name = 
REMARK  1 active torsions:
REMARK  status: ('A' for Active; 'I' for Inactive)
REMARK    1  A    between atoms: C_4  and  O_5
REMARK                            x       y       z     vdW  Elec       q    Type
REMARK                         _______ _______ _______ _____ _____    ______ ____
ROOT
ATOM      1  O   UNL     1       3.290   6.656  17.835  0.00  0.00    +0.000 OA
ATOM      2  C   UNL     1       4.173   5.819  17.876  0.00  0.00    +0.000 C 
ATOM      3  N   UNL     1       4.598   5.203  19.047  0.00  0.00    +0.000 N 
ATOM      4  C   UNL     1       5.616   4.260  18.782  0.00  0.00    +0.000 C 
ATOM      5  N   UNL     1       5.798   4.280  17.359  0.00  0.00    +0.000 N 
ATOM      6  C   UNL     1       7.028   4.568  16.776  0.00  0.00    +0.000 A 
ATOM      7  O   UNL     1       8.131   4.281  17.212  0.00  0.00    +0.000 OA
ATOM      8  N   UNL     1       6.793   5.376  15.697  0.00  0.00    +0.000 N 
ATOM      9  C   UNL     1       5.537   5.930  15.817  0.00  0.00    +0.000 A 
ATOM     10  O   UNL     1       5.137   6.865  15.145  0.00  0.00    +0.000 OA
ATOM     11  N   UNL     1       4.860   5.209  16.816  0.00  0.00    +0.000 N 
ATOM     12  H   UNL     1       4.190   5.392  19.950  0.00  0.00    +0.000 HD
ATOM     13  H   UNL     1       7.523   5.818  15.164  0.00  0.00    +0.000 HD
ENDROOT
BRANCH   4  14
ATOM     14  O   UNL     1       5.102   3.010  19.147  0.00  0.00    +0.000 OA
ATOM     15  H   UNL     1       5.476   2.396  18.494  0.00  0.00    +0.000 HD
ENDBRANCH   4  14
TORSDOF 1
ENDMDL
MODEL 3
REMARK VINA RESULT:      -6.0      2.096      2.350
REMARK  Name = 
REMARK  1 active torsions:
REMARK  status: ('A' for Active; 'I' for Inactive)
REMARK    1  A    between atoms: C_4  and  O_5
REMARK                            x       y       z     vdW  Elec       q    Type
REMARK                         _______ _______ _______ _____ _____    ______ ____
ROOT
ATOM      1  O   UNL     1       5.021   1.639  21.217  0.00  0.00    +0.000 OA
ATOM      2  C   UNL     1       4.525   2.323  20.340  0.00  0.00    +0.000 C 
ATOM      3  N   UNL     1       5.260   2.942  19.337  0.00  0.00    +0.000 N 
ATOM      4  C   UNL     1       4.414   3.647  18.450  0.00  0.00    +0.000 C 
ATOM      5  N   UNL     1       3.081   3.414  18.926  0.00  0.00    +0.000 N 
ATOM      6  C   UNL     1       2.231   4.456  19.284  0.00  0.00    +0.000 A 
ATOM      7  O   UNL     1       2.175   5.563  18.774  0.00  0.00    +0.000 OA
ATOM      8  N   UNL     1       1.571   4.077  20.421  0.00  0.00    +0.000 N 
ATOM      9  C   UNL     1       2.254   3.036  21.010  0.00  0.00    +0.000 A 
ATOM     10  O   UNL     1       2.051   2.643  22.146  0.00  0.00    +0.000 OA
ATOM     11  N   UNL     1       3.170   2.550  20.060  0.00  0.00    +0.000 N 
ATOM     12  H   UNL     1       6.261   2.853  19.249  0.00  0.00    +0.000 HD
ATOM     13  H   UNL     1       0.977   4.693  20.950  0.00  0.00    +0.000 HD
ENDROOT
BRANCH   4  14
ATOM     14  O   UNL     1       4.553   3.034  17.199  0.00  0.00    +0.000 OA
ATOM     15  H   UNL     1       4.699   2.096  17.405  0.00  0.00    +0.000 HD
ENDBRANCH   4  14
TORSDOF 1
ENDMDL
MODEL 4
REMARK VINA RESULT:      -5.9      3.557      5.562
REMARK  Name = 
REMARK  1 active torsions:
REMARK  status: ('A' for Active; 'I' for Inactive)
REMARK    1  A    between atoms: C_4  and  O_5
REMARK                            x       y       z     vdW  Elec       q    Type
REMARK                         _______ _______ _______ _____ _____    ______ ____
ROOT
ATOM      1  O   UNL     1       5.627   4.588  14.945  0.00  0.00    +0.000 OA
ATOM      2  C   UNL     1       6.033   5.160  15.940  0.00  0.00    +0.000 C 
ATOM      3  N   UNL     1       7.184   5.937  15.968  0.00  0.00    +0.000 N 
ATOM      4  C   UNL     1       7.389   6.493  17.251  0.00  0.00    +0.000 C 
ATOM      5  N   UNL     1       6.277   6.052  18.043  0.00  0.00    +0.000 N 
ATOM      6  C   UNL     1       6.448   5.324  19.216  0.00  0.00    +0.000 A 
ATOM      7  O   UNL     1       7.359   5.433  20.019  0.00  0.00    +0.000 OA
ATOM      8  N   UNL     1       5.493   4.344  19.235  0.00  0.00    +0.000 N 
ATOM      9  C   UNL     1       5.002   4.171  17.959  0.00  0.00    +0.000 A 
ATOM     10  O   UNL     1       4.321   3.221  17.613  0.00  0.00    +0.000 OA
ATOM     11  N   UNL     1       5.425   5.276  17.199  0.00  0.00    +0.000 N 
ATOM     12  H   UNL     1       7.759   6.102  15.156  0.00  0.00    +0.000 HD
ATOM     13  H   UNL     1       5.464   3.609  19.922  0.00  0.00    +0.000 HD
ENDROOT
BRANCH   4  14
ATOM     14  O   UNL     1       7.303   7.882  17.099  0.00  0.00    +0.000 OA
ATOM     15  H   UNL     1       6.685   8.007  16.361  0.00  0.00    +0.000 HD
ENDBRANCH   4  14
TORSDOF 1
ENDMDL
MODEL 5
REMARK VINA RESULT:      -5.8      1.736      4.223
REMARK  Name = 
REMARK  1 active torsions:
REMARK  status: ('A' for Active; 'I' for Inactive)
REMARK    1  A    between atoms: C_4  and  O_5
REMARK                            x       y       z     vdW  Elec       q    Type
REMARK                         _______ _______ _______ _____ _____    ______ ____
ROOT
ATOM      1  O   UNL     1       1.173   3.688  17.477  0.00  0.00    +0.000 OA
ATOM      2  C   UNL     1       2.060   4.214  18.123  0.00  0.00    +0.000 C 
ATOM      3  N   UNL     1       2.283   5.585  18.155  0.00  0.00    +0.000 N 
ATOM      4  C   UNL     1       3.363   5.903  19.008  0.00  0.00    +0.000 C 
ATOM      5  N   UNL     1       3.803   4.651  19.553  0.00  0.00    +0.000 N 
ATOM      6  C   UNL     1       5.110   4.197  19.399  0.00  0.00    +0.000 A 
ATOM      7  O   UNL     1       6.122   4.877  19.362  0.00  0.00    +0.000 OA
ATOM      8  N   UNL     1       5.051   2.856  19.135  0.00  0.00    +0.000 N 
ATOM      9  C   UNL     1       3.777   2.536  18.719  0.00  0.00    +0.000 A 
ATOM     10  O   UNL     1       3.476   1.480  18.191  0.00  0.00    +0.000 OA
ATOM     11  N   UNL     1       2.951   3.630  19.036  0.00  0.00    +0.000 N 
ATOM     12  H   UNL     1       1.709   6.250  17.658  0.00  0.00    +0.000 HD
ATOM     13  H   UNL     1       5.851   2.305  18.874  0.00  0.00    +0.000 HD
ENDROOT
BRANCH   4  14
ATOM     14  O   UNL     1       2.833   6.678  20.047  0.00  0.00    +0.000 OA
ATOM     15  H   UNL     1       3.527   7.327  20.243  0.00  0.00    +0.000 HD
ENDBRANCH   4  14
TORSDOF 1
ENDMDL
MODEL 6
REMARK VINA RESULT:      -5.8      2.068      3.589
REMARK  Name = 
REMARK  1 active torsions:
REMARK  status: ('A' for Active; 'I' for Inactive)
REMARK    1  A    between atoms: C_4  and  O_5
REMARK                            x       y       z     vdW  Elec       q    Type
REMARK                         _______ _______ _______ _____ _____    ______ ____
ROOT
ATOM      1  O   UNL     1       2.590   6.311  19.612  0.00  0.00    +0.000 OA
ATOM      2  C   UNL     1       2.727   5.175  20.028  0.00  0.00    +0.000 C 
ATOM      3  N   UNL     1       2.257   4.743  21.262  0.00  0.00    +0.000 N 
ATOM      4  C   UNL     1       2.540   3.372  21.461  0.00  0.00    +0.000 C 
ATOM      5  N   UNL     1       3.193   2.938  20.260  0.00  0.00    +0.000 N 
ATOM      6  C   UNL     1       4.466   2.373  20.274  0.00  0.00    +0.000 A 
ATOM      7  O   UNL     1       4.943   1.665  21.145  0.00  0.00    +0.000 OA
ATOM      8  N   UNL     1       5.153   2.883  19.206  0.00  0.00    +0.000 N 
ATOM      9  C   UNL     1       4.522   4.028  18.771  0.00  0.00    +0.000 A 
ATOM     10  O   UNL     1       5.019   4.830  17.999  0.00  0.00    +0.000 OA
ATOM     11  N   UNL     1       3.249   4.052  19.369  0.00  0.00    +0.000 N 
ATOM     12  H   UNL     1       1.748   5.337  21.898  0.00  0.00    +0.000 HD
ATOM     13  H   UNL     1       6.134   2.722  19.049  0.00  0.00    +0.000 HD
ENDROOT
BRANCH   4  14
ATOM     14  O   UNL     1       1.304   2.723  21.555  0.00  0.00    +0.000 OA
ATOM     15  H   UNL     1       1.272   2.150  20.772  0.00  0.00    +0.000 HD
ENDBRANCH   4  14
TORSDOF 1
ENDMDL
MODEL 7
REMARK VINA RESULT:      -5.8      1.660      3.162
REMARK  Name = 
REMARK  1 active torsions:
REMARK  status: ('A' for Active; 'I' for Inactive)
REMARK    1  A    between atoms: C_4  and  O_5
REMARK                            x       y       z     vdW  Elec       q    Type
REMARK                         _______ _______ _______ _____ _____    ______ ____
ROOT
ATOM      1  O   UNL     1       2.555   3.313  16.770  0.00  0.00    +0.000 OA
ATOM      2  C   UNL     1       2.615   3.720  17.915  0.00  0.00    +0.000 C 
ATOM      3  N   UNL     1       3.761   4.259  18.485  0.00  0.00    +0.000 N 
ATOM      4  C   UNL     1       3.522   4.667  19.817  0.00  0.00    +0.000 C 
ATOM      5  N   UNL     1       2.136   4.388  20.061  0.00  0.00    +0.000 N 
ATOM      6  C   UNL     1       1.722   3.553  21.094  0.00  0.00    +0.000 A 
ATOM      7  O   UNL     1       2.248   3.426  22.188  0.00  0.00    +0.000 OA
ATOM      8  N   UNL     1       0.705   2.775  20.613  0.00  0.00    +0.000 N 
ATOM      9  C   UNL     1       0.738   2.796  19.235  0.00  0.00    +0.000 A 
ATOM     10  O   UNL     1       0.118   2.023  18.526  0.00  0.00    +0.000 OA
ATOM     11  N   UNL     1       1.583   3.854  18.857  0.00  0.00    +0.000 N 
ATOM     12  H   UNL     1       4.627   4.373  17.981  0.00  0.00    +0.000 HD
ATOM     13  H   UNL     1       0.300   2.009  21.125  0.00  0.00    +0.000 HD
ENDROOT
BRANCH   4  14
ATOM     14  O   UNL     1       3.707   6.055  19.845  0.00  0.00    +0.000 OA
ATOM     15  H   UNL     1       2.814   6.420  19.745  0.00  0.00    +0.000 HD
ENDBRANCH   4  14
TORSDOF 1
ENDMDL
MODEL 8
REMARK VINA RESULT:      -5.7      4.216      5.168
REMARK  Name = 
REMARK  1 active torsions:
REMARK  status: ('A' for Active; 'I' for Inactive)
REMARK    1  A    between atoms: C_4  and  O_5
REMARK                            x       y       z     vdW  Elec       q    Type
REMARK                         _______ _______ _______ _____ _____    ______ ____
ROOT
ATOM      1  O   UNL     1       7.813   4.652  15.874  0.00  0.00    +0.000 OA
ATOM      2  C   UNL     1       7.186   4.961  16.871  0.00  0.00    +0.000 C 
ATOM      3  N   UNL     1       7.273   4.281  18.079  0.00  0.00    +0.000 N 
ATOM      4  C   UNL     1       6.452   4.883  19.060  0.00  0.00    +0.000 C 
ATOM      5  N   UNL     1       5.854   6.017  18.416  0.00  0.00    +0.000 N 
ATOM      6  C   UNL     1       4.475   6.172  18.324  0.00  0.00    +0.000 A 
ATOM      7  O   UNL     1       3.642   5.823  19.144  0.00  0.00    +0.000 OA
ATOM      8  N   UNL     1       4.197   6.645  17.070  0.00  0.00    +0.000 N 
ATOM      9  C   UNL     1       5.280   6.410  16.252  0.00  0.00    +0.000 A 
ATOM     10  O   UNL     1       5.249   6.500  15.036  0.00  0.00    +0.000 OA
ATOM     11  N   UNL     1       6.364   6.078  17.084  0.00  0.00    +0.000 N 
ATOM     12  H   UNL     1       7.881   3.489  18.225  0.00  0.00    +0.000 HD
ATOM     13  H   UNL     1       3.263   6.741  16.706  0.00  0.00    +0.000 HD
ENDROOT
BRANCH   4  14
ATOM     14  O   UNL     1       7.309   5.343  20.066  0.00  0.00    +0.000 OA
ATOM     15  H   UNL     1       8.141   5.535  19.605  0.00  0.00    +0.000 HD
ENDBRANCH   4  14
TORSDOF 1
ENDMDL
MODEL 9
REMARK VINA RESULT:      -5.7      4.147      6.073
REMARK  Name = 
REMARK  1 active torsions:
REMARK  status: ('A' for Active; 'I' for Inactive)
REMARK    1  A    between atoms: C_4  and  O_5
REMARK                            x       y       z     vdW  Elec       q    Type
REMARK                         _______ _______ _______ _____ _____    ______ ____
ROOT
ATOM      1  O   UNL     1       4.884   7.025  14.950  0.00  0.00    +0.000 OA
ATOM      2  C   UNL     1       5.153   6.413  15.967  0.00  0.00    +0.000 C 
ATOM      3  N   UNL     1       4.682   6.762  17.226  0.00  0.00    +0.000 N 
ATOM      4  C   UNL     1       5.141   5.855  18.208  0.00  0.00    +0.000 C 
ATOM      5  N   UNL     1       5.912   4.877  17.497  0.00  0.00    +0.000 N 
ATOM      6  C   UNL     1       7.247   4.626  17.799  0.00  0.00    +0.000 A 
ATOM      7  O   UNL     1       7.770   4.674  18.900  0.00  0.00    +0.000 OA
ATOM      8  N   UNL     1       7.914   4.471  16.614  0.00  0.00    +0.000 N 
ATOM      9  C   UNL     1       7.155   5.007  15.598  0.00  0.00    +0.000 A 
ATOM     10  O   UNL     1       7.577   5.233  14.477  0.00  0.00    +0.000 OA
ATOM     11  N   UNL     1       5.861   5.210  16.110  0.00  0.00    +0.000 N 
ATOM     12  H   UNL     1       4.062   7.541  17.387  0.00  0.00    +0.000 HD
ATOM     13  H   UNL     1       8.915   4.388  16.547  0.00  0.00    +0.000 HD
ENDROOT
BRANCH   4  14
ATOM     14  O   UNL     1       4.003   5.230  18.732  0.00  0.00    +0.000 OA
ATOM     15  H   UNL     1       3.831   5.698  19.564  0.00  0.00    +0.000 HD
ENDBRANCH   4  14
TORSDOF 1
ENDMDL
