MODEL 1
REMARK VINA RESULT:      -5.7      0.000      0.000
REMARK  Name = 
REMARK  4 active torsions:
REMARK  status: ('A' for Active; 'I' for Inactive)
REMARK    1  A    between atoms: C_1  and  C_2
REMARK    2  A    between atoms: N_4  and  C_5
REMARK    3  A    between atoms: C_5  and  C_6
REMARK    4  A    between atoms: C_6  and  C_7
REMARK                            x       y       z     vdW  Elec       q    Type
REMARK                         _______ _______ _______ _____ _____    ______ ____
ROOT
ATOM      1  C   UNL     1       4.329   3.701  19.048  0.00  0.00    +0.000 C 
ENDROOT
BRANCH   1   2
ATOM      2  C   UNL     1       3.160   3.917  18.055  0.00  0.00    +0.000 C 
ATOM      3  C   UNL     1       1.980   4.650  18.723  0.00  0.00    +0.000 C 
ATOM      4  C   UNL     1       1.215   3.742  19.686  0.00  0.00    +0.000 C 
ATOM      5  C   UNL     1       0.851   2.403  19.046  0.00  0.00    +0.000 C 
ATOM      6  N   UNL     1       1.999   1.747  18.413  0.00  0.00    +0.000 NA
ATOM      7  C   UNL     1       2.628   2.621  17.420  0.00  0.00    +0.000 C 
ATOM      8  H   UNL     1       1.672   0.900  17.947  0.00  0.00    +0.000 HD
ENDBRANCH   1   2
BRANCH   1   9
ATOM      9  C   UNL     1       5.594   4.474  18.668  0.00  0.00    +0.000 C 
BRANCH   9  13
ATOM     10  C   UNL     1       6.987   4.713  15.152  0.00  0.00    +0.000 C 
ATOM     11  C   UNL     1       7.012   4.515  16.643  0.00  0.00    +0.000 C 
ATOM     12  O   UNL     1       8.057   4.337  17.264  0.00  0.00    +0.000 OA
ATOM     13  N   UNL     1       5.770   4.575  17.230  0.00  0.00    +0.000 N 
ATOM     14  H   UNL     1       4.949   4.680  16.651  0.00  0.00    +0.000 HD
ENDBRANCH   9  13
ENDBRANCH   1   9
TORSDOF 3
ENDMDL
MODEL 2
REMARK VINA RESULT:      -5.5      2.096      2.971
REMARK  Name = 
REMARK  4 active torsions:
REMARK  status: ('A' for Active; 'I' for Inactive)
REMARK    1  A    between atoms: C_1  and  C_2
REMARK    2  A    between atoms: N_4  and  C_5
REMARK    3  A    between atoms: C_5  and  C_6
REMARK    4  A    between atoms: C_6  and  C_7
REMARK                            x       y       z     vdW  Elec       q    Type
REMARK                         _______ _______ _______ _____ _____    ______ ____
ROOT
ATOM      1  C   UNL     1       5.036   4.741  16.359  0.00  0.00    +0.000 C 
ENDROOT
BRANCH   1   2
ATOM      2  C   UNL     1       4.396   3.787  17.400  0.00  0.00    +0.000 C 
ATOM      3  C   UNL     1       2.867   3.964  17.460  0.00  0.00    +0.000 C 
ATOM      4  C   UNL     1       2.468   5.264  18.158  0.00  0.00    +0.000 C 
ATOM      5  C   UNL     1       3.182   5.438  19.499  0.00  0.00    +0.000 C 
ATOM      6  N   UNL     1       4.632   5.250  19.397  0.00  0.00    +0.000 NA
ATOM      7  C   UNL     1       4.958   3.943  18.823  0.00  0.00    +0.000 C 
ATOM      8  H   UNL     1       5.033   5.308  20.334  0.00  0.00    +0.000 HD
ENDBRANCH   1   2
BRANCH   1   9
ATOM      9  C   UNL     1       6.558   4.841  16.489  0.00  0.00    +0.000 C 
BRANCH   9  13
ATOM     10  C   UNL     1       7.844   8.224  17.611  0.00  0.00    +0.000 C 
ATOM     11  C   UNL     1       7.484   6.768  17.729  0.00  0.00    +0.000 C 
ATOM     12  O   UNL     1       7.587   6.151  18.786  0.00  0.00    +0.000 OA
ATOM     13  N   UNL     1       7.018   6.217  16.559  0.00  0.00    +0.000 N 
ATOM     14  H   UNL     1       7.002   6.773  15.716  0.00  0.00    +0.000 HD
ENDBRANCH   9  13
ENDBRANCH   1   9
TORSDOF 3
ENDMDL
MODEL 3
REMARK VINA RESULT:      -5.5      1.045      1.119
REMARK  Name = 
REMARK  4 active torsions:
REMARK  status: ('A' for Active; 'I' for Inactive)
REMARK    1  A    between atoms: C_1  and  C_2
REMARK    2  A    between atoms: N_4  and  C_5
REMARK    3  A    between atoms: C_5  and  C_6
REMARK    4  A    between atoms: C_6  and  C_7
REMARK                            x       y       z     vdW  Elec       q    Type
REMARK                         _______ _______ _______ _____ _____    ______ ____
ROOT
ATOM      1  C   UNL     1       4.445   3.718  18.265  0.00  0.00    +0.000 C 
ENDROOT
BRANCH   1   2
ATOM      2  C   UNL     1       3.145   3.536  17.442  0.00  0.00    +0.000 C 
ATOM      3  C   UNL     1       2.053   4.527  17.886  0.00  0.00    +0.000 C 
ATOM      4  C   UNL     1       1.449   4.144  19.237  0.00  0.00    +0.000 C 
ATOM      5  C   UNL     1       1.031   2.675  19.283  0.00  0.00    +0.000 C 
ATOM      6  N   UNL     1       2.095   1.769  18.841  0.00  0.00    +0.000 NA
ATOM      7  C   UNL     1       2.561   2.115  17.496  0.00  0.00    +0.000 C 
ATOM      8  H   UNL     1       1.726   0.817  18.828  0.00  0.00    +0.000 HD
ENDBRANCH   1   2
BRANCH   1   9
ATOM      9  C   UNL     1       5.535   4.484  17.512  0.00  0.00    +0.000 C 
BRANCH   9  13
ATOM     10  C   UNL     1       6.454   4.127  13.853  0.00  0.00    +0.000 C 
ATOM     11  C   UNL     1       6.539   4.655  15.260  0.00  0.00    +0.000 C 
ATOM     12  O   UNL     1       7.323   5.544  15.581  0.00  0.00    +0.000 OA
ATOM     13  N   UNL     1       5.651   4.064  16.127  0.00  0.00    +0.000 N 
ATOM     14  H   UNL     1       5.066   3.307  15.804  0.00  0.00    +0.000 HD
ENDBRANCH   9  13
ENDBRANCH   1   9
TORSDOF 3
ENDMDL
MODEL 4
REMARK VINA RESULT:      -5.5      3.522      5.165
REMARK  Name = 
REMARK  4 active torsions:
REMARK  status: ('A' for Active; 'I' for Inactive)
REMARK    1  A    between atoms: C_1  and  C_2
REMARK    2  A    between atoms: N_4  and  C_5
REMARK    3  A    between atoms: C_5  and  C_6
REMARK    4  A    between atoms: C_6  and  C_7
REMARK                            x       y       z     vdW  Elec       q    Type
REMARK                         _______ _______ _______ _____ _____    ______ ____
ROOT
ATOM      1  C   UNL     1       6.114   3.915  15.301  0.00  0.00    +0.000 C 
ENDROOT
BRANCH   1   2
ATOM      2  C   UNL     1       5.224   4.739  16.266  0.00  0.00    +0.000 C 
ATOM      3  C   UNL     1       5.722   6.192  16.390  0.00  0.00    +0.000 C 
ATOM      4  C   UNL     1       7.002   6.289  17.220  0.00  0.00    +0.000 C 
ATOM      5  C   UNL     1       6.883   5.542  18.549  0.00  0.00    +0.000 C 
ATOM      6  N   UNL     1       6.395   4.169  18.385  0.00  0.00    +0.000 NA
ATOM      7  C   UNL     1       5.112   4.144  17.679  0.00  0.00    +0.000 C 
ATOM      8  H   UNL     1       6.271   3.757  19.310  0.00  0.00    +0.000 HD
ENDBRANCH   1   2
BRANCH   1   9
ATOM      9  C   UNL     1       5.784   4.152  13.826  0.00  0.00    +0.000 C 
BRANCH   9  13
ATOM     10  C   UNL     1       6.206   1.488  11.164  0.00  0.00    +0.000 C 
ATOM     11  C   UNL     1       5.566   2.649  11.874  0.00  0.00    +0.000 C 
ATOM     12  O   UNL     1       4.502   3.140  11.506  0.00  0.00    +0.000 OA
ATOM     13  N   UNL     1       6.272   3.084  12.971  0.00  0.00    +0.000 N 
ATOM     14  H   UNL     1       7.164   2.663  13.190  0.00  0.00    +0.000 HD
ENDBRANCH   9  13
ENDBRANCH   1   9
TORSDOF 3
ENDMDL
MODEL 5
REMARK VINA RESULT:      -5.5      2.656      5.561
REMARK  Name = 
REMARK  4 active torsions:
REMARK  status: ('A' for Active; 'I' for Inactive)
REMARK    1  A    between atoms: C_1  and  C_2
REMARK    2  A    between atoms: N_4  and  C_5
REMARK    3  A    between atoms: C_5  and  C_6
REMARK    4  A    between atoms: C_6  and  C_7
REMARK                            x       y       z     vdW  Elec       q    Type
REMARK                         _______ _______ _______ _____ _____    ______ ____
ROOT
ATOM      1  C   UNL     1       3.637   4.335  17.307  0.00  0.00    +0.000 C 
ENDROOT
BRANCH   1   2
ATOM      2  C   UNL     1       4.594   5.520  17.593  0.00  0.00    +0.000 C 
ATOM      3  C   UNL     1       5.389   5.919  16.335  0.00  0.00    +0.000 C 
ATOM      4  C   UNL     1       6.479   4.901  16.000  0.00  0.00    +0.000 C 
ATOM      5  C   UNL     1       7.342   4.562  17.216  0.00  0.00    +0.000 C 
ATOM      6  N   UNL     1       6.545   4.200  18.392  0.00  0.00    +0.000 NA
ATOM      7  C   UNL     1       5.592   5.259  18.733  0.00  0.00    +0.000 C 
ATOM      8  H   UNL     1       7.178   4.058  19.180  0.00  0.00    +0.000 HD
ENDBRANCH   1   2
BRANCH   1   9
ATOM      9  C   UNL     1       2.227   4.552  17.860  0.00  0.00    +0.000 C 
BRANCH   9  13
ATOM     10  C   UNL     1       1.253   2.888  21.122  0.00  0.00    +0.000 C 
ATOM     11  C   UNL     1       1.292   3.106  19.634  0.00  0.00    +0.000 C 
ATOM     12  O   UNL     1       0.635   2.423  18.853  0.00  0.00    +0.000 OA
ATOM     13  N   UNL     1       2.108   4.143  19.248  0.00  0.00    +0.000 N 
ATOM     14  H   UNL     1       2.654   4.634  19.942  0.00  0.00    +0.000 HD
ENDBRANCH   9  13
ENDBRANCH   1   9
TORSDOF 3
ENDMDL
MODEL 6
REMARK VINA RESULT:      -5.4      2.570      5.398
REMARK  Name = 
REMARK  4 active torsions:
REMARK  status: ('A' for Active; 'I' for Inactive)
REMARK    1  A    between atoms: C_1  and  C_2
REMARK    2  A    between atoms: N_4  and  C_5
REMARK    3  A    between atoms: C_5  and  C_6
REMARK    4  A    between atoms: C_6  and  C_7
REMARK                            x       y       z     vdW  Elec       q    Type
REMARK                         _______ _______ _______ _____ _____    ______ ____
ROOT
ATOM      1  C   UNL     1       3.230   4.374  17.390  0.00  0.00    +0.000 C 
ENDROOT
BRANCH   1   2
ATOM      2  C   UNL     1       4.114   5.445  18.077  0.00  0.00    +0.000 C 
ATOM      3  C   UNL     1       4.935   6.244  17.047  0.00  0.00    +0.000 C 
ATOM      4  C   UNL     1       6.087   5.421  16.471  0.00  0.00    +0.000 C 
ATOM      5  C   UNL     1       6.919   4.752  17.565  0.00  0.00    +0.000 C 
ATOM      6  N   UNL     1       6.098   4.014  18.529  0.00  0.00    +0.000 NA
ATOM      7  C   UNL     1       5.080   4.878  19.131  0.00  0.00    +0.000 C 
ATOM      8  H   UNL     1       6.706   3.657  19.266  0.00  0.00    +0.000 HD
ENDBRANCH   1   2
BRANCH   1   9
ATOM      9  C   UNL     1       1.786   4.367  17.897  0.00  0.00    +0.000 C 
BRANCH   9  13
ATOM     10  C   UNL     1       1.347   2.814  21.326  0.00  0.00    +0.000 C 
ATOM     11  C   UNL     1       1.461   3.914  20.306  0.00  0.00    +0.000 C 
ATOM     12  O   UNL     1       1.450   5.102  20.617  0.00  0.00    +0.000 OA
ATOM     13  N   UNL     1       1.597   3.460  19.015  0.00  0.00    +0.000 N 
ATOM     14  H   UNL     1       1.552   2.468  18.827  0.00  0.00    +0.000 HD
ENDBRANCH   9  13
ENDBRANCH   1   9
TORSDOF 3
ENDMDL
MODEL 7
REMARK VINA RESULT:      -5.4      1.411      1.564
REMARK  Name = 
REMARK  4 active torsions:
REMARK  status: ('A' for Active; 'I' for Inactive)
REMARK    1  A    between atoms: C_1  and  C_2
REMARK    2  A    between atoms: N_4  and  C_5
REMARK    3  A    between atoms: C_5  and  C_6
REMARK    4  A    between atoms: C_6  and  C_7
REMARK                            x       y       z     vdW  Elec       q    Type
REMARK                         _______ _______ _______ _____ _____    ______ ____
ROOT
ATOM      1  C   UNL     1       3.774   5.162  19.435  0.00  0.00    +0.000 C 
ENDROOT
BRANCH   1   2
ATOM      2  C   UNL     1       3.074   3.860  18.969  0.00  0.00    +0.000 C 
ATOM      3  C   UNL     1       1.542   4.018  18.954  0.00  0.00    +0.000 C 
ATOM      4  C   UNL     1       0.953   4.028  20.364  0.00  0.00    +0.000 C 
ATOM      5  C   UNL     1       1.463   2.860  21.208  0.00  0.00    +0.000 C 
ATOM      6  N   UNL     1       2.924   2.740  21.185  0.00  0.00    +0.000 NA
ATOM      7  C   UNL     1       3.424   2.623  19.814  0.00  0.00    +0.000 C 
ATOM      8  H   UNL     1       3.188   1.903  21.705  0.00  0.00    +0.000 HD
ENDBRANCH   1   2
BRANCH   1   9
ATOM      9  C   UNL     1       5.287   5.147  19.211  0.00  0.00    +0.000 C 
BRANCH   9  13
ATOM     10  C   UNL     1       7.089   4.606  15.922  0.00  0.00    +0.000 C 
ATOM     11  C   UNL     1       6.914   4.656  17.415  0.00  0.00    +0.000 C 
ATOM     12  O   UNL     1       7.839   4.439  18.193  0.00  0.00    +0.000 OA
ATOM     13  N   UNL     1       5.639   4.984  17.812  0.00  0.00    +0.000 N 
ATOM     14  H   UNL     1       4.915   5.104  17.117  0.00  0.00    +0.000 HD
ENDBRANCH   9  13
ENDBRANCH   1   9
TORSDOF 3
ENDMDL
MODEL 8
REMARK VINA RESULT:      -5.4      2.101      2.797
REMARK  Name = 
REMARK  4 active torsions:
REMARK  status: ('A' for Active; 'I' for Inactive)
REMARK    1  A    between atoms: C_1  and  C_2
REMARK    2  A    between atoms: N_4  and  C_5
REMARK    3  A    between atoms: C_5  and  C_6
REMARK    4  A    between atoms: C_6  and  C_7
REMARK                            x       y       z     vdW  Elec       q    Type
REMARK                         _______ _______ _______ _____ _____    ______ ____
ROOT
ATOM      1  C   UNL     1       4.843   4.518  16.627  0.00  0.00    +0.000 C 
ENDROOT
BRANCH   1   2
ATOM      2  C   UNL     1       4.177   3.480  17.565  0.00  0.00    +0.000 C 
ATOM      3  C   UNL     1       2.664   3.368  17.298  0.00  0.00    +0.000 C 
ATOM      4  C   UNL     1       1.899   4.582  17.823  0.00  0.00    +0.000 C 
ATOM      5  C   UNL     1       2.266   4.910  19.270  0.00  0.00    +0.000 C 
ATOM      6  N   UNL     1       3.714   4.996  19.481  0.00  0.00    +0.000 NA
ATOM      7  C   UNL     1       4.385   3.763  19.062  0.00  0.00    +0.000 C 
ATOM      8  H   UNL     1       3.888   5.144  20.476  0.00  0.00    +0.000 HD
ENDBRANCH   1   2
BRANCH   1   9
ATOM      9  C   UNL     1       6.206   4.067  16.097  0.00  0.00    +0.000 C 
BRANCH   9  13
ATOM     10  C   UNL     1       6.420   3.553  12.349  0.00  0.00    +0.000 C 
ATOM     11  C   UNL     1       6.667   4.222  13.673  0.00  0.00    +0.000 C 
ATOM     12  O   UNL     1       7.279   5.283  13.769  0.00  0.00    +0.000 OA
ATOM     13  N   UNL     1       6.130   3.547  14.744  0.00  0.00    +0.000 N 
ATOM     14  H   UNL     1       5.678   2.655  14.596  0.00  0.00    +0.000 HD
ENDBRANCH   9  13
ENDBRANCH   1   9
TORSDOF 3
ENDMDL
MODEL 9
REMARK VINA RESULT:      -5.4      1.308      1.585
REMARK  Name = 
REMARK  4 active torsions:
REMARK  status: ('A' for Active; 'I' for Inactive)
REMARK    1  A    between atoms: C_1  and  C_2
REMARK    2  A    between atoms: N_4  and  C_5
REMARK    3  A    between atoms: C_5  and  C_6
REMARK    4  A    between atoms: C_6  and  C_7
REMARK                            x       y       z     vdW  Elec       q    Type
REMARK                         _______ _______ _______ _____ _____    ______ ____
ROOT
ATOM      1  C   UNL     1       4.253   3.632  17.504  0.00  0.00    +0.000 C 
ENDROOT
BRANCH   1   2
ATOM      2  C   UNL     1       2.724   3.463  17.323  0.00  0.00    +0.000 C 
ATOM      3  C   UNL     1       1.954   4.692  17.840  0.00  0.00    +0.000 C 
ATOM      4  C   UNL     1       1.934   4.754  19.368  0.00  0.00    +0.000 C 
ATOM      5  C   UNL     1       1.503   3.426  19.990  0.00  0.00    +0.000 C 
ATOM      6  N   UNL     1       2.252   2.283  19.461  0.00  0.00    +0.000 NA
ATOM      7  C   UNL     1       2.146   2.209  18.002  0.00  0.00    +0.000 C 
ATOM      8  H   UNL     1       1.865   1.428  19.863  0.00  0.00    +0.000 HD
ENDBRANCH   1   2
BRANCH   1   9
ATOM      9  C   UNL     1       4.916   4.396  16.356  0.00  0.00    +0.000 C 
BRANCH   9  13
ATOM     10  C   UNL     1       7.458   6.951  17.528  0.00  0.00    +0.000 C 
ATOM     11  C   UNL     1       6.958   5.640  16.985  0.00  0.00    +0.000 C 
ATOM     12  O   UNL     1       7.711   4.700  16.744  0.00  0.00    +0.000 OA
ATOM     13  N   UNL     1       5.595   5.597  16.809  0.00  0.00    +0.000 N 
ATOM     14  H   UNL     1       5.042   6.424  16.985  0.00  0.00    +0.000 HD
ENDBRANCH   9  13
ENDBRANCH   1   9
TORSDOF 3
ENDMDL
