MODEL 1
REMARK VINA RESULT:      -7.3      0.000      0.000
REMARK  Name = 
REMARK  1 active torsions:
REMARK  status: ('A' for Active; 'I' for Inactive)
REMARK    1  A    between atoms: C_8  and  O_9
REMARK                            x       y       z     vdW  Elec       q    Type
REMARK                         _______ _______ _______ _____ _____    ______ ____
ROOT
ATOM      1  O   UNL     1       2.160   3.282  22.313  0.00  0.00    +0.000 OA
ATOM      2  C   UNL     1       2.338   3.371  21.102  0.00  0.00    +0.000 C 
ATOM      3  C   UNL     1       2.035   4.668  20.403  0.00  0.00    +0.000 C 
ATOM      4  C   UNL     1       2.444   4.627  19.123  0.00  0.00    +0.000 C 
ATOM      5  C   UNL     1       3.853   4.765  18.696  0.00  0.00    +0.000 A 
ATOM      6  C   UNL     1       4.957   5.198  19.418  0.00  0.00    +0.000 A 
ATOM      7  C   UNL     1       6.215   5.122  18.813  0.00  0.00    +0.000 A 
ATOM      8  C   UNL     1       6.330   4.661  17.494  0.00  0.00    +0.000 A 
ATOM      9  C   UNL     1       5.221   4.234  16.773  0.00  0.00    +0.000 A 
ATOM     10  C   UNL     1       3.993   4.251  17.405  0.00  0.00    +0.000 A 
ATOM     11  C   UNL     1       2.695   3.718  16.891  0.00  0.00    +0.000 C 
ATOM     12  C   UNL     1       1.907   3.535  18.205  0.00  0.00    +0.000 C 
ATOM     13  C   UNL     1       2.153   2.152  18.887  0.00  0.00    +0.000 C 
ATOM     14  C   UNL     1       2.851   2.217  20.258  0.00  0.00    +0.000 C 
ENDROOT
BRANCH   8  15
ATOM     15  O   UNL     1       7.544   4.587  16.877  0.00  0.00    +0.000 OA
ATOM     16  H   UNL     1       8.166   5.170  17.346  0.00  0.00    +0.000 HD
ENDBRANCH   8  15
TORSDOF 1
ENDMDL
MODEL 2
REMARK VINA RESULT:      -7.2      2.015      3.344
REMARK  Name = 
REMARK  1 active torsions:
REMARK  status: ('A' for Active; 'I' for Inactive)
REMARK    1  A    between atoms: C_8  and  O_9
REMARK                            x       y       z     vdW  Elec       q    Type
REMARK                         _______ _______ _______ _____ _____    ______ ____
ROOT
ATOM      1  O   UNL     1       0.908   4.002  17.521  0.00  0.00    +0.000 OA
ATOM      2  C   UNL     1       2.060   4.290  17.830  0.00  0.00    +0.000 C 
ATOM      3  C   UNL     1       3.024   3.196  18.199  0.00  0.00    +0.000 C 
ATOM      4  C   UNL     1       4.268   3.685  18.344  0.00  0.00    +0.000 C 
ATOM      5  C   UNL     1       5.157   4.041  17.217  0.00  0.00    +0.000 A 
ATOM      6  C   UNL     1       5.040   3.734  15.868  0.00  0.00    +0.000 A 
ATOM      7  C   UNL     1       5.961   4.296  14.979  0.00  0.00    +0.000 A 
ATOM      8  C   UNL     1       6.995   5.107  15.465  0.00  0.00    +0.000 A 
ATOM      9  C   UNL     1       7.113   5.406  16.817  0.00  0.00    +0.000 A 
ATOM     10  C   UNL     1       6.158   4.900  17.676  0.00  0.00    +0.000 A 
ATOM     11  C   UNL     1       5.994   5.191  19.132  0.00  0.00    +0.000 C 
ATOM     12  C   UNL     1       4.517   4.803  19.350  0.00  0.00    +0.000 C 
ATOM     13  C   UNL     1       3.520   5.966  19.050  0.00  0.00    +0.000 C 
ATOM     14  C   UNL     1       2.570   5.721  17.863  0.00  0.00    +0.000 C 
ENDROOT
BRANCH   8  15
ATOM     15  O   UNL     1       7.914   5.659  14.620  0.00  0.00    +0.000 OA
ATOM     16  H   UNL     1       8.366   6.384  15.085  0.00  0.00    +0.000 HD
ENDBRANCH   8  15
TORSDOF 1
ENDMDL
MODEL 3
REMARK VINA RESULT:      -7.0      1.630      2.228
REMARK  Name = 
REMARK  1 active torsions:
REMARK  status: ('A' for Active; 'I' for Inactive)
REMARK    1  A    between atoms: C_8  and  O_9
REMARK                            x       y       z     vdW  Elec       q    Type
REMARK                         _______ _______ _______ _____ _____    ______ ____
ROOT
ATOM      1  O   UNL     1       2.248   1.834  19.497  0.00  0.00    +0.000 OA
ATOM      2  C   UNL     1       2.501   2.973  19.119  0.00  0.00    +0.000 C 
ATOM      3  C   UNL     1       3.097   3.959  20.086  0.00  0.00    +0.000 C 
ATOM      4  C   UNL     1       3.455   5.091  19.454  0.00  0.00    +0.000 C 
ATOM      5  C   UNL     1       4.667   5.228  18.619  0.00  0.00    +0.000 A 
ATOM      6  C   UNL     1       5.767   4.388  18.513  0.00  0.00    +0.000 A 
ATOM      7  C   UNL     1       6.737   4.687  17.552  0.00  0.00    +0.000 A 
ATOM      8  C   UNL     1       6.607   5.835  16.760  0.00  0.00    +0.000 A 
ATOM      9  C   UNL     1       5.507   6.678  16.874  0.00  0.00    +0.000 A 
ATOM     10  C   UNL     1       4.523   6.336  17.780  0.00  0.00    +0.000 A 
ATOM     11  C   UNL     1       3.199   6.998  17.982  0.00  0.00    +0.000 C 
ATOM     12  C   UNL     1       2.403   5.871  18.672  0.00  0.00    +0.000 C 
ATOM     13  C   UNL     1       1.711   4.897  17.668  0.00  0.00    +0.000 C 
ATOM     14  C   UNL     1       2.233   3.448  17.701  0.00  0.00    +0.000 C 
ENDROOT
BRANCH   8  15
ATOM     15  O   UNL     1       7.546   6.155  15.823  0.00  0.00    +0.000 OA
ATOM     16  H   UNL     1       7.964   5.335  15.510  0.00  0.00    +0.000 HD
ENDBRANCH   8  15
TORSDOF 1
ENDMDL
MODEL 4
REMARK VINA RESULT:      -7.0      1.146      4.784
REMARK  Name = 
REMARK  1 active torsions:
REMARK  status: ('A' for Active; 'I' for Inactive)
REMARK    1  A    between atoms: C_8  and  O_9
REMARK                            x       y       z     vdW  Elec       q    Type
REMARK                         _______ _______ _______ _____ _____    ______ ____
ROOT
ATOM      1  O   UNL     1       7.799   4.277  16.704  0.00  0.00    +0.000 OA
ATOM      2  C   UNL     1       6.687   4.652  17.062  0.00  0.00    +0.000 C 
ATOM      3  C   UNL     1       5.464   4.082  16.397  0.00  0.00    +0.000 C 
ATOM      4  C   UNL     1       4.346   4.483  17.029  0.00  0.00    +0.000 C 
ATOM      5  C   UNL     1       3.869   3.922  18.311  0.00  0.00    +0.000 A 
ATOM      6  C   UNL     1       4.271   2.771  18.975  0.00  0.00    +0.000 A 
ATOM      7  C   UNL     1       3.742   2.522  20.245  0.00  0.00    +0.000 A 
ATOM      8  C   UNL     1       2.798   3.400  20.794  0.00  0.00    +0.000 A 
ATOM      9  C   UNL     1       2.394   4.548  20.122  0.00  0.00    +0.000 A 
ATOM     10  C   UNL     1       2.973   4.817  18.898  0.00  0.00    +0.000 A 
ATOM     11  C   UNL     1       2.807   6.043  18.060  0.00  0.00    +0.000 C 
ATOM     12  C   UNL     1       4.070   5.975  17.177  0.00  0.00    +0.000 C 
ATOM     13  C   UNL     1       5.320   6.645  17.830  0.00  0.00    +0.000 C 
ATOM     14  C   UNL     1       6.478   5.684  18.158  0.00  0.00    +0.000 C 
ENDROOT
BRANCH   8  15
ATOM     15  O   UNL     1       2.258   3.174  22.027  0.00  0.00    +0.000 OA
ATOM     16  H   UNL     1       1.386   3.603  22.066  0.00  0.00    +0.000 HD
ENDBRANCH   8  15
TORSDOF 1
ENDMDL
MODEL 5
REMARK VINA RESULT:      -7.0      1.891      5.070
REMARK  Name = 
REMARK  1 active torsions:
REMARK  status: ('A' for Active; 'I' for Inactive)
REMARK    1  A    between atoms: C_8  and  O_9
REMARK                            x       y       z     vdW  Elec       q    Type
REMARK                         _______ _______ _______ _____ _____    ______ ____
ROOT
ATOM      1  O   UNL     1       8.538   4.008  17.802  0.00  0.00    +0.000 OA
ATOM      2  C   UNL     1       7.560   4.729  17.631  0.00  0.00    +0.000 C 
ATOM      3  C   UNL     1       6.445   4.264  16.735  0.00  0.00    +0.000 C 
ATOM      4  C   UNL     1       5.397   5.104  16.801  0.00  0.00    +0.000 C 
ATOM      5  C   UNL     1       4.435   5.144  17.923  0.00  0.00    +0.000 A 
ATOM      6  C   UNL     1       4.237   4.233  18.951  0.00  0.00    +0.000 A 
ATOM      7  C   UNL     1       3.334   4.565  19.965  0.00  0.00    +0.000 A 
ATOM      8  C   UNL     1       2.623   5.771  19.901  0.00  0.00    +0.000 A 
ATOM      9  C   UNL     1       2.819   6.678  18.865  0.00  0.00    +0.000 A 
ATOM     10  C   UNL     1       3.763   6.368  17.906  0.00  0.00    +0.000 A 
ATOM     11  C   UNL     1       4.245   7.234  16.788  0.00  0.00    +0.000 C 
ATOM     12  C   UNL     1       5.602   6.577  16.465  0.00  0.00    +0.000 C 
ATOM     13  C   UNL     1       6.778   7.123  17.335  0.00  0.00    +0.000 C 
ATOM     14  C   UNL     1       7.418   6.094  18.285  0.00  0.00    +0.000 C 
ENDROOT
BRANCH   8  15
ATOM     15  O   UNL     1       1.728   6.114  20.872  0.00  0.00    +0.000 OA
ATOM     16  H   UNL     1       1.673   5.385  21.514  0.00  0.00    +0.000 HD
ENDBRANCH   8  15
TORSDOF 1
ENDMDL
MODEL 6
REMARK VINA RESULT:      -6.9      2.750      3.646
REMARK  Name = 
REMARK  1 active torsions:
REMARK  status: ('A' for Active; 'I' for Inactive)
REMARK    1  A    between atoms: C_8  and  O_9
REMARK                            x       y       z     vdW  Elec       q    Type
REMARK                         _______ _______ _______ _____ _____    ______ ____
ROOT
ATOM      1  O   UNL     1       3.544   1.440  18.012  0.00  0.00    +0.000 OA
ATOM      2  C   UNL     1       3.116   2.431  18.595  0.00  0.00    +0.000 C 
ATOM      3  C   UNL     1       3.991   3.137  19.594  0.00  0.00    +0.000 C 
ATOM      4  C   UNL     1       3.420   4.285  20.002  0.00  0.00    +0.000 C 
ATOM      5  C   UNL     1       3.389   5.527  19.201  0.00  0.00    +0.000 A 
ATOM      6  C   UNL     1       4.106   5.862  18.061  0.00  0.00    +0.000 A 
ATOM      7  C   UNL     1       3.804   7.067  17.419  0.00  0.00    +0.000 A 
ATOM      8  C   UNL     1       2.831   7.920  17.956  0.00  0.00    +0.000 A 
ATOM      9  C   UNL     1       2.120   7.584  19.103  0.00  0.00    +0.000 A 
ATOM     10  C   UNL     1       2.381   6.362  19.689  0.00  0.00    +0.000 A 
ATOM     11  C   UNL     1       1.658   5.725  20.832  0.00  0.00    +0.000 C 
ATOM     12  C   UNL     1       2.033   4.242  20.633  0.00  0.00    +0.000 C 
ATOM     13  C   UNL     1       1.072   3.485  19.663  0.00  0.00    +0.000 C 
ATOM     14  C   UNL     1       1.722   2.989  18.358  0.00  0.00    +0.000 C 
ENDROOT
BRANCH   8  15
ATOM     15  O   UNL     1       2.525   9.106  17.355  0.00  0.00    +0.000 OA
ATOM     16  H   UNL     1       1.886   9.581  17.914  0.00  0.00    +0.000 HD
ENDBRANCH   8  15
TORSDOF 1
ENDMDL
MODEL 7
REMARK VINA RESULT:      -6.9      1.300      4.900
REMARK  Name = 
REMARK  1 active torsions:
REMARK  status: ('A' for Active; 'I' for Inactive)
REMARK    1  A    between atoms: C_8  and  O_9
REMARK                            x       y       z     vdW  Elec       q    Type
REMARK                         _______ _______ _______ _____ _____    ______ ____
ROOT
ATOM      1  O   UNL     1       7.955   4.154  16.623  0.00  0.00    +0.000 OA
ATOM      2  C   UNL     1       6.861   4.609  16.940  0.00  0.00    +0.000 C 
ATOM      3  C   UNL     1       5.732   4.584  15.946  0.00  0.00    +0.000 C 
ATOM      4  C   UNL     1       4.580   4.969  16.523  0.00  0.00    +0.000 C 
ATOM      5  C   UNL     1       3.770   4.111  17.414  0.00  0.00    +0.000 A 
ATOM      6  C   UNL     1       3.850   2.742  17.635  0.00  0.00    +0.000 A 
ATOM      7  C   UNL     1       3.038   2.185  18.627  0.00  0.00    +0.000 A 
ATOM      8  C   UNL     1       2.141   2.996  19.335  0.00  0.00    +0.000 A 
ATOM      9  C   UNL     1       2.059   4.364  19.105  0.00  0.00    +0.000 A 
ATOM     10  C   UNL     1       2.913   4.914  18.170  0.00  0.00    +0.000 A 
ATOM     11  C   UNL     1       3.108   6.361  17.851  0.00  0.00    +0.000 C 
ATOM     12  C   UNL     1       4.502   6.336  17.192  0.00  0.00    +0.000 C 
ATOM     13  C   UNL     1       5.674   6.451  18.217  0.00  0.00    +0.000 C 
ATOM     14  C   UNL     1       6.584   5.212  18.308  0.00  0.00    +0.000 C 
ENDROOT
BRANCH   8  15
ATOM     15  O   UNL     1       1.330   2.474  20.301  0.00  0.00    +0.000 OA
ATOM     16  H   UNL     1       1.876   1.956  20.917  0.00  0.00    +0.000 HD
ENDBRANCH   8  15
TORSDOF 1
ENDMDL
MODEL 8
REMARK VINA RESULT:      -6.8      1.680      1.875
REMARK  Name = 
REMARK  1 active torsions:
REMARK  status: ('A' for Active; 'I' for Inactive)
REMARK    1  A    between atoms: C_8  and  O_9
REMARK                            x       y       z     vdW  Elec       q    Type
REMARK                         _______ _______ _______ _____ _____    ______ ____
ROOT
ATOM      1  O   UNL     1       1.441   2.878  22.308  0.00  0.00    +0.000 OA
ATOM      2  C   UNL     1       1.805   2.919  21.137  0.00  0.00    +0.000 C 
ATOM      3  C   UNL     1       0.839   3.373  20.077  0.00  0.00    +0.000 C 
ATOM      4  C   UNL     1       1.460   3.509  18.892  0.00  0.00    +0.000 C 
ATOM      5  C   UNL     1       2.332   4.650  18.538  0.00  0.00    +0.000 A 
ATOM      6  C   UNL     1       2.491   5.872  19.177  0.00  0.00    +0.000 A 
ATOM      7  C   UNL     1       3.477   6.742  18.703  0.00  0.00    +0.000 A 
ATOM      8  C   UNL     1       4.242   6.390  17.583  0.00  0.00    +0.000 A 
ATOM      9  C   UNL     1       4.074   5.168  16.942  0.00  0.00    +0.000 A 
ATOM     10  C   UNL     1       3.143   4.289  17.460  0.00  0.00    +0.000 A 
ATOM     11  C   UNL     1       2.884   2.880  17.036  0.00  0.00    +0.000 C 
ATOM     12  C   UNL     1       2.190   2.313  18.292  0.00  0.00    +0.000 C 
ATOM     13  C   UNL     1       3.190   1.761  19.356  0.00  0.00    +0.000 C 
ATOM     14  C   UNL     1       3.204   2.523  20.694  0.00  0.00    +0.000 C 
ENDROOT
BRANCH   8  15
ATOM     15  O   UNL     1       5.203   7.226  17.094  0.00  0.00    +0.000 OA
ATOM     16  H   UNL     1       5.685   7.616  17.844  0.00  0.00    +0.000 HD
ENDBRANCH   8  15
TORSDOF 1
ENDMDL
MODEL 9
REMARK VINA RESULT:      -6.8      1.942      4.967
REMARK  Name = 
REMARK  1 active torsions:
REMARK  status: ('A' for Active; 'I' for Inactive)
REMARK    1  A    between atoms: C_8  and  O_9
REMARK                            x       y       z     vdW  Elec       q    Type
REMARK                         _______ _______ _______ _____ _____    ______ ____
ROOT
ATOM      1  O   UNL     1       5.072   7.094  15.034  0.00  0.00    +0.000 OA
ATOM      2  C   UNL     1       5.080   6.316  15.983  0.00  0.00    +0.000 C 
ATOM      3  C   UNL     1       4.715   6.818  17.354  0.00  0.00    +0.000 C 
ATOM      4  C   UNL     1       4.619   5.798  18.225  0.00  0.00    +0.000 C 
ATOM      5  C   UNL     1       3.469   4.871  18.295  0.00  0.00    +0.000 A 
ATOM      6  C   UNL     1       2.210   4.980  17.720  0.00  0.00    +0.000 A 
ATOM      7  C   UNL     1       1.332   3.899  17.841  0.00  0.00    +0.000 A 
ATOM      8  C   UNL     1       1.716   2.764  18.569  0.00  0.00    +0.000 A 
ATOM      9  C   UNL     1       2.975   2.663  19.150  0.00  0.00    +0.000 A 
ATOM     10  C   UNL     1       3.857   3.709  18.966  0.00  0.00    +0.000 A 
ATOM     11  C   UNL     1       5.295   3.773  19.369  0.00  0.00    +0.000 C 
ATOM     12  C   UNL     1       5.819   4.881  18.433  0.00  0.00    +0.000 C 
ATOM     13  C   UNL     1       6.280   4.348  17.040  0.00  0.00    +0.000 C 
ATOM     14  C   UNL     1       5.449   4.849  15.843  0.00  0.00    +0.000 C 
ENDROOT
BRANCH   8  15
ATOM     15  O   UNL     1       0.874   1.700  18.712  0.00  0.00    +0.000 OA
ATOM     16  H   UNL     1       0.023   1.921  18.295  0.00  0.00    +0.000 HD
ENDBRANCH   8  15
TORSDOF 1
ENDMDL
