MODEL 1
REMARK VINA RESULT:      -8.2      0.000      0.000
REMARK  Name = 
REMARK  7 active torsions:
REMARK  status: ('A' for Active; 'I' for Inactive)
REMARK    1  A    between atoms: C_1  and  C_2
REMARK    2  A    between atoms: C_2  and  C_3
REMARK    3  A    between atoms: C_3  and  C_4
REMARK    4  A    between atoms: C_4  and  C_5
REMARK    5  A    between atoms: N_7  and  C_8
REMARK    6  A    between atoms: N_12  and  C_13
REMARK    7  A    between atoms: C_16  and  C_17
REMARK                            x       y       z     vdW  Elec       q    Type
REMARK                         _______ _______ _______ _____ _____    ______ ____
ROOT
ATOM      1  C   UNL     1       3.543   5.777  18.568  0.00  0.00    +0.000 A 
ATOM      2  C   UNL     1       4.758   5.401  18.062  0.00  0.00    +0.000 A 
ATOM      3  C   UNL     1       5.215   6.515  17.344  0.00  0.00    +0.000 A 
ATOM      4  N   UNL     1       4.367   7.542  17.363  0.00  0.00    +0.000 NA
ATOM      5  N   UNL     1       3.370   7.117  18.200  0.00  0.00    +0.000 N 
ATOM      6  C   UNL     1       6.470   6.361  16.570  0.00  0.00    +0.000 C 
ATOM      7  S   UNL     1       6.655   4.541  16.546  0.00  0.00    +0.000 S 
ATOM      8  O   UNL     1       6.036   4.031  15.340  0.00  0.00    +0.000 OA
ATOM      9  O   UNL     1       8.015   4.190  16.914  0.00  0.00    +0.000 OA
ATOM     10  C   UNL     1       5.547   4.162  17.946  0.00  0.00    +0.000 C 
ENDROOT
BRANCH   5  11
ATOM     11  C   UNL     1       2.309   7.961  18.609  0.00  0.00    +0.000 A 
ATOM     12  C   UNL     1       1.898   7.976  19.943  0.00  0.00    +0.000 A 
ATOM     13  C   UNL     1       0.939   8.907  20.353  0.00  0.00    +0.000 A 
ATOM     14  C   UNL     1       0.349   9.783  19.431  0.00  0.00    +0.000 A 
ATOM     15  C   UNL     1      -0.692  10.775  19.861  0.00  0.00    +0.000 C 
ATOM     16  C   UNL     1       0.721   9.717  18.087  0.00  0.00    +0.000 A 
ATOM     17  C   UNL     1       1.696   8.815  17.679  0.00  0.00    +0.000 A 
ENDBRANCH   5  11
BRANCH   1  20
ATOM     18  C   UNL     1       1.812   4.061  18.405  0.00  0.00    +0.000 C 
ATOM     19  O   UNL     1       1.924   4.063  17.188  0.00  0.00    +0.000 OA
ATOM     20  N   UNL     1       2.625   4.941  19.194  0.00  0.00    +0.000 N 
ATOM     21  H   UNL     1       2.688   4.827  20.200  0.00  0.00    +0.000 HD
BRANCH  18  22
ATOM     22  C   UNL     1       0.933   3.120  19.178  0.00  0.00    +0.000 C 
BRANCH  22  23
ATOM     23  C   UNL     1       0.857   3.563  20.631  0.00  0.00    +0.000 C 
BRANCH  23  25
ATOM     24  C   UNL     1       2.914   2.469  21.546  0.00  0.00    +0.000 C 
ATOM     25  C   UNL     1       1.394   2.503  21.585  0.00  0.00    +0.000 C 
ENDBRANCH  23  25
ENDBRANCH  22  23
ENDBRANCH  18  22
ENDBRANCH   1  20
TORSDOF 5
ENDMDL
MODEL 2
REMARK VINA RESULT:      -7.9      3.389      5.875
REMARK  Name = 
REMARK  7 active torsions:
REMARK  status: ('A' for Active; 'I' for Inactive)
REMARK    1  A    between atoms: C_1  and  C_2
REMARK    2  A    between atoms: C_2  and  C_3
REMARK    3  A    between atoms: C_3  and  C_4
REMARK    4  A    between atoms: C_4  and  C_5
REMARK    5  A    between atoms: N_7  and  C_8
REMARK    6  A    between atoms: N_12  and  C_13
REMARK    7  A    between atoms: C_16  and  C_17
REMARK                            x       y       z     vdW  Elec       q    Type
REMARK                         _______ _______ _______ _____ _____    ______ ____
ROOT
ATOM      1  C   UNL     1       2.313   6.998  19.732  0.00  0.00    +0.000 A 
ATOM      2  C   UNL     1       1.475   8.044  20.008  0.00  0.00    +0.000 A 
ATOM      3  C   UNL     1       1.615   8.920  18.923  0.00  0.00    +0.000 A 
ATOM      4  N   UNL     1       2.483   8.494  18.006  0.00  0.00    +0.000 NA
ATOM      5  N   UNL     1       2.848   7.257  18.464  0.00  0.00    +0.000 N 
ATOM      6  C   UNL     1       0.911  10.223  19.001  0.00  0.00    +0.000 C 
ATOM      7  S   UNL     1       0.490  10.296  20.779  0.00  0.00    +0.000 S 
ATOM      8  O   UNL     1       1.544  11.005  21.474  0.00  0.00    +0.000 OA
ATOM      9  O   UNL     1      -0.906  10.665  20.929  0.00  0.00    +0.000 OA
ATOM     10  C   UNL     1       0.674   8.518  21.150  0.00  0.00    +0.000 C 
ENDROOT
BRANCH   5  11
ATOM     11  C   UNL     1       3.675   6.383  17.716  0.00  0.00    +0.000 A 
ATOM     12  C   UNL     1       3.324   5.039  17.568  0.00  0.00    +0.000 A 
ATOM     13  C   UNL     1       4.081   4.224  16.721  0.00  0.00    +0.000 A 
ATOM     14  C   UNL     1       5.215   4.725  16.068  0.00  0.00    +0.000 A 
ATOM     15  C   UNL     1       6.042   3.852  15.170  0.00  0.00    +0.000 C 
ATOM     16  C   UNL     1       5.595   6.052  16.273  0.00  0.00    +0.000 A 
ATOM     17  C   UNL     1       4.829   6.877  17.089  0.00  0.00    +0.000 A 
ENDBRANCH   5  11
BRANCH   1  20
ATOM     18  C   UNL     1       1.763   4.862  20.781  0.00  0.00    +0.000 C 
ATOM     19  O   UNL     1       0.704   4.834  20.171  0.00  0.00    +0.000 OA
ATOM     20  N   UNL     1       2.655   5.972  20.606  0.00  0.00    +0.000 N 
ATOM     21  H   UNL     1       3.609   5.929  20.948  0.00  0.00    +0.000 HD
BRANCH  18  22
ATOM     22  C   UNL     1       2.269   3.753  21.658  0.00  0.00    +0.000 C 
BRANCH  22  23
ATOM     23  C   UNL     1       2.011   2.411  20.991  0.00  0.00    +0.000 C 
BRANCH  23  25
ATOM     24  C   UNL     1       4.319   2.294  20.028  0.00  0.00    +0.000 C 
ATOM     25  C   UNL     1       2.831   2.233  19.718  0.00  0.00    +0.000 C 
ENDBRANCH  23  25
ENDBRANCH  22  23
ENDBRANCH  18  22
ENDBRANCH   1  20
TORSDOF 5
ENDMDL
MODEL 3
REMARK VINA RESULT:      -7.9      3.418      5.927
REMARK  Name = 
REMARK  7 active torsions:
REMARK  status: ('A' for Active; 'I' for Inactive)
REMARK    1  A    between atoms: C_1  and  C_2
REMARK    2  A    between atoms: C_2  and  C_3
REMARK    3  A    between atoms: C_3  and  C_4
REMARK    4  A    between atoms: C_4  and  C_5
REMARK    5  A    between atoms: N_7  and  C_8
REMARK    6  A    between atoms: N_12  and  C_13
REMARK    7  A    between atoms: C_16  and  C_17
REMARK                            x       y       z     vdW  Elec       q    Type
REMARK                         _______ _______ _______ _____ _____    ______ ____
ROOT
ATOM      1  C   UNL     1       2.246   7.042  19.772  0.00  0.00    +0.000 A 
ATOM      2  C   UNL     1       1.419   8.080  20.105  0.00  0.00    +0.000 A 
ATOM      3  C   UNL     1       1.508   8.977  19.031  0.00  0.00    +0.000 A 
ATOM      4  N   UNL     1       2.334   8.570  18.069  0.00  0.00    +0.000 NA
ATOM      5  N   UNL     1       2.722   7.325  18.487  0.00  0.00    +0.000 N 
ATOM      6  C   UNL     1       0.806  10.276  19.165  0.00  0.00    +0.000 C 
ATOM      7  S   UNL     1       0.466  10.315  20.962  0.00  0.00    +0.000 S 
ATOM      8  O   UNL     1       1.550  11.014  21.621  0.00  0.00    +0.000 OA
ATOM      9  O   UNL     1      -0.922  10.678  21.182  0.00  0.00    +0.000 OA
ATOM     10  C   UNL     1       0.670   8.531  21.292  0.00  0.00    +0.000 C 
ENDROOT
BRANCH   5  11
ATOM     11  C   UNL     1       3.515   6.467  17.686  0.00  0.00    +0.000 A 
ATOM     12  C   UNL     1       4.639   6.965  17.023  0.00  0.00    +0.000 A 
ATOM     13  C   UNL     1       5.481   6.079  16.344  0.00  0.00    +0.000 A 
ATOM     14  C   UNL     1       5.179   4.712  16.275  0.00  0.00    +0.000 A 
ATOM     15  C   UNL     1       6.070   3.758  15.536  0.00  0.00    +0.000 C 
ATOM     16  C   UNL     1       4.019   4.234  16.887  0.00  0.00    +0.000 A 
ATOM     17  C   UNL     1       3.194   5.104  17.590  0.00  0.00    +0.000 A 
ENDBRANCH   5  11
BRANCH   1  20
ATOM     18  C   UNL     1       1.752   4.882  20.800  0.00  0.00    +0.000 C 
ATOM     19  O   UNL     1       0.669   4.859  20.233  0.00  0.00    +0.000 OA
ATOM     20  N   UNL     1       2.629   6.001  20.611  0.00  0.00    +0.000 N 
ATOM     21  H   UNL     1       3.597   5.958  20.913  0.00  0.00    +0.000 HD
BRANCH  18  22
ATOM     22  C   UNL     1       2.300   3.759  21.633  0.00  0.00    +0.000 C 
BRANCH  22  23
ATOM     23  C   UNL     1       1.964   2.425  20.984  0.00  0.00    +0.000 C 
BRANCH  23  25
ATOM     24  C   UNL     1       4.284   2.296  20.052  0.00  0.00    +0.000 C 
ATOM     25  C   UNL     1       2.802   2.165  19.737  0.00  0.00    +0.000 C 
ENDBRANCH  23  25
ENDBRANCH  22  23
ENDBRANCH  18  22
ENDBRANCH   1  20
TORSDOF 5
ENDMDL
MODEL 4
REMARK VINA RESULT:      -7.8      0.178      1.004
REMARK  Name = 
REMARK  7 active torsions:
REMARK  status: ('A' for Active; 'I' for Inactive)
REMARK    1  A    between atoms: C_1  and  C_2
REMARK    2  A    between atoms: C_2  and  C_3
REMARK    3  A    between atoms: C_3  and  C_4
REMARK    4  A    between atoms: C_4  and  C_5
REMARK    5  A    between atoms: N_7  and  C_8
REMARK    6  A    between atoms: N_12  and  C_13
REMARK    7  A    between atoms: C_16  and  C_17
REMARK                            x       y       z     vdW  Elec       q    Type
REMARK                         _______ _______ _______ _____ _____    ______ ____
ROOT
ATOM      1  C   UNL     1       3.533   5.848  18.484  0.00  0.00    +0.000 A 
ATOM      2  C   UNL     1       4.714   5.432  17.933  0.00  0.00    +0.000 A 
ATOM      3  C   UNL     1       5.169   6.522  17.178  0.00  0.00    +0.000 A 
ATOM      4  N   UNL     1       4.351   7.573  17.218  0.00  0.00    +0.000 NA
ATOM      5  N   UNL     1       3.380   7.187  18.104  0.00  0.00    +0.000 N 
ATOM      6  C   UNL     1       6.385   6.323  16.353  0.00  0.00    +0.000 C 
ATOM      7  S   UNL     1       6.519   4.498  16.348  0.00  0.00    +0.000 S 
ATOM      8  O   UNL     1       5.834   3.988  15.179  0.00  0.00    +0.000 OA
ATOM      9  O   UNL     1       7.883   4.114  16.663  0.00  0.00    +0.000 OA
ATOM     10  C   UNL     1       5.463   4.169  17.801  0.00  0.00    +0.000 C 
ENDROOT
BRANCH   5  11
ATOM     11  C   UNL     1       2.362   8.066  18.545  0.00  0.00    +0.000 A 
ATOM     12  C   UNL     1       1.726   8.917  17.639  0.00  0.00    +0.000 A 
ATOM     13  C   UNL     1       0.638   9.683  18.067  0.00  0.00    +0.000 A 
ATOM     14  C   UNL     1       0.216   9.647  19.403  0.00  0.00    +0.000 A 
ATOM     15  C   UNL     1      -0.942  10.477  19.873  0.00  0.00    +0.000 C 
ATOM     16  C   UNL     1       0.898   8.841  20.316  0.00  0.00    +0.000 A 
ATOM     17  C   UNL     1       1.962   8.054  19.891  0.00  0.00    +0.000 A 
ENDBRANCH   5  11
BRANCH   1  20
ATOM     18  C   UNL     1       1.757   4.172  18.423  0.00  0.00    +0.000 C 
ATOM     19  O   UNL     1       1.821   4.148  17.202  0.00  0.00    +0.000 OA
ATOM     20  N   UNL     1       2.620   5.047  19.162  0.00  0.00    +0.000 N 
ATOM     21  H   UNL     1       2.720   4.950  20.167  0.00  0.00    +0.000 HD
BRANCH  18  22
ATOM     22  C   UNL     1       0.887   3.268  19.247  0.00  0.00    +0.000 C 
BRANCH  22  23
ATOM     23  C   UNL     1       0.919   3.708  20.703  0.00  0.00    +0.000 C 
BRANCH  23  25
ATOM     24  C   UNL     1       2.902   2.415  21.518  0.00  0.00    +0.000 C 
ATOM     25  C   UNL     1       1.396   2.596  21.631  0.00  0.00    +0.000 C 
ENDBRANCH  23  25
ENDBRANCH  22  23
ENDBRANCH  18  22
ENDBRANCH   1  20
TORSDOF 5
ENDMDL
MODEL 5
REMARK VINA RESULT:      -7.8      1.131      1.342
REMARK  Name = 
REMARK  7 active torsions:
REMARK  status: ('A' for Active; 'I' for Inactive)
REMARK    1  A    between atoms: C_1  and  C_2
REMARK    2  A    between atoms: C_2  and  C_3
REMARK    3  A    between atoms: C_3  and  C_4
REMARK    4  A    between atoms: C_4  and  C_5
REMARK    5  A    between atoms: N_7  and  C_8
REMARK    6  A    between atoms: N_12  and  C_13
REMARK    7  A    between atoms: C_16  and  C_17
REMARK                            x       y       z     vdW  Elec       q    Type
REMARK                         _______ _______ _______ _____ _____    ______ ____
ROOT
ATOM      1  C   UNL     1       3.282   5.934  18.165  0.00  0.00    +0.000 A 
ATOM      2  C   UNL     1       4.536   5.574  17.751  0.00  0.00    +0.000 A 
ATOM      3  C   UNL     1       5.164   6.777  17.400  0.00  0.00    +0.000 A 
ATOM      4  N   UNL     1       4.386   7.847  17.560  0.00  0.00    +0.000 NA
ATOM      5  N   UNL     1       3.249   7.333  18.123  0.00  0.00    +0.000 N 
ATOM      6  C   UNL     1       6.512   6.692  16.788  0.00  0.00    +0.000 C 
ATOM      7  S   UNL     1       6.589   4.921  16.338  0.00  0.00    +0.000 S 
ATOM      8  O   UNL     1       6.133   4.773  14.971  0.00  0.00    +0.000 OA
ATOM      9  O   UNL     1       7.852   4.364  16.786  0.00  0.00    +0.000 OA
ATOM     10  C   UNL     1       5.257   4.328  17.437  0.00  0.00    +0.000 C 
ENDROOT
BRANCH   5  11
ATOM     11  C   UNL     1       2.190   8.153  18.582  0.00  0.00    +0.000 A 
ATOM     12  C   UNL     1       1.852   8.172  19.937  0.00  0.00    +0.000 A 
ATOM     13  C   UNL     1       0.893   9.082  20.391  0.00  0.00    +0.000 A 
ATOM     14  C   UNL     1       0.230   9.932  19.496  0.00  0.00    +0.000 A 
ATOM     15  C   UNL     1      -0.811  10.902  19.974  0.00  0.00    +0.000 C 
ATOM     16  C   UNL     1       0.529   9.862  18.134  0.00  0.00    +0.000 A 
ATOM     17  C   UNL     1       1.504   8.981  17.680  0.00  0.00    +0.000 A 
ENDBRANCH   5  11
BRANCH   1  20
ATOM     18  C   UNL     1       2.036   4.576  19.769  0.00  0.00    +0.000 C 
ATOM     19  O   UNL     1       2.806   4.917  20.656  0.00  0.00    +0.000 OA
ATOM     20  N   UNL     1       2.230   5.065  18.434  0.00  0.00    +0.000 N 
ATOM     21  H   UNL     1       1.508   4.953  17.731  0.00  0.00    +0.000 HD
BRANCH  18  22
ATOM     22  C   UNL     1       0.810   3.736  19.982  0.00  0.00    +0.000 C 
BRANCH  22  23
ATOM     23  C   UNL     1       0.851   2.523  19.064  0.00  0.00    +0.000 C 
BRANCH  23  25
ATOM     24  C   UNL     1       2.953   1.664  18.011  0.00  0.00    +0.000 C 
ATOM     25  C   UNL     1       2.107   1.685  19.274  0.00  0.00    +0.000 C 
ENDBRANCH  23  25
ENDBRANCH  22  23
ENDBRANCH  18  22
ENDBRANCH   1  20
TORSDOF 5
ENDMDL
MODEL 6
REMARK VINA RESULT:      -7.6      0.841      1.404
REMARK  Name = 
REMARK  7 active torsions:
REMARK  status: ('A' for Active; 'I' for Inactive)
REMARK    1  A    between atoms: C_1  and  C_2
REMARK    2  A    between atoms: C_2  and  C_3
REMARK    3  A    between atoms: C_3  and  C_4
REMARK    4  A    between atoms: C_4  and  C_5
REMARK    5  A    between atoms: N_7  and  C_8
REMARK    6  A    between atoms: N_12  and  C_13
REMARK    7  A    between atoms: C_16  and  C_17
REMARK                            x       y       z     vdW  Elec       q    Type
REMARK                         _______ _______ _______ _____ _____    ______ ____
ROOT
ATOM      1  C   UNL     1       3.661   5.995  18.830  0.00  0.00    +0.000 A 
ATOM      2  C   UNL     1       4.834   5.559  18.277  0.00  0.00    +0.000 A 
ATOM      3  C   UNL     1       5.184   6.543  17.342  0.00  0.00    +0.000 A 
ATOM      4  N   UNL     1       4.309   7.545  17.274  0.00  0.00    +0.000 NA
ATOM      5  N   UNL     1       3.411   7.251  18.264  0.00  0.00    +0.000 N 
ATOM      6  C   UNL     1       6.365   6.281  16.484  0.00  0.00    +0.000 C 
ATOM      7  S   UNL     1       6.605   4.487  16.744  0.00  0.00    +0.000 S 
ATOM      8  O   UNL     1       5.892   3.770  15.707  0.00  0.00    +0.000 OA
ATOM      9  O   UNL     1       8.004   4.224  17.029  0.00  0.00    +0.000 OA
ATOM     10  C   UNL     1       5.648   4.331  18.291  0.00  0.00    +0.000 C 
ENDROOT
BRANCH   5  11
ATOM     11  C   UNL     1       2.366   8.135  18.630  0.00  0.00    +0.000 A 
ATOM     12  C   UNL     1       1.746   8.928  17.663  0.00  0.00    +0.000 A 
ATOM     13  C   UNL     1       0.634   9.697  18.019  0.00  0.00    +0.000 A 
ATOM     14  C   UNL     1       0.173   9.723  19.342  0.00  0.00    +0.000 A 
ATOM     15  C   UNL     1      -1.011  10.558  19.735  0.00  0.00    +0.000 C 
ATOM     16  C   UNL     1       0.840   8.977  20.316  0.00  0.00    +0.000 A 
ATOM     17  C   UNL     1       1.927   8.186  19.962  0.00  0.00    +0.000 A 
ENDBRANCH   5  11
BRANCH   1  20
ATOM     18  C   UNL     1       1.692   4.583  19.135  0.00  0.00    +0.000 C 
ATOM     19  O   UNL     1       1.447   4.665  17.940  0.00  0.00    +0.000 OA
ATOM     20  N   UNL     1       2.834   5.263  19.674  0.00  0.00    +0.000 N 
ATOM     21  H   UNL     1       3.163   5.060  20.613  0.00  0.00    +0.000 HD
BRANCH  18  22
ATOM     22  C   UNL     1       0.926   3.728  20.104  0.00  0.00    +0.000 C 
BRANCH  22  23
ATOM     23  C   UNL     1       1.627   2.390  20.276  0.00  0.00    +0.000 C 
BRANCH  23  25
ATOM     24  C   UNL     1       3.345   1.555  18.658  0.00  0.00    +0.000 C 
ATOM     25  C   UNL     1       1.857   1.684  18.944  0.00  0.00    +0.000 C 
ENDBRANCH  23  25
ENDBRANCH  22  23
ENDBRANCH  18  22
ENDBRANCH   1  20
TORSDOF 5
ENDMDL
MODEL 7
REMARK VINA RESULT:      -7.5      2.378      4.944
REMARK  Name = 
REMARK  7 active torsions:
REMARK  status: ('A' for Active; 'I' for Inactive)
REMARK    1  A    between atoms: C_1  and  C_2
REMARK    2  A    between atoms: C_2  and  C_3
REMARK    3  A    between atoms: C_3  and  C_4
REMARK    4  A    between atoms: C_4  and  C_5
REMARK    5  A    between atoms: N_7  and  C_8
REMARK    6  A    between atoms: N_12  and  C_13
REMARK    7  A    between atoms: C_16  and  C_17
REMARK                            x       y       z     vdW  Elec       q    Type
REMARK                         _______ _______ _______ _____ _____    ______ ____
ROOT
ATOM      1  C   UNL     1       3.645   5.811  18.225  0.00  0.00    +0.000 A 
ATOM      2  C   UNL     1       3.619   4.452  18.379  0.00  0.00    +0.000 A 
ATOM      3  C   UNL     1       2.598   4.209  19.308  0.00  0.00    +0.000 A 
ATOM      4  N   UNL     1       2.002   5.318  19.743  0.00  0.00    +0.000 NA
ATOM      5  N   UNL     1       2.591   6.307  19.001  0.00  0.00    +0.000 N 
ATOM      6  C   UNL     1       2.415   2.813  19.773  0.00  0.00    +0.000 C 
ATOM      7  S   UNL     1       3.979   2.043  19.220  0.00  0.00    +0.000 S 
ATOM      8  O   UNL     1       4.936   2.111  20.304  0.00  0.00    +0.000 OA
ATOM      9  O   UNL     1       3.687   0.796  18.536  0.00  0.00    +0.000 OA
ATOM     10  C   UNL     1       4.449   3.300  17.981  0.00  0.00    +0.000 C 
ENDROOT
BRANCH   5  11
ATOM     11  C   UNL     1       2.158   7.655  19.052  0.00  0.00    +0.000 A 
ATOM     12  C   UNL     1       2.240   8.462  17.916  0.00  0.00    +0.000 A 
ATOM     13  C   UNL     1       1.690   9.747  17.948  0.00  0.00    +0.000 A 
ATOM     14  C   UNL     1       1.111  10.251  19.121  0.00  0.00    +0.000 A 
ATOM     15  C   UNL     1       0.532  11.635  19.168  0.00  0.00    +0.000 C 
ATOM     16  C   UNL     1       1.091   9.460  20.271  0.00  0.00    +0.000 A 
ATOM     17  C   UNL     1       1.609   8.169  20.237  0.00  0.00    +0.000 A 
ENDBRANCH   5  11
BRANCH   1  20
ATOM     18  C   UNL     1       5.963   6.558  18.036  0.00  0.00    +0.000 C 
ATOM     19  O   UNL     1       6.244   5.947  19.058  0.00  0.00    +0.000 OA
ATOM     20  N   UNL     1       4.616   6.538  17.545  0.00  0.00    +0.000 N 
ATOM     21  H   UNL     1       4.399   6.873  16.612  0.00  0.00    +0.000 HD
BRANCH  18  22
ATOM     22  C   UNL     1       6.960   7.276  17.173  0.00  0.00    +0.000 C 
BRANCH  22  23
ATOM     23  C   UNL     1       8.098   7.806  18.033  0.00  0.00    +0.000 C 
BRANCH  23  25
ATOM     24  C   UNL     1       9.092   9.850  19.082  0.00  0.00    +0.000 C 
ATOM     25  C   UNL     1       8.224   9.323  17.950  0.00  0.00    +0.000 C 
ENDBRANCH  23  25
ENDBRANCH  22  23
ENDBRANCH  18  22
ENDBRANCH   1  20
TORSDOF 5
ENDMDL
MODEL 8
REMARK VINA RESULT:      -7.2      1.070      1.161
REMARK  Name = 
REMARK  7 active torsions:
REMARK  status: ('A' for Active; 'I' for Inactive)
REMARK    1  A    between atoms: C_1  and  C_2
REMARK    2  A    between atoms: C_2  and  C_3
REMARK    3  A    between atoms: C_3  and  C_4
REMARK    4  A    between atoms: C_4  and  C_5
REMARK    5  A    between atoms: N_7  and  C_8
REMARK    6  A    between atoms: N_12  and  C_13
REMARK    7  A    between atoms: C_16  and  C_17
REMARK                            x       y       z     vdW  Elec       q    Type
REMARK                         _______ _______ _______ _____ _____    ______ ____
ROOT
ATOM      1  C   UNL     1       3.527   5.566  17.743  0.00  0.00    +0.000 A 
ATOM      2  C   UNL     1       4.753   5.308  17.194  0.00  0.00    +0.000 A 
ATOM      3  C   UNL     1       5.406   6.549  17.160  0.00  0.00    +0.000 A 
ATOM      4  N   UNL     1       4.668   7.549  17.638  0.00  0.00    +0.000 NA
ATOM      5  N   UNL     1       3.535   6.924  18.086  0.00  0.00    +0.000 N 
ATOM      6  C   UNL     1       6.728   6.607  16.492  0.00  0.00    +0.000 C 
ATOM      7  S   UNL     1       6.734   5.027  15.571  0.00  0.00    +0.000 S 
ATOM      8  O   UNL     1       6.227   5.268  14.237  0.00  0.00    +0.000 OA
ATOM      9  O   UNL     1       7.995   4.342  15.797  0.00  0.00    +0.000 OA
ATOM     10  C   UNL     1       5.424   4.182  16.522  0.00  0.00    +0.000 C 
ENDROOT
BRANCH   5  11
ATOM     11  C   UNL     1       2.519   7.608  18.796  0.00  0.00    +0.000 A 
ATOM     12  C   UNL     1       2.167   7.203  20.085  0.00  0.00    +0.000 A 
ATOM     13  C   UNL     1       1.255   7.967  20.819  0.00  0.00    +0.000 A 
ATOM     14  C   UNL     1       0.652   9.100  20.255  0.00  0.00    +0.000 A 
ATOM     15  C   UNL     1      -0.339   9.918  21.031  0.00  0.00    +0.000 C 
ATOM     16  C   UNL     1       0.961   9.461  18.943  0.00  0.00    +0.000 A 
ATOM     17  C   UNL     1       1.890   8.723  18.219  0.00  0.00    +0.000 A 
ENDBRANCH   5  11
BRANCH   1  20
ATOM     18  C   UNL     1       2.606   3.440  18.517  0.00  0.00    +0.000 C 
ATOM     19  O   UNL     1       3.675   3.169  19.045  0.00  0.00    +0.000 OA
ATOM     20  N   UNL     1       2.458   4.679  17.809  0.00  0.00    +0.000 N 
ATOM     21  H   UNL     1       1.541   5.010  17.529  0.00  0.00    +0.000 HD
BRANCH  18  22
ATOM     22  C   UNL     1       1.365   2.601  18.627  0.00  0.00    +0.000 C 
BRANCH  22  23
ATOM     23  C   UNL     1       0.412   3.222  19.637  0.00  0.00    +0.000 C 
BRANCH  23  25
ATOM     24  C   UNL     1       1.512   2.504  21.768  0.00  0.00    +0.000 C 
ATOM     25  C   UNL     1       1.133   3.691  20.896  0.00  0.00    +0.000 C 
ENDBRANCH  23  25
ENDBRANCH  22  23
ENDBRANCH  18  22
ENDBRANCH   1  20
TORSDOF 5
ENDMDL
MODEL 9
REMARK VINA RESULT:      -7.2      2.738      6.579
REMARK  Name = 
REMARK  7 active torsions:
REMARK  status: ('A' for Active; 'I' for Inactive)
REMARK    1  A    between atoms: C_1  and  C_2
REMARK    2  A    between atoms: C_2  and  C_3
REMARK    3  A    between atoms: C_3  and  C_4
REMARK    4  A    between atoms: C_4  and  C_5
REMARK    5  A    between atoms: N_7  and  C_8
REMARK    6  A    between atoms: N_12  and  C_13
REMARK    7  A    between atoms: C_16  and  C_17
REMARK                            x       y       z     vdW  Elec       q    Type
REMARK                         _______ _______ _______ _____ _____    ______ ____
ROOT
ATOM      1  C   UNL     1       4.025   4.975  18.486  0.00  0.00    +0.000 A 
ATOM      2  C   UNL     1       3.396   4.307  19.501  0.00  0.00    +0.000 A 
ATOM      3  C   UNL     1       3.486   2.951  19.157  0.00  0.00    +0.000 A 
ATOM      4  N   UNL     1       4.115   2.738  18.002  0.00  0.00    +0.000 NA
ATOM      5  N   UNL     1       4.531   3.989  17.630  0.00  0.00    +0.000 N 
ATOM      6  C   UNL     1       2.774   1.978  20.019  0.00  0.00    +0.000 C 
ATOM      7  S   UNL     1       1.667   3.083  20.967  0.00  0.00    +0.000 S 
ATOM      8  O   UNL     1       0.395   3.162  20.280  0.00  0.00    +0.000 OA
ATOM      9  O   UNL     1       1.753   2.756  22.379  0.00  0.00    +0.000 OA
ATOM     10  C   UNL     1       2.562   4.646  20.668  0.00  0.00    +0.000 C 
ENDROOT
BRANCH   5  11
ATOM     11  C   UNL     1       5.363   4.211  16.506  0.00  0.00    +0.000 A 
ATOM     12  C   UNL     1       4.862   4.034  15.215  0.00  0.00    +0.000 A 
ATOM     13  C   UNL     1       5.657   4.381  14.119  0.00  0.00    +0.000 A 
ATOM     14  C   UNL     1       6.965   4.850  14.300  0.00  0.00    +0.000 A 
ATOM     15  C   UNL     1       7.829   5.211  13.128  0.00  0.00    +0.000 C 
ATOM     16  C   UNL     1       7.480   4.963  15.593  0.00  0.00    +0.000 A 
ATOM     17  C   UNL     1       6.684   4.648  16.689  0.00  0.00    +0.000 A 
ENDBRANCH   5  11
BRANCH   1  20
ATOM     18  C   UNL     1       2.819   7.015  17.891  0.00  0.00    +0.000 C 
ATOM     19  O   UNL     1       1.802   6.361  17.710  0.00  0.00    +0.000 OA
ATOM     20  N   UNL     1       4.027   6.352  18.292  0.00  0.00    +0.000 N 
ATOM     21  H   UNL     1       4.823   6.884  18.628  0.00  0.00    +0.000 HD
BRANCH  18  22
ATOM     22  C   UNL     1       2.893   8.513  17.817  0.00  0.00    +0.000 C 
BRANCH  22  23
ATOM     23  C   UNL     1       1.489   9.098  17.824  0.00  0.00    +0.000 C 
BRANCH  23  25
ATOM     24  C   UNL     1      -0.296  10.236  19.161  0.00  0.00    +0.000 C 
ATOM     25  C   UNL     1       1.061   9.551  19.216  0.00  0.00    +0.000 C 
ENDBRANCH  23  25
ENDBRANCH  22  23
ENDBRANCH  18  22
ENDBRANCH   1  20
TORSDOF 5
ENDMDL
