MODEL 1
REMARK VINA RESULT:      -7.6      0.000      0.000
REMARK  Name = 
REMARK  6 active torsions:
REMARK  status: ('A' for Active; 'I' for Inactive)
REMARK    1  A    between atoms: C_2  and  C_3
REMARK    2  A    between atoms: C_2  and  C_10
REMARK    3  A    between atoms: C_15  and  C_17
REMARK    4  A    between atoms: C_17  and  C_18
REMARK    5  A    between atoms: C_18  and  C_19
REMARK    6  A    between atoms: C_19  and  N_20
REMARK                            x       y       z     vdW  Elec       q    Type
REMARK                         _______ _______ _______ _____ _____    ______ ____
ROOT
ATOM      1  C   UNL     1       2.379   5.064  18.300  0.00  0.00    +0.000 C 
ATOM      2  C   UNL     1       1.911   4.649  19.714  0.00  0.00    +0.000 C 
ATOM      3  C   UNL     1       1.218   5.796  20.451  0.00  0.00    +0.000 C 
ATOM      4  C   UNL     1       2.110   7.031  20.464  0.00  0.00    +0.000 C 
ATOM      5  N   UNL     1       2.419   7.409  19.088  0.00  0.00    +0.000 N 
ATOM      6  C   UNL     1       1.923   8.531  18.435  0.00  0.00    +0.000 C 
ATOM      7  O   UNL     1       2.154   8.750  17.246  0.00  0.00    +0.000 OA
ATOM      8  C   UNL     1       3.156   6.389  18.335  0.00  0.00    +0.000 C 
ENDROOT
BRANCH   1  10
ATOM      9  O   UNL     1       2.866   2.832  17.548  0.00  0.00    +0.000 OA
ATOM     10  C   UNL     1       3.280   3.981  17.712  0.00  0.00    +0.000 C 
BRANCH  10  11
ATOM     11  C   UNL     1       4.693   4.289  17.320  0.00  0.00    +0.000 A 
ATOM     12  C   UNL     1       5.650   4.398  18.344  0.00  0.00    +0.000 A 
ATOM     13  C   UNL     1       6.996   4.622  18.044  0.00  0.00    +0.000 A 
ATOM     14  C   UNL     1       7.398   4.739  16.717  0.00  0.00    +0.000 A 
ATOM     15  C   UNL     1       6.448   4.658  15.701  0.00  0.00    +0.000 A 
ATOM     16 CL   UNL     1       6.951   4.796  14.059  0.00  0.00    +0.000 Cl
ATOM     17  C   UNL     1       5.099   4.448  15.992  0.00  0.00    +0.000 A 
ENDBRANCH  10  11
ENDBRANCH   1  10
BRANCH   6  18
ATOM     18  C   UNL     1       1.056   9.478  19.258  0.00  0.00    +0.000 C 
BRANCH  18  19
ATOM     19  C   UNL     1       0.133  10.343  18.400  0.00  0.00    +0.000 C 
BRANCH  19  20
ATOM     20  C   UNL     1      -1.244  10.481  19.044  0.00  0.00    +0.000 C 
BRANCH  20  21
ATOM     21  N   UNL     1      -2.288  10.750  18.075  0.00  0.00    +0.000 N 
ATOM     22  C   UNL     1      -2.289  10.375  16.763  0.00  0.00    +0.000 A 
ATOM     23  C   UNL     1      -3.460  10.884  16.251  0.00  0.00    +0.000 A 
ATOM     24  N   UNL     1      -4.157  11.564  17.216  0.00  0.00    +0.000 NA
ATOM     25  C   UNL     1      -3.426  11.467  18.304  0.00  0.00    +0.000 A 
ENDBRANCH  20  21
ENDBRANCH  19  20
ENDBRANCH  18  19
ENDBRANCH   6  18
TORSDOF 6
ENDMDL
MODEL 2
REMARK VINA RESULT:      -7.2      2.046      2.969
REMARK  Name = 
REMARK  6 active torsions:
REMARK  status: ('A' for Active; 'I' for Inactive)
REMARK    1  A    between atoms: C_2  and  C_3
REMARK    2  A    between atoms: C_2  and  C_10
REMARK    3  A    between atoms: C_15  and  C_17
REMARK    4  A    between atoms: C_17  and  C_18
REMARK    5  A    between atoms: C_18  and  C_19
REMARK    6  A    between atoms: C_19  and  N_20
REMARK                            x       y       z     vdW  Elec       q    Type
REMARK                         _______ _______ _______ _____ _____    ______ ____
ROOT
ATOM      1  C   UNL     1       2.254   5.248  18.256  0.00  0.00    +0.000 C 
ATOM      2  C   UNL     1       1.836   4.899  19.702  0.00  0.00    +0.000 C 
ATOM      3  C   UNL     1       1.247   6.103  20.439  0.00  0.00    +0.000 C 
ATOM      4  C   UNL     1       2.207   7.284  20.372  0.00  0.00    +0.000 C 
ATOM      5  N   UNL     1       2.466   7.608  18.972  0.00  0.00    +0.000 N 
ATOM      6  C   UNL     1       2.001   8.739  18.312  0.00  0.00    +0.000 C 
ATOM      7  O   UNL     1       2.182   8.913  17.107  0.00  0.00    +0.000 OA
ATOM      8  C   UNL     1       3.105   6.527  18.213  0.00  0.00    +0.000 C 
ENDROOT
BRANCH   1  10
ATOM      9  O   UNL     1       2.534   3.013  17.413  0.00  0.00    +0.000 OA
ATOM     10  C   UNL     1       3.062   4.100  17.655  0.00  0.00    +0.000 C 
BRANCH  10  11
ATOM     11  C   UNL     1       4.518   4.268  17.346  0.00  0.00    +0.000 A 
ATOM     12  C   UNL     1       4.937   4.056  16.022  0.00  0.00    +0.000 A 
ATOM     13  C   UNL     1       6.270   4.256  15.653  0.00  0.00    +0.000 A 
ATOM     14  C   UNL     1       7.196   4.671  16.605  0.00  0.00    +0.000 A 
ATOM     15  C   UNL     1       6.789   4.857  17.925  0.00  0.00    +0.000 A 
ATOM     16 CL   UNL     1       7.937   5.379  19.099  0.00  0.00    +0.000 Cl
ATOM     17  C   UNL     1       5.462   4.646  18.306  0.00  0.00    +0.000 A 
ENDBRANCH  10  11
ENDBRANCH   1  10
BRANCH   6  18
ATOM     18  C   UNL     1       1.232   9.755  19.149  0.00  0.00    +0.000 C 
BRANCH  18  19
ATOM     19  C   UNL     1      -0.202   9.969  18.663  0.00  0.00    +0.000 C 
BRANCH  19  20
ATOM     20  C   UNL     1      -0.997  10.815  19.655  0.00  0.00    +0.000 C 
BRANCH  20  21
ATOM     21  N   UNL     1      -0.692  10.490  21.034  0.00  0.00    +0.000 N 
ATOM     22  C   UNL     1      -0.638   9.239  21.577  0.00  0.00    +0.000 A 
ATOM     23  C   UNL     1      -0.351   9.443  22.907  0.00  0.00    +0.000 A 
ATOM     24  N   UNL     1      -0.242  10.782  23.180  0.00  0.00    +0.000 NA
ATOM     25  C   UNL     1      -0.453  11.388  22.033  0.00  0.00    +0.000 A 
ENDBRANCH  20  21
ENDBRANCH  19  20
ENDBRANCH  18  19
ENDBRANCH   6  18
TORSDOF 6
ENDMDL
MODEL 3
REMARK VINA RESULT:      -7.2      2.567      3.898
REMARK  Name = 
REMARK  6 active torsions:
REMARK  status: ('A' for Active; 'I' for Inactive)
REMARK    1  A    between atoms: C_2  and  C_3
REMARK    2  A    between atoms: C_2  and  C_10
REMARK    3  A    between atoms: C_15  and  C_17
REMARK    4  A    between atoms: C_17  and  C_18
REMARK    5  A    between atoms: C_18  and  C_19
REMARK    6  A    between atoms: C_19  and  N_20
REMARK                            x       y       z     vdW  Elec       q    Type
REMARK                         _______ _______ _______ _____ _____    ______ ____
ROOT
ATOM      1  C   UNL     1       4.741   5.240  16.485  0.00  0.00    +0.000 C 
ATOM      2  C   UNL     1       3.998   4.046  17.125  0.00  0.00    +0.000 C 
ATOM      3  C   UNL     1       2.716   4.479  17.839  0.00  0.00    +0.000 C 
ATOM      4  C   UNL     1       3.019   5.589  18.838  0.00  0.00    +0.000 C 
ATOM      5  N   UNL     1       3.627   6.713  18.132  0.00  0.00    +0.000 N 
ATOM      6  C   UNL     1       3.012   7.937  17.896  0.00  0.00    +0.000 C 
ATOM      7  O   UNL     1       3.546   8.816  17.219  0.00  0.00    +0.000 OA
ATOM      8  C   UNL     1       4.904   6.397  17.484  0.00  0.00    +0.000 C 
ENDROOT
BRANCH   1  10
ATOM      9  O   UNL     1       7.034   4.599  16.820  0.00  0.00    +0.000 OA
ATOM     10  C   UNL     1       6.125   4.799  16.014  0.00  0.00    +0.000 C 
BRANCH  10  11
ATOM     11  C   UNL     1       6.410   4.601  14.556  0.00  0.00    +0.000 A 
ATOM     12  C   UNL     1       7.473   5.325  13.990  0.00  0.00    +0.000 A 
ATOM     13  C   UNL     1       7.832   5.141  12.652  0.00  0.00    +0.000 A 
ATOM     14  C   UNL     1       7.132   4.228  11.868  0.00  0.00    +0.000 A 
ATOM     15  C   UNL     1       6.061   3.528  12.419  0.00  0.00    +0.000 A 
ATOM     16 CL   UNL     1       5.202   2.394  11.448  0.00  0.00    +0.000 Cl
ATOM     17  C   UNL     1       5.686   3.716  13.751  0.00  0.00    +0.000 A 
ENDBRANCH  10  11
ENDBRANCH   1  10
BRANCH   6  18
ATOM     18  C   UNL     1       1.626   8.137  18.499  0.00  0.00    +0.000 C 
BRANCH  18  19
ATOM     19  C   UNL     1       1.087   9.554  18.304  0.00  0.00    +0.000 C 
BRANCH  19  20
ATOM     20  C   UNL     1      -0.204   9.763  19.092  0.00  0.00    +0.000 C 
BRANCH  20  21
ATOM     21  N   UNL     1       0.011   9.758  20.525  0.00  0.00    +0.000 N 
ATOM     22  C   UNL     1      -0.345   8.766  21.392  0.00  0.00    +0.000 A 
ATOM     23  C   UNL     1       0.030   9.230  22.633  0.00  0.00    +0.000 A 
ATOM     24  N   UNL     1       0.591  10.477  22.535  0.00  0.00    +0.000 NA
ATOM     25  C   UNL     1       0.566  10.769  21.253  0.00  0.00    +0.000 A 
ENDBRANCH  20  21
ENDBRANCH  19  20
ENDBRANCH  18  19
ENDBRANCH   6  18
TORSDOF 6
ENDMDL
MODEL 4
REMARK VINA RESULT:      -7.2      3.184      4.207
REMARK  Name = 
REMARK  6 active torsions:
REMARK  status: ('A' for Active; 'I' for Inactive)
REMARK    1  A    between atoms: C_2  and  C_3
REMARK    2  A    between atoms: C_2  and  C_10
REMARK    3  A    between atoms: C_15  and  C_17
REMARK    4  A    between atoms: C_17  and  C_18
REMARK    5  A    between atoms: C_18  and  C_19
REMARK    6  A    between atoms: C_19  and  N_20
REMARK                            x       y       z     vdW  Elec       q    Type
REMARK                         _______ _______ _______ _____ _____    ______ ____
ROOT
ATOM      1  C   UNL     1       2.307   7.597  19.644  0.00  0.00    +0.000 C 
ATOM      2  C   UNL     1       2.239   7.971  18.146  0.00  0.00    +0.000 C 
ATOM      3  C   UNL     1       1.910   9.450  17.936  0.00  0.00    +0.000 C 
ATOM      4  C   UNL     1       0.642   9.822  18.695  0.00  0.00    +0.000 C 
ATOM      5  N   UNL     1       0.832   9.528  20.112  0.00  0.00    +0.000 N 
ATOM      6  C   UNL     1       0.974  10.480  21.115  0.00  0.00    +0.000 C 
ATOM      7  O   UNL     1       1.217  10.169  22.281  0.00  0.00    +0.000 OA
ATOM      8  C   UNL     1       1.075   8.112  20.406  0.00  0.00    +0.000 C 
ENDROOT
BRANCH   1  10
ATOM      9  O   UNL     1       1.730   5.500  20.670  0.00  0.00    +0.000 OA
ATOM     10  C   UNL     1       2.380   6.080  19.799  0.00  0.00    +0.000 C 
BRANCH  10  11
ATOM     11  C   UNL     1       3.247   5.259  18.893  0.00  0.00    +0.000 A 
ATOM     12  C   UNL     1       2.613   4.405  17.974  0.00  0.00    +0.000 A 
ATOM     13  C   UNL     1       3.360   3.659  17.059  0.00  0.00    +0.000 A 
ATOM     14  C   UNL     1       4.748   3.760  17.053  0.00  0.00    +0.000 A 
ATOM     15  C   UNL     1       5.381   4.586  17.981  0.00  0.00    +0.000 A 
ATOM     16 CL   UNL     1       7.099   4.715  17.966  0.00  0.00    +0.000 Cl
ATOM     17  C   UNL     1       4.644   5.325  18.908  0.00  0.00    +0.000 A 
ENDBRANCH  10  11
ENDBRANCH   1  10
BRANCH   6  18
ATOM     18  C   UNL     1       0.834  11.941  20.700  0.00  0.00    +0.000 C 
BRANCH  18  19
ATOM     19  C   UNL     1      -0.608  12.444  20.755  0.00  0.00    +0.000 C 
BRANCH  19  20
ATOM     20  C   UNL     1      -0.855  13.264  22.019  0.00  0.00    +0.000 C 
BRANCH  20  21
ATOM     21  N   UNL     1      -2.170  13.035  22.584  0.00  0.00    +0.000 N 
ATOM     22  C   UNL     1      -3.253  13.858  22.473  0.00  0.00    +0.000 A 
ATOM     23  C   UNL     1      -4.244  13.238  23.197  0.00  0.00    +0.000 A 
ATOM     24  N   UNL     1      -3.784  12.071  23.750  0.00  0.00    +0.000 NA
ATOM     25  C   UNL     1      -2.531  11.975  23.363  0.00  0.00    +0.000 A 
ENDBRANCH  20  21
ENDBRANCH  19  20
ENDBRANCH  18  19
ENDBRANCH   6  18
TORSDOF 6
ENDMDL
MODEL 5
REMARK VINA RESULT:      -7.2      4.067      8.870
REMARK  Name = 
REMARK  6 active torsions:
REMARK  status: ('A' for Active; 'I' for Inactive)
REMARK    1  A    between atoms: C_2  and  C_3
REMARK    2  A    between atoms: C_2  and  C_10
REMARK    3  A    between atoms: C_15  and  C_17
REMARK    4  A    between atoms: C_17  and  C_18
REMARK    5  A    between atoms: C_18  and  C_19
REMARK    6  A    between atoms: C_19  and  N_20
REMARK                            x       y       z     vdW  Elec       q    Type
REMARK                         _______ _______ _______ _____ _____    ______ ____
ROOT
ATOM      1  C   UNL     1       1.059   8.508  20.365  0.00  0.00    +0.000 C 
ATOM      2  C   UNL     1       1.477   9.347  19.136  0.00  0.00    +0.000 C 
ATOM      3  C   UNL     1       1.827   8.470  17.932  0.00  0.00    +0.000 C 
ATOM      4  C   UNL     1       2.874   7.433  18.322  0.00  0.00    +0.000 C 
ATOM      5  N   UNL     1       2.355   6.624  19.421  0.00  0.00    +0.000 N 
ATOM      6  C   UNL     1       1.967   5.293  19.322  0.00  0.00    +0.000 C 
ATOM      7  O   UNL     1       1.457   4.689  20.265  0.00  0.00    +0.000 OA
ATOM      8  C   UNL     1       2.067   7.382  20.643  0.00  0.00    +0.000 C 
ENDROOT
BRANCH   1  10
ATOM      9  O   UNL     1       1.824   9.347  22.485  0.00  0.00    +0.000 OA
ATOM     10  C   UNL     1       0.969   9.403  21.599  0.00  0.00    +0.000 C 
BRANCH  10  11
ATOM     11  C   UNL     1      -0.162  10.372  21.762  0.00  0.00    +0.000 A 
ATOM     12  C   UNL     1      -0.803  10.429  23.012  0.00  0.00    +0.000 A 
ATOM     13  C   UNL     1      -1.823  11.353  23.251  0.00  0.00    +0.000 A 
ATOM     14  C   UNL     1      -2.212  12.230  22.243  0.00  0.00    +0.000 A 
ATOM     15  C   UNL     1      -1.597  12.158  20.994  0.00  0.00    +0.000 A 
ATOM     16 CL   UNL     1      -2.075  13.251  19.751  0.00  0.00    +0.000 Cl
ATOM     17  C   UNL     1      -0.585  11.229  20.742  0.00  0.00    +0.000 A 
ENDBRANCH  10  11
ENDBRANCH   1  10
BRANCH   6  18
ATOM     18  C   UNL     1       2.182   4.613  17.974  0.00  0.00    +0.000 C 
BRANCH  18  19
ATOM     19  C   UNL     1       3.504   3.849  17.893  0.00  0.00    +0.000 C 
BRANCH  19  20
ATOM     20  C   UNL     1       4.253   4.184  16.605  0.00  0.00    +0.000 C 
BRANCH  20  21
ATOM     21  N   UNL     1       5.518   4.845  16.853  0.00  0.00    +0.000 N 
ATOM     22  C   UNL     1       6.143   4.971  18.060  0.00  0.00    +0.000 A 
ATOM     23  C   UNL     1       7.280   5.698  17.796  0.00  0.00    +0.000 A 
ATOM     24  N   UNL     1       7.351   6.023  16.466  0.00  0.00    +0.000 NA
ATOM     25  C   UNL     1       6.275   5.497  15.923  0.00  0.00    +0.000 A 
ENDBRANCH  20  21
ENDBRANCH  19  20
ENDBRANCH  18  19
ENDBRANCH   6  18
TORSDOF 6
ENDMDL
MODEL 6
REMARK VINA RESULT:      -7.2      5.439      7.826
REMARK  Name = 
REMARK  6 active torsions:
REMARK  status: ('A' for Active; 'I' for Inactive)
REMARK    1  A    between atoms: C_2  and  C_3
REMARK    2  A    between atoms: C_2  and  C_10
REMARK    3  A    between atoms: C_15  and  C_17
REMARK    4  A    between atoms: C_17  and  C_18
REMARK    5  A    between atoms: C_18  and  C_19
REMARK    6  A    between atoms: C_19  and  N_20
REMARK                            x       y       z     vdW  Elec       q    Type
REMARK                         _______ _______ _______ _____ _____    ______ ____
ROOT
ATOM      1  C   UNL     1       5.099   4.001  17.388  0.00  0.00    +0.000 C 
ATOM      2  C   UNL     1       4.644   4.425  15.973  0.00  0.00    +0.000 C 
ATOM      3  C   UNL     1       5.476   5.586  15.424  0.00  0.00    +0.000 C 
ATOM      4  C   UNL     1       5.481   6.745  16.413  0.00  0.00    +0.000 C 
ATOM      5  N   UNL     1       6.018   6.280  17.688  0.00  0.00    +0.000 N 
ATOM      6  C   UNL     1       7.256   6.632  18.213  0.00  0.00    +0.000 C 
ATOM      7  O   UNL     1       7.688   6.139  19.254  0.00  0.00    +0.000 OA
ATOM      8  C   UNL     1       5.230   5.216  18.321  0.00  0.00    +0.000 C 
ENDROOT
BRANCH   1  10
ATOM      9  O   UNL     1       3.878   1.931  17.467  0.00  0.00    +0.000 OA
ATOM     10  C   UNL     1       4.090   3.027  17.990  0.00  0.00    +0.000 C 
BRANCH  10  11
ATOM     11  C   UNL     1       3.330   3.381  19.231  0.00  0.00    +0.000 A 
ATOM     12  C   UNL     1       3.307   2.442  20.277  0.00  0.00    +0.000 A 
ATOM     13  C   UNL     1       2.670   2.733  21.486  0.00  0.00    +0.000 A 
ATOM     14  C   UNL     1       2.050   3.967  21.661  0.00  0.00    +0.000 A 
ATOM     15  C   UNL     1       2.049   4.890  20.617  0.00  0.00    +0.000 A 
ATOM     16 CL   UNL     1       1.288   6.419  20.841  0.00  0.00    +0.000 Cl
ATOM     17  C   UNL     1       2.671   4.602  19.400  0.00  0.00    +0.000 A 
ENDBRANCH  10  11
ENDBRANCH   1  10
BRANCH   6  18
ATOM     18  C   UNL     1       8.071   7.651  17.424  0.00  0.00    +0.000 C 
BRANCH  18  19
ATOM     19  C   UNL     1       7.793   9.095  17.843  0.00  0.00    +0.000 C 
BRANCH  19  20
ATOM     20  C   UNL     1       8.927   9.642  18.707  0.00  0.00    +0.000 C 
BRANCH  20  21
ATOM     21  N   UNL     1       9.408  10.929  18.245  0.00  0.00    +0.000 N 
ATOM     22  C   UNL     1       8.664  12.062  18.090  0.00  0.00    +0.000 A 
ATOM     23  C   UNL     1       9.543  13.000  17.600  0.00  0.00    +0.000 A 
ATOM     24  N   UNL     1      10.793  12.457  17.445  0.00  0.00    +0.000 NA
ATOM     25  C   UNL     1      10.681  11.209  17.841  0.00  0.00    +0.000 A 
ENDBRANCH  20  21
ENDBRANCH  19  20
ENDBRANCH  18  19
ENDBRANCH   6  18
TORSDOF 6
ENDMDL
MODEL 7
REMARK VINA RESULT:      -7.2      3.668      4.748
REMARK  Name = 
REMARK  6 active torsions:
REMARK  status: ('A' for Active; 'I' for Inactive)
REMARK    1  A    between atoms: C_2  and  C_3
REMARK    2  A    between atoms: C_2  and  C_10
REMARK    3  A    between atoms: C_15  and  C_17
REMARK    4  A    between atoms: C_17  and  C_18
REMARK    5  A    between atoms: C_18  and  C_19
REMARK    6  A    between atoms: C_19  and  N_20
REMARK                            x       y       z     vdW  Elec       q    Type
REMARK                         _______ _______ _______ _____ _____    ______ ____
ROOT
ATOM      1  C   UNL     1       2.196   7.834  19.619  0.00  0.00    +0.000 C 
ATOM      2  C   UNL     1       2.134   8.095  18.097  0.00  0.00    +0.000 C 
ATOM      3  C   UNL     1       1.812   9.556  17.776  0.00  0.00    +0.000 C 
ATOM      4  C   UNL     1       0.544   9.988  18.501  0.00  0.00    +0.000 C 
ATOM      5  N   UNL     1       0.729   9.801  19.937  0.00  0.00    +0.000 N 
ATOM      6  C   UNL     1       0.872  10.824  20.866  0.00  0.00    +0.000 C 
ATOM      7  O   UNL     1       1.111  10.601  22.053  0.00  0.00    +0.000 OA
ATOM      8  C   UNL     1       0.965   8.409  20.337  0.00  0.00    +0.000 C 
ENDROOT
BRANCH   1  10
ATOM      9  O   UNL     1       1.642   5.828  20.824  0.00  0.00    +0.000 OA
ATOM     10  C   UNL     1       2.264   6.332  19.887  0.00  0.00    +0.000 C 
BRANCH  10  11
ATOM     11  C   UNL     1       3.088   5.435  19.016  0.00  0.00    +0.000 A 
ATOM     12  C   UNL     1       2.413   4.561  18.147  0.00  0.00    +0.000 A 
ATOM     13  C   UNL     1       3.121   3.742  17.264  0.00  0.00    +0.000 A 
ATOM     14  C   UNL     1       4.512   3.790  17.240  0.00  0.00    +0.000 A 
ATOM     15  C   UNL     1       5.186   4.637  18.119  0.00  0.00    +0.000 A 
ATOM     16 CL   UNL     1       6.906   4.699  18.081  0.00  0.00    +0.000 Cl
ATOM     17  C   UNL     1       4.487   5.448  19.015  0.00  0.00    +0.000 A 
ENDBRANCH  10  11
ENDBRANCH   1  10
BRANCH   6  18
ATOM     18  C   UNL     1       0.740  12.251  20.343  0.00  0.00    +0.000 C 
BRANCH  18  19
ATOM     19  C   UNL     1       2.067  13.011  20.335  0.00  0.00    +0.000 C 
BRANCH  19  20
ATOM     20  C   UNL     1       2.556  13.243  18.907  0.00  0.00    +0.000 C 
BRANCH  20  21
ATOM     21  N   UNL     1       2.568  14.646  18.544  0.00  0.00    +0.000 N 
ATOM     22  C   UNL     1       3.400  15.240  17.640  0.00  0.00    +0.000 A 
ATOM     23  C   UNL     1       3.057  16.573  17.667  0.00  0.00    +0.000 A 
ATOM     24  N   UNL     1       2.051  16.797  18.570  0.00  0.00    +0.000 NA
ATOM     25  C   UNL     1       1.776  15.618  19.083  0.00  0.00    +0.000 A 
ENDBRANCH  20  21
ENDBRANCH  19  20
ENDBRANCH  18  19
ENDBRANCH   6  18
TORSDOF 6
ENDMDL
MODEL 8
REMARK VINA RESULT:      -7.2      0.948      1.224
REMARK  Name = 
REMARK  6 active torsions:
REMARK  status: ('A' for Active; 'I' for Inactive)
REMARK    1  A    between atoms: C_2  and  C_3
REMARK    2  A    between atoms: C_2  and  C_10
REMARK    3  A    between atoms: C_15  and  C_17
REMARK    4  A    between atoms: C_17  and  C_18
REMARK    5  A    between atoms: C_18  and  C_19
REMARK    6  A    between atoms: C_19  and  N_20
REMARK                            x       y       z     vdW  Elec       q    Type
REMARK                         _______ _______ _______ _____ _____    ______ ____
ROOT
ATOM      1  C   UNL     1       2.160   5.392  18.193  0.00  0.00    +0.000 C 
ATOM      2  C   UNL     1       1.889   4.953  19.650  0.00  0.00    +0.000 C 
ATOM      3  C   UNL     1       1.315   6.090  20.497  0.00  0.00    +0.000 C 
ATOM      4  C   UNL     1       2.212   7.318  20.409  0.00  0.00    +0.000 C 
ATOM      5  N   UNL     1       2.331   7.721  19.010  0.00  0.00    +0.000 N 
ATOM      6  C   UNL     1       1.760   8.859  18.453  0.00  0.00    +0.000 C 
ATOM      7  O   UNL     1       1.825   9.100  17.248  0.00  0.00    +0.000 OA
ATOM      8  C   UNL     1       2.947   6.710  18.143  0.00  0.00    +0.000 C 
ENDROOT
BRANCH   1  10
ATOM      9  O   UNL     1       2.416   3.285  17.060  0.00  0.00    +0.000 OA
ATOM     10  C   UNL     1       2.961   4.314  17.465  0.00  0.00    +0.000 C 
BRANCH  10  11
ATOM     11  C   UNL     1       4.430   4.483  17.226  0.00  0.00    +0.000 A 
ATOM     12  C   UNL     1       5.284   4.465  18.342  0.00  0.00    +0.000 A 
ATOM     13  C   UNL     1       6.669   4.555  18.184  0.00  0.00    +0.000 A 
ATOM     14  C   UNL     1       7.214   4.661  16.908  0.00  0.00    +0.000 A 
ATOM     15  C   UNL     1       6.369   4.705  15.801  0.00  0.00    +0.000 A 
ATOM     16 CL   UNL     1       7.048   4.829  14.223  0.00  0.00    +0.000 Cl
ATOM     17  C   UNL     1       4.983   4.631  15.950  0.00  0.00    +0.000 A 
ENDBRANCH  10  11
ENDBRANCH   1  10
BRANCH   6  18
ATOM     18  C   UNL     1       1.024   9.795  19.406  0.00  0.00    +0.000 C 
BRANCH  18  19
ATOM     19  C   UNL     1      -0.496   9.737  19.248  0.00  0.00    +0.000 C 
BRANCH  19  20
ATOM     20  C   UNL     1      -0.999  10.880  18.370  0.00  0.00    +0.000 C 
BRANCH  20  21
ATOM     21  N   UNL     1      -2.202  11.495  18.894  0.00  0.00    +0.000 N 
ATOM     22  C   UNL     1      -3.440  11.469  18.320  0.00  0.00    +0.000 A 
ATOM     23  C   UNL     1      -4.236  12.213  19.160  0.00  0.00    +0.000 A 
ATOM     24  N   UNL     1      -3.509  12.695  20.217  0.00  0.00    +0.000 NA
ATOM     25  C   UNL     1      -2.287  12.247  20.029  0.00  0.00    +0.000 A 
ENDBRANCH  20  21
ENDBRANCH  19  20
ENDBRANCH  18  19
ENDBRANCH   6  18
TORSDOF 6
ENDMDL
MODEL 9
REMARK VINA RESULT:      -7.1      2.195      3.142
REMARK  Name = 
REMARK  6 active torsions:
REMARK  status: ('A' for Active; 'I' for Inactive)
REMARK    1  A    between atoms: C_2  and  C_3
REMARK    2  A    between atoms: C_2  and  C_10
REMARK    3  A    between atoms: C_15  and  C_17
REMARK    4  A    between atoms: C_17  and  C_18
REMARK    5  A    between atoms: C_18  and  C_19
REMARK    6  A    between atoms: C_19  and  N_20
REMARK                            x       y       z     vdW  Elec       q    Type
REMARK                         _______ _______ _______ _____ _____    ______ ____
ROOT
ATOM      1  C   UNL     1       2.339   5.055  18.166  0.00  0.00    +0.000 C 
ATOM      2  C   UNL     1       1.891   4.599  19.573  0.00  0.00    +0.000 C 
ATOM      3  C   UNL     1       1.243   5.734  20.368  0.00  0.00    +0.000 C 
ATOM      4  C   UNL     1       2.167   6.945  20.407  0.00  0.00    +0.000 C 
ATOM      5  N   UNL     1       2.457   7.368  19.040  0.00  0.00    +0.000 N 
ATOM      6  C   UNL     1       1.976   8.526  18.440  0.00  0.00    +0.000 C 
ATOM      7  O   UNL     1       2.187   8.784  17.255  0.00  0.00    +0.000 OA
ATOM      8  C   UNL     1       3.151   6.358  18.232  0.00  0.00    +0.000 C 
ENDROOT
BRANCH   1  10
ATOM      9  O   UNL     1       2.730   2.866  17.251  0.00  0.00    +0.000 OA
ATOM     10  C   UNL     1       3.200   3.973  17.518  0.00  0.00    +0.000 C 
BRANCH  10  11
ATOM     11  C   UNL     1       4.638   4.233  17.190  0.00  0.00    +0.000 A 
ATOM     12  C   UNL     1       5.032   4.147  15.844  0.00  0.00    +0.000 A 
ATOM     13  C   UNL     1       6.343   4.438  15.461  0.00  0.00    +0.000 A 
ATOM     14  C   UNL     1       7.275   4.818  16.423  0.00  0.00    +0.000 A 
ATOM     15  C   UNL     1       6.896   4.879  17.762  0.00  0.00    +0.000 A 
ATOM     16 CL   UNL     1       8.050   5.358  18.948  0.00  0.00    +0.000 Cl
ATOM     17  C   UNL     1       5.590   4.576  18.155  0.00  0.00    +0.000 A 
ENDBRANCH  10  11
ENDBRANCH   1  10
BRANCH   6  18
ATOM     18  C   UNL     1       1.151   9.461  19.317  0.00  0.00    +0.000 C 
BRANCH  18  19
ATOM     19  C   UNL     1       0.099  10.245  18.533  0.00  0.00    +0.000 C 
BRANCH  19  20
ATOM     20  C   UNL     1      -0.194  11.588  19.198  0.00  0.00    +0.000 C 
BRANCH  20  21
ATOM     21  N   UNL     1       1.002  12.380  19.401  0.00  0.00    +0.000 N 
ATOM     22  C   UNL     1       1.475  12.839  20.596  0.00  0.00    +0.000 A 
ATOM     23  C   UNL     1       2.601  13.562  20.278  0.00  0.00    +0.000 A 
ATOM     24  N   UNL     1       2.812  13.560  18.923  0.00  0.00    +0.000 NA
ATOM     25  C   UNL     1       1.833  12.840  18.421  0.00  0.00    +0.000 A 
ENDBRANCH  20  21
ENDBRANCH  19  20
ENDBRANCH  18  19
ENDBRANCH   6  18
TORSDOF 6
ENDMDL
