MODEL 1
REMARK VINA RESULT:      -7.0      0.000      0.000
REMARK  Name = 
REMARK  7 active torsions:
REMARK  status: ('A' for Active; 'I' for Inactive)
REMARK    1  A    between atoms: C_1  and  N_2
REMARK    2  A    between atoms: N_2  and  C_3
REMARK    3  A    between atoms: N_2  and  C_4
REMARK    4  A    between atoms: C_4  and  C_5
REMARK    5  A    between atoms: C_5  and  C_6
REMARK    6  A    between atoms: C_6  and  N_7
REMARK    7  A    between atoms: C_18  and  C_19
REMARK                            x       y       z     vdW  Elec       q    Type
REMARK                         _______ _______ _______ _____ _____    ______ ____
ROOT
ATOM      1  N   UNL     1       3.069   6.153  19.776  0.00  0.00    +0.000 N 
ATOM      2  C   UNL     1       2.188   7.246  19.980  0.00  0.00    +0.000 A 
ATOM      3  C   UNL     1       1.659   7.511  21.254  0.00  0.00    +0.000 A 
ATOM      4  C   UNL     1       0.892   8.657  21.495  0.00  0.00    +0.000 A 
ATOM      5  C   UNL     1       0.623   9.545  20.461  0.00  0.00    +0.000 A 
ATOM      6  C   UNL     1       1.114   9.287  19.183  0.00  0.00    +0.000 A 
ATOM      7  C   UNL     1       1.902   8.154  18.944  0.00  0.00    +0.000 A 
ATOM      8  S   UNL     1       2.513   7.899  17.281  0.00  0.00    +0.000 S 
ATOM      9  C   UNL     1       3.995   6.974  17.650  0.00  0.00    +0.000 A 
ATOM     10  C   UNL     1       5.067   7.075  16.756  0.00  0.00    +0.000 A 
ATOM     11  C   UNL     1       6.271   6.417  17.015  0.00  0.00    +0.000 A 
ATOM     12  C   UNL     1       6.406   5.637  18.166  0.00  0.00    +0.000 A 
ATOM     13  C   UNL     1       5.314   5.512  19.042  0.00  0.00    +0.000 A 
ATOM     14  C   UNL     1       4.096   6.174  18.804  0.00  0.00    +0.000 A 
ENDROOT
BRANCH  12  15
ATOM     15  C   UNL     1       7.677   4.950  18.540  0.00  0.00    +0.000 C 
ATOM     16  N   UNL     1       8.227   5.208  19.765  0.00  0.00    +0.000 N 
ATOM     17  O   UNL     1       8.227   4.162  17.780  0.00  0.00    +0.000 OA
ATOM     18  H   UNL     1       7.837   5.813  20.468  0.00  0.00    +0.000 HD
ATOM     19  H   UNL     1       9.076   4.706  19.992  0.00  0.00    +0.000 HD
ENDBRANCH  12  15
BRANCH   1  20
ATOM     20  C   UNL     1       2.629   4.826  20.266  0.00  0.00    +0.000 C 
BRANCH  20  21
ATOM     21  C   UNL     1       1.525   4.233  19.375  0.00  0.00    +0.000 C 
BRANCH  21  22
ATOM     22  C   UNL     1       1.595   2.700  19.286  0.00  0.00    +0.000 C 
BRANCH  22  24
ATOM     23  C   UNL     1       2.584   3.264  17.132  0.00  0.00    +0.000 C 
ATOM     24  N   UNL     1       2.310   2.198  18.099  0.00  0.00    +0.000 NA
ATOM     25  C   UNL     1       3.571   1.563  18.495  0.00  0.00    +0.000 C 
ENDBRANCH  22  24
ENDBRANCH  21  22
ENDBRANCH  20  21
ENDBRANCH   1  20
TORSDOF 5
ENDMDL
MODEL 2
REMARK VINA RESULT:      -6.8      1.140      1.327
REMARK  Name = 
REMARK  7 active torsions:
REMARK  status: ('A' for Active; 'I' for Inactive)
REMARK    1  A    between atoms: C_1  and  N_2
REMARK    2  A    between atoms: N_2  and  C_3
REMARK    3  A    between atoms: N_2  and  C_4
REMARK    4  A    between atoms: C_4  and  C_5
REMARK    5  A    between atoms: C_5  and  C_6
REMARK    6  A    between atoms: C_6  and  N_7
REMARK    7  A    between atoms: C_18  and  C_19
REMARK                            x       y       z     vdW  Elec       q    Type
REMARK                         _______ _______ _______ _____ _____    ______ ____
ROOT
ATOM      1  N   UNL     1       2.390   6.678  20.127  0.00  0.00    +0.000 N 
ATOM      2  C   UNL     1       1.618   7.851  20.329  0.00  0.00    +0.000 A 
ATOM      3  C   UNL     1       1.153   8.190  21.610  0.00  0.00    +0.000 A 
ATOM      4  C   UNL     1       0.501   9.406  21.845  0.00  0.00    +0.000 A 
ATOM      5  C   UNL     1       0.284  10.294  20.798  0.00  0.00    +0.000 A 
ATOM      6  C   UNL     1       0.712   9.965  19.514  0.00  0.00    +0.000 A 
ATOM      7  C   UNL     1       1.387   8.760  19.280  0.00  0.00    +0.000 A 
ATOM      8  S   UNL     1       1.923   8.416  17.608  0.00  0.00    +0.000 S 
ATOM      9  C   UNL     1       3.325   7.367  17.958  0.00  0.00    +0.000 A 
ATOM     10  C   UNL     1       4.375   7.350  17.034  0.00  0.00    +0.000 A 
ATOM     11  C   UNL     1       5.521   6.591  17.276  0.00  0.00    +0.000 A 
ATOM     12  C   UNL     1       5.619   5.825  18.440  0.00  0.00    +0.000 A 
ATOM     13  C   UNL     1       4.545   5.819  19.347  0.00  0.00    +0.000 A 
ATOM     14  C   UNL     1       3.386   6.585  19.127  0.00  0.00    +0.000 A 
ENDROOT
BRANCH  12  15
ATOM     15  C   UNL     1       6.831   5.033  18.796  0.00  0.00    +0.000 C 
ATOM     16  N   UNL     1       7.403   4.240  17.839  0.00  0.00    +0.000 N 
ATOM     17  O   UNL     1       7.324   5.084  19.917  0.00  0.00    +0.000 OA
ATOM     18  H   UNL     1       7.092   4.154  16.886  0.00  0.00    +0.000 HD
ATOM     19  H   UNL     1       8.237   3.736  18.111  0.00  0.00    +0.000 HD
ENDBRANCH  12  15
BRANCH   1  20
ATOM     20  C   UNL     1       1.846   5.407  20.659  0.00  0.00    +0.000 C 
BRANCH  20  21
ATOM     21  C   UNL     1       1.509   4.421  19.528  0.00  0.00    +0.000 C 
BRANCH  21  22
ATOM     22  C   UNL     1       2.064   3.011  19.788  0.00  0.00    +0.000 C 
BRANCH  22  24
ATOM     23  C   UNL     1       4.353   2.229  20.081  0.00  0.00    +0.000 C 
ATOM     24  N   UNL     1       3.359   2.744  19.136  0.00  0.00    +0.000 NA
ATOM     25  C   UNL     1       3.188   1.787  18.038  0.00  0.00    +0.000 C 
ENDBRANCH  22  24
ENDBRANCH  21  22
ENDBRANCH  20  21
ENDBRANCH   1  20
TORSDOF 5
ENDMDL
MODEL 3
REMARK VINA RESULT:      -6.2      7.866     11.462
REMARK  Name = 
REMARK  7 active torsions:
REMARK  status: ('A' for Active; 'I' for Inactive)
REMARK    1  A    between atoms: C_1  and  N_2
REMARK    2  A    between atoms: N_2  and  C_3
REMARK    3  A    between atoms: N_2  and  C_4
REMARK    4  A    between atoms: C_4  and  C_5
REMARK    5  A    between atoms: C_5  and  C_6
REMARK    6  A    between atoms: C_6  and  N_7
REMARK    7  A    between atoms: C_18  and  C_19
REMARK                            x       y       z     vdW  Elec       q    Type
REMARK                         _______ _______ _______ _____ _____    ______ ____
ROOT
ATOM      1  N   UNL     1      -3.613  12.322  19.742  0.00  0.00    +0.000 N 
ATOM      2  C   UNL     1      -3.241  11.603  18.577  0.00  0.00    +0.000 A 
ATOM      3  C   UNL     1      -2.030  10.894  18.531  0.00  0.00    +0.000 A 
ATOM      4  C   UNL     1      -1.710  10.078  17.439  0.00  0.00    +0.000 A 
ATOM      5  C   UNL     1      -2.586   9.976  16.366  0.00  0.00    +0.000 A 
ATOM      6  C   UNL     1      -3.781  10.693  16.378  0.00  0.00    +0.000 A 
ATOM      7  C   UNL     1      -4.115  11.491  17.480  0.00  0.00    +0.000 A 
ATOM      8  S   UNL     1      -5.674  12.366  17.433  0.00  0.00    +0.000 S 
ATOM      9  C   UNL     1      -6.004  12.476  19.184  0.00  0.00    +0.000 A 
ATOM     10  C   UNL     1      -7.341  12.534  19.595  0.00  0.00    +0.000 A 
ATOM     11  C   UNL     1      -7.665  12.568  20.953  0.00  0.00    +0.000 A 
ATOM     12  C   UNL     1      -6.651  12.564  21.913  0.00  0.00    +0.000 A 
ATOM     13  C   UNL     1      -5.310  12.542  21.493  0.00  0.00    +0.000 A 
ATOM     14  C   UNL     1      -4.962  12.496  20.131  0.00  0.00    +0.000 A 
ENDROOT
BRANCH  12  15
ATOM     15  C   UNL     1      -6.918  12.542  23.380  0.00  0.00    +0.000 C 
ATOM     16  N   UNL     1      -6.477  13.588  24.144  0.00  0.00    +0.000 N 
ATOM     17  O   UNL     1      -7.526  11.618  23.908  0.00  0.00    +0.000 OA
ATOM     18  H   UNL     1      -5.998  14.403  23.802  0.00  0.00    +0.000 HD
ATOM     19  H   UNL     1      -6.697  13.549  25.131  0.00  0.00    +0.000 HD
ENDBRANCH  12  15
BRANCH   1  20
ATOM     20  C   UNL     1      -2.621  13.269  20.302  0.00  0.00    +0.000 C 
BRANCH  20  21
ATOM     21  C   UNL     1      -1.980  12.720  21.587  0.00  0.00    +0.000 C 
BRANCH  21  22
ATOM     22  C   UNL     1      -0.456  12.561  21.468  0.00  0.00    +0.000 C 
BRANCH  22  24
ATOM     23  C   UNL     1      -0.944  10.689  22.951  0.00  0.00    +0.000 C 
ATOM     24  N   UNL     1       0.081  11.375  22.159  0.00  0.00    +0.000 NA
ATOM     25  C   UNL     1       0.658  10.438  21.189  0.00  0.00    +0.000 C 
ENDBRANCH  22  24
ENDBRANCH  21  22
ENDBRANCH  20  21
ENDBRANCH   1  20
TORSDOF 5
ENDMDL
MODEL 4
REMARK VINA RESULT:      -6.2      1.233      1.408
REMARK  Name = 
REMARK  7 active torsions:
REMARK  status: ('A' for Active; 'I' for Inactive)
REMARK    1  A    between atoms: C_1  and  N_2
REMARK    2  A    between atoms: N_2  and  C_3
REMARK    3  A    between atoms: N_2  and  C_4
REMARK    4  A    between atoms: C_4  and  C_5
REMARK    5  A    between atoms: C_5  and  C_6
REMARK    6  A    between atoms: C_6  and  N_7
REMARK    7  A    between atoms: C_18  and  C_19
REMARK                            x       y       z     vdW  Elec       q    Type
REMARK                         _______ _______ _______ _____ _____    ______ ____
ROOT
ATOM      1  N   UNL     1       2.089   6.929  20.279  0.00  0.00    +0.000 N 
ATOM      2  C   UNL     1       1.420   8.159  20.506  0.00  0.00    +0.000 A 
ATOM      3  C   UNL     1       1.033   8.534  21.802  0.00  0.00    +0.000 A 
ATOM      4  C   UNL     1       0.488   9.799  22.058  0.00  0.00    +0.000 A 
ATOM      5  C   UNL     1       0.301  10.700  21.016  0.00  0.00    +0.000 A 
ATOM      6  C   UNL     1       0.652  10.337  19.718  0.00  0.00    +0.000 A 
ATOM      7  C   UNL     1       1.220   9.082  19.463  0.00  0.00    +0.000 A 
ATOM      8  S   UNL     1       1.663   8.695  17.773  0.00  0.00    +0.000 S 
ATOM      9  C   UNL     1       2.990   7.540  18.073  0.00  0.00    +0.000 A 
ATOM     10  C   UNL     1       4.000   7.439  17.110  0.00  0.00    +0.000 A 
ATOM     11  C   UNL     1       5.091   6.592  17.310  0.00  0.00    +0.000 A 
ATOM     12  C   UNL     1       5.173   5.822  18.473  0.00  0.00    +0.000 A 
ATOM     13  C   UNL     1       4.138   5.901  19.421  0.00  0.00    +0.000 A 
ATOM     14  C   UNL     1       3.036   6.756  19.242  0.00  0.00    +0.000 A 
ENDROOT
BRANCH  12  15
ATOM     15  C   UNL     1       6.332   4.937  18.785  0.00  0.00    +0.000 C 
ATOM     16  N   UNL     1       6.700   3.989  17.871  0.00  0.00    +0.000 N 
ATOM     17  O   UNL     1       6.959   5.047  19.832  0.00  0.00    +0.000 OA
ATOM     18  H   UNL     1       6.270   3.840  16.974  0.00  0.00    +0.000 HD
ATOM     19  H   UNL     1       7.505   3.423  18.108  0.00  0.00    +0.000 HD
ENDBRANCH  12  15
BRANCH   1  20
ATOM     20  C   UNL     1       1.467   5.705  20.837  0.00  0.00    +0.000 C 
BRANCH  20  21
ATOM     21  C   UNL     1       2.119   4.433  20.270  0.00  0.00    +0.000 C 
BRANCH  21  22
ATOM     22  C   UNL     1       1.110   3.518  19.557  0.00  0.00    +0.000 C 
BRANCH  22  24
ATOM     23  C   UNL     1       2.156   3.682  17.363  0.00  0.00    +0.000 C 
ATOM     24  N   UNL     1       1.671   2.780  18.411  0.00  0.00    +0.000 NA
ATOM     25  C   UNL     1       2.766   1.910  18.851  0.00  0.00    +0.000 C 
ENDBRANCH  22  24
ENDBRANCH  21  22
ENDBRANCH  20  21
ENDBRANCH   1  20
TORSDOF 5
ENDMDL
MODEL 5
REMARK VINA RESULT:      -6.1      2.190      4.386
REMARK  Name = 
REMARK  7 active torsions:
REMARK  status: ('A' for Active; 'I' for Inactive)
REMARK    1  A    between atoms: C_1  and  N_2
REMARK    2  A    between atoms: N_2  and  C_3
REMARK    3  A    between atoms: N_2  and  C_4
REMARK    4  A    between atoms: C_4  and  C_5
REMARK    5  A    between atoms: C_5  and  C_6
REMARK    6  A    between atoms: C_6  and  N_7
REMARK    7  A    between atoms: C_18  and  C_19
REMARK                            x       y       z     vdW  Elec       q    Type
REMARK                         _______ _______ _______ _____ _____    ______ ____
ROOT
ATOM      1  N   UNL     1       3.062   6.904  18.485  0.00  0.00    +0.000 N 
ATOM      2  C   UNL     1       2.301   8.084  18.685  0.00  0.00    +0.000 A 
ATOM      3  C   UNL     1       2.208   9.055  17.674  0.00  0.00    +0.000 A 
ATOM      4  C   UNL     1       1.360  10.161  17.809  0.00  0.00    +0.000 A 
ATOM      5  C   UNL     1       0.609  10.326  18.966  0.00  0.00    +0.000 A 
ATOM      6  C   UNL     1       0.707   9.389  19.993  0.00  0.00    +0.000 A 
ATOM      7  C   UNL     1       1.535   8.268  19.851  0.00  0.00    +0.000 A 
ATOM      8  S   UNL     1       1.595   7.099  21.204  0.00  0.00    +0.000 S 
ATOM      9  C   UNL     1       2.004   5.618  20.296  0.00  0.00    +0.000 A 
ATOM     10  C   UNL     1       1.576   4.392  20.818  0.00  0.00    +0.000 A 
ATOM     11  C   UNL     1       1.819   3.203  20.129  0.00  0.00    +0.000 A 
ATOM     12  C   UNL     1       2.510   3.228  18.915  0.00  0.00    +0.000 A 
ATOM     13  C   UNL     1       2.968   4.458  18.413  0.00  0.00    +0.000 A 
ATOM     14  C   UNL     1       2.724   5.669  19.087  0.00  0.00    +0.000 A 
ENDROOT
BRANCH  12  15
ATOM     15  C   UNL     1       2.759   2.009  18.094  0.00  0.00    +0.000 C 
ATOM     16  N   UNL     1       3.738   1.139  18.488  0.00  0.00    +0.000 N 
ATOM     17  O   UNL     1       2.104   1.770  17.085  0.00  0.00    +0.000 OA
ATOM     18  H   UNL     1       4.307   1.230  19.313  0.00  0.00    +0.000 HD
ATOM     19  H   UNL     1       3.862   0.312  17.918  0.00  0.00    +0.000 HD
ENDBRANCH  12  15
BRANCH   1  20
ATOM     20  C   UNL     1       4.457   7.066  18.014  0.00  0.00    +0.000 C 
BRANCH  20  21
ATOM     21  C   UNL     1       4.675   6.386  16.653  0.00  0.00    +0.000 C 
BRANCH  21  22
ATOM     22  C   UNL     1       6.159   6.319  16.255  0.00  0.00    +0.000 C 
BRANCH  22  24
ATOM     23  C   UNL     1       7.345   4.613  17.528  0.00  0.00    +0.000 C 
ATOM     24  N   UNL     1       6.719   4.955  16.248  0.00  0.00    +0.000 NA
ATOM     25  C   UNL     1       5.672   3.976  15.939  0.00  0.00    +0.000 C 
ENDBRANCH  22  24
ENDBRANCH  21  22
ENDBRANCH  20  21
ENDBRANCH   1  20
TORSDOF 5
ENDMDL
MODEL 6
REMARK VINA RESULT:      -6.1      2.595      4.988
REMARK  Name = 
REMARK  7 active torsions:
REMARK  status: ('A' for Active; 'I' for Inactive)
REMARK    1  A    between atoms: C_1  and  N_2
REMARK    2  A    between atoms: N_2  and  C_3
REMARK    3  A    between atoms: N_2  and  C_4
REMARK    4  A    between atoms: C_4  and  C_5
REMARK    5  A    between atoms: C_5  and  C_6
REMARK    6  A    between atoms: C_6  and  N_7
REMARK    7  A    between atoms: C_18  and  C_19
REMARK                            x       y       z     vdW  Elec       q    Type
REMARK                         _______ _______ _______ _____ _____    ______ ____
ROOT
ATOM      1  N   UNL     1       3.330   5.099  17.643  0.00  0.00    +0.000 N 
ATOM      2  C   UNL     1       2.703   4.372  18.687  0.00  0.00    +0.000 A 
ATOM      3  C   UNL     1       1.356   3.989  18.584  0.00  0.00    +0.000 A 
ATOM      4  C   UNL     1       0.762   3.164  19.547  0.00  0.00    +0.000 A 
ATOM      5  C   UNL     1       1.500   2.728  20.641  0.00  0.00    +0.000 A 
ATOM      6  C   UNL     1       2.829   3.120  20.778  0.00  0.00    +0.000 A 
ATOM      7  C   UNL     1       3.434   3.924  19.803  0.00  0.00    +0.000 A 
ATOM      8  S   UNL     1       5.151   4.370  20.038  0.00  0.00    +0.000 S 
ATOM      9  C   UNL     1       5.635   4.586  18.333  0.00  0.00    +0.000 A 
ATOM     10  C   UNL     1       6.974   4.351  18.000  0.00  0.00    +0.000 A 
ATOM     11  C   UNL     1       7.403   4.453  16.675  0.00  0.00    +0.000 A 
ATOM     12  C   UNL     1       6.498   4.809  15.673  0.00  0.00    +0.000 A 
ATOM     13  C   UNL     1       5.163   5.078  16.020  0.00  0.00    +0.000 A 
ATOM     14  C   UNL     1       4.708   4.971  17.346  0.00  0.00    +0.000 A 
ENDROOT
BRANCH  12  15
ATOM     15  C   UNL     1       6.868   4.883  14.230  0.00  0.00    +0.000 C 
ATOM     16  N   UNL     1       6.176   4.116  13.334  0.00  0.00    +0.000 N 
ATOM     17  O   UNL     1       7.766   5.617  13.835  0.00  0.00    +0.000 OA
ATOM     18  H   UNL     1       5.406   3.507  13.554  0.00  0.00    +0.000 HD
ATOM     19  H   UNL     1       6.440   4.211  12.361  0.00  0.00    +0.000 HD
ENDBRANCH  12  15
BRANCH   1  20
ATOM     20  C   UNL     1       2.646   6.320  17.159  0.00  0.00    +0.000 C 
BRANCH  20  21
ATOM     21  C   UNL     1       2.699   7.448  18.203  0.00  0.00    +0.000 C 
BRANCH  21  22
ATOM     22  C   UNL     1       1.867   8.674  17.794  0.00  0.00    +0.000 C 
BRANCH  22  24
ATOM     23  C   UNL     1       0.171  10.193  18.659  0.00  0.00    +0.000 C 
ATOM     24  N   UNL     1       1.444   9.519  18.925  0.00  0.00    +0.000 NA
ATOM     25  C   UNL     1       1.325   8.715  20.145  0.00  0.00    +0.000 C 
ENDBRANCH  22  24
ENDBRANCH  21  22
ENDBRANCH  20  21
ENDBRANCH   1  20
TORSDOF 5
ENDMDL
MODEL 7
REMARK VINA RESULT:      -6.0      2.068      4.667
REMARK  Name = 
REMARK  7 active torsions:
REMARK  status: ('A' for Active; 'I' for Inactive)
REMARK    1  A    between atoms: C_1  and  N_2
REMARK    2  A    between atoms: N_2  and  C_3
REMARK    3  A    between atoms: N_2  and  C_4
REMARK    4  A    between atoms: C_4  and  C_5
REMARK    5  A    between atoms: C_5  and  C_6
REMARK    6  A    between atoms: C_6  and  N_7
REMARK    7  A    between atoms: C_18  and  C_19
REMARK                            x       y       z     vdW  Elec       q    Type
REMARK                         _______ _______ _______ _____ _____    ______ ____
ROOT
ATOM      1  N   UNL     1       2.339   7.582  18.304  0.00  0.00    +0.000 N 
ATOM      2  C   UNL     1       1.677   8.756  18.745  0.00  0.00    +0.000 A 
ATOM      3  C   UNL     1       1.239   9.720  17.822  0.00  0.00    +0.000 A 
ATOM      4  C   UNL     1       0.474  10.819  18.231  0.00  0.00    +0.000 A 
ATOM      5  C   UNL     1       0.153  10.983  19.573  0.00  0.00    +0.000 A 
ATOM      6  C   UNL     1       0.601  10.054  20.509  0.00  0.00    +0.000 A 
ATOM      7  C   UNL     1       1.346   8.940  20.100  0.00  0.00    +0.000 A 
ATOM      8  S   UNL     1       1.870   7.780  21.357  0.00  0.00    +0.000 S 
ATOM      9  C   UNL     1       1.965   6.297  20.368  0.00  0.00    +0.000 A 
ATOM     10  C   UNL     1       1.752   5.070  21.007  0.00  0.00    +0.000 A 
ATOM     11  C   UNL     1       1.762   3.879  20.279  0.00  0.00    +0.000 A 
ATOM     12  C   UNL     1       2.004   3.904  18.904  0.00  0.00    +0.000 A 
ATOM     13  C   UNL     1       2.252   5.135  18.274  0.00  0.00    +0.000 A 
ATOM     14  C   UNL     1       2.237   6.347  18.988  0.00  0.00    +0.000 A 
ENDROOT
BRANCH  12  15
ATOM     15  C   UNL     1       1.975   2.682  18.049  0.00  0.00    +0.000 C 
ATOM     16  N   UNL     1       1.371   1.555  18.534  0.00  0.00    +0.000 N 
ATOM     17  O   UNL     1       2.472   2.671  16.929  0.00  0.00    +0.000 OA
ATOM     18  H   UNL     1       0.910   1.473  19.425  0.00  0.00    +0.000 HD
ATOM     19  H   UNL     1       1.351   0.753  17.917  0.00  0.00    +0.000 HD
ENDBRANCH  12  15
BRANCH   1  20
ATOM     20  C   UNL     1       3.492   7.754  17.391  0.00  0.00    +0.000 C 
BRANCH  20  21
ATOM     21  C   UNL     1       4.684   6.880  17.815  0.00  0.00    +0.000 C 
BRANCH  21  22
ATOM     22  C   UNL     1       5.440   6.286  16.617  0.00  0.00    +0.000 C 
BRANCH  22  24
ATOM     23  C   UNL     1       7.377   7.475  17.492  0.00  0.00    +0.000 C 
ATOM     24  N   UNL     1       6.906   6.294  16.765  0.00  0.00    +0.000 NA
ATOM     25  C   UNL     1       7.355   5.082  17.458  0.00  0.00    +0.000 C 
ENDBRANCH  22  24
ENDBRANCH  21  22
ENDBRANCH  20  21
ENDBRANCH   1  20
TORSDOF 5
ENDMDL
MODEL 8
REMARK VINA RESULT:      -5.9      7.132     10.652
REMARK  Name = 
REMARK  7 active torsions:
REMARK  status: ('A' for Active; 'I' for Inactive)
REMARK    1  A    between atoms: C_1  and  N_2
REMARK    2  A    between atoms: N_2  and  C_3
REMARK    3  A    between atoms: N_2  and  C_4
REMARK    4  A    between atoms: C_4  and  C_5
REMARK    5  A    between atoms: C_5  and  C_6
REMARK    6  A    between atoms: C_6  and  N_7
REMARK    7  A    between atoms: C_18  and  C_19
REMARK                            x       y       z     vdW  Elec       q    Type
REMARK                         _______ _______ _______ _____ _____    ______ ____
ROOT
ATOM      1  N   UNL     1      -2.577  12.341  19.707  0.00  0.00    +0.000 N 
ATOM      2  C   UNL     1      -2.654  11.537  18.541  0.00  0.00    +0.000 A 
ATOM      3  C   UNL     1      -1.557  10.760  18.134  0.00  0.00    +0.000 A 
ATOM      4  C   UNL     1      -1.661   9.867  17.061  0.00  0.00    +0.000 A 
ATOM      5  C   UNL     1      -2.858   9.753  16.363  0.00  0.00    +0.000 A 
ATOM      6  C   UNL     1      -3.950  10.536  16.732  0.00  0.00    +0.000 A 
ATOM      7  C   UNL     1      -3.856  11.412  17.821  0.00  0.00    +0.000 A 
ATOM      8  S   UNL     1      -5.306  12.369  18.247  0.00  0.00    +0.000 S 
ATOM      9  C   UNL     1      -5.007  12.597  19.992  0.00  0.00    +0.000 A 
ATOM     10  C   UNL     1      -6.116  12.752  20.831  0.00  0.00    +0.000 A 
ATOM     11  C   UNL     1      -5.951  12.882  22.211  0.00  0.00    +0.000 A 
ATOM     12  C   UNL     1      -4.668  12.876  22.763  0.00  0.00    +0.000 A 
ATOM     13  C   UNL     1      -3.556  12.755  21.912  0.00  0.00    +0.000 A 
ATOM     14  C   UNL     1      -3.702  12.613  20.521  0.00  0.00    +0.000 A 
ENDROOT
BRANCH  12  15
ATOM     15  C   UNL     1      -4.412  12.953  24.231  0.00  0.00    +0.000 C 
ATOM     16  N   UNL     1      -5.073  12.090  25.060  0.00  0.00    +0.000 N 
ATOM     17  O   UNL     1      -3.622  13.763  24.702  0.00  0.00    +0.000 OA
ATOM     18  H   UNL     1      -5.715  11.372  24.768  0.00  0.00    +0.000 HD
ATOM     19  H   UNL     1      -4.857  12.157  26.046  0.00  0.00    +0.000 HD
ENDBRANCH  12  15
BRANCH   1  20
ATOM     20  C   UNL     1      -1.422  13.262  19.822  0.00  0.00    +0.000 C 
BRANCH  20  21
ATOM     21  C   UNL     1      -0.555  12.928  21.048  0.00  0.00    +0.000 C 
BRANCH  21  22
ATOM     22  C   UNL     1       0.522  11.876  20.743  0.00  0.00    +0.000 C 
BRANCH  22  24
ATOM     23  C   UNL     1      -0.557  10.750  22.616  0.00  0.00    +0.000 C 
ATOM     24  N   UNL     1       0.629  10.812  21.758  0.00  0.00    +0.000 NA
ATOM     25  C   UNL     1       0.833   9.510  21.112  0.00  0.00    +0.000 C 
ENDBRANCH  22  24
ENDBRANCH  21  22
ENDBRANCH  20  21
ENDBRANCH   1  20
TORSDOF 5
ENDMDL
MODEL 9
REMARK VINA RESULT:      -5.9      6.795      9.660
REMARK  Name = 
REMARK  7 active torsions:
REMARK  status: ('A' for Active; 'I' for Inactive)
REMARK    1  A    between atoms: C_1  and  N_2
REMARK    2  A    between atoms: N_2  and  C_3
REMARK    3  A    between atoms: N_2  and  C_4
REMARK    4  A    between atoms: C_4  and  C_5
REMARK    5  A    between atoms: C_5  and  C_6
REMARK    6  A    between atoms: C_6  and  N_7
REMARK    7  A    between atoms: C_18  and  C_19
REMARK                            x       y       z     vdW  Elec       q    Type
REMARK                         _______ _______ _______ _____ _____    ______ ____
ROOT
ATOM      1  N   UNL     1      -1.614  11.680  20.304  0.00  0.00    +0.000 N 
ATOM      2  C   UNL     1      -0.675  10.798  20.896  0.00  0.00    +0.000 A 
ATOM      3  C   UNL     1      -0.601  10.664  22.292  0.00  0.00    +0.000 A 
ATOM      4  C   UNL     1       0.231   9.706  22.884  0.00  0.00    +0.000 A 
ATOM      5  C   UNL     1       1.020   8.882  22.091  0.00  0.00    +0.000 A 
ATOM      6  C   UNL     1       0.983   9.018  20.705  0.00  0.00    +0.000 A 
ATOM      7  C   UNL     1       0.133   9.959  20.108  0.00  0.00    +0.000 A 
ATOM      8  S   UNL     1       0.127  10.061  18.322  0.00  0.00    +0.000 S 
ATOM      9  C   UNL     1      -1.536  10.660  18.067  0.00  0.00    +0.000 A 
ATOM     10  C   UNL     1      -2.173  10.328  16.866  0.00  0.00    +0.000 A 
ATOM     11  C   UNL     1      -3.491  10.721  16.630  0.00  0.00    +0.000 A 
ATOM     12  C   UNL     1      -4.179  11.469  17.588  0.00  0.00    +0.000 A 
ATOM     13  C   UNL     1      -3.522  11.830  18.777  0.00  0.00    +0.000 A 
ATOM     14  C   UNL     1      -2.198  11.434  19.039  0.00  0.00    +0.000 A 
ENDROOT
BRANCH  12  15
ATOM     15  C   UNL     1      -5.605  11.879  17.433  0.00  0.00    +0.000 C 
ATOM     16  N   UNL     1      -6.583  11.052  17.914  0.00  0.00    +0.000 N 
ATOM     17  O   UNL     1      -5.913  12.936  16.895  0.00  0.00    +0.000 OA
ATOM     18  H   UNL     1      -6.431  10.182  18.395  0.00  0.00    +0.000 HD
ATOM     19  H   UNL     1      -7.536  11.375  17.810  0.00  0.00    +0.000 HD
ENDBRANCH  12  15
BRANCH   1  20
ATOM     20  C   UNL     1      -1.644  13.075  20.801  0.00  0.00    +0.000 C 
BRANCH  20  21
ATOM     21  C   UNL     1      -1.075  14.056  19.763  0.00  0.00    +0.000 C 
BRANCH  21  22
ATOM     22  C   UNL     1       0.390  14.429  20.041  0.00  0.00    +0.000 C 
BRANCH  22  24
ATOM     23  C   UNL     1       2.136  14.000  18.396  0.00  0.00    +0.000 C 
ATOM     24  N   UNL     1       1.369  13.457  19.520  0.00  0.00    +0.000 NA
ATOM     25  C   UNL     1       2.289  13.042  20.584  0.00  0.00    +0.000 C 
ENDBRANCH  22  24
ENDBRANCH  21  22
ENDBRANCH  20  21
ENDBRANCH   1  20
TORSDOF 5
ENDMDL
