MODEL 1
REMARK VINA RESULT:      -8.1      0.000      0.000
REMARK  Name = 
REMARK  8 active torsions:
REMARK  status: ('A' for Active; 'I' for Inactive)
REMARK    1  A    between atoms: C_1  and  O_2
REMARK    2  A    between atoms: O_2  and  C_3
REMARK    3  A    between atoms: C_6  and  C_7
REMARK    4  A    between atoms: C_7  and  O_8
REMARK    5  A    between atoms: O_8  and  N_9
REMARK    6  A    between atoms: N_9  and  C_10
REMARK    7  A    between atoms: C_10  and  C_11
REMARK    8  A    between atoms: C_14  and  C_15
REMARK                            x       y       z     vdW  Elec       q    Type
REMARK                         _______ _______ _______ _____ _____    ______ ____
ROOT
ATOM      1  N   UNL     1       3.043   5.127  18.097  0.00  0.00    +0.000 N 
ATOM      2  C   UNL     1       2.667   4.269  19.173  0.00  0.00    +0.000 A 
ATOM      3  C   UNL     1       1.316   4.209  19.554  0.00  0.00    +0.000 A 
ATOM      4  C   UNL     1       0.929   3.419  20.638  0.00  0.00    +0.000 A 
ATOM      5  C   UNL     1       1.887   2.692  21.325  0.00  0.00    +0.000 A 
ATOM      6  C   UNL     1       3.192   2.769  20.877  0.00  0.00    +0.000 A 
ATOM      7  N   UNL     1       3.585   3.520  19.823  0.00  0.00    +0.000 NA
ENDROOT
BRANCH   1   8
ATOM      8  O   UNL     1       2.251   6.297  17.882  0.00  0.00    +0.000 OA
BRANCH   8   9
ATOM      9  C   UNL     1       2.805   7.331  18.700  0.00  0.00    +0.000 C 
BRANCH   9  13
ATOM     10  C   UNL     1       0.077   9.801  21.000  0.00  0.00    +0.000 A 
ATOM     11  C   UNL     1       0.529   8.600  21.551  0.00  0.00    +0.000 A 
ATOM     12  C   UNL     1       1.389   7.754  20.825  0.00  0.00    +0.000 A 
ATOM     13  C   UNL     1       1.792   8.096  19.529  0.00  0.00    +0.000 A 
ATOM     14  C   UNL     1       1.274   9.274  18.969  0.00  0.00    +0.000 A 
ATOM     15  C   UNL     1       0.426  10.115  19.690  0.00  0.00    +0.000 A 
BRANCH  10  17
ATOM     16  C   UNL     1      -0.683  10.261  23.186  0.00  0.00    +0.000 C 
ATOM     17  O   UNL     1      -0.722  10.583  21.794  0.00  0.00    +0.000 OA
ENDBRANCH  10  17
ENDBRANCH   9  13
ENDBRANCH   8   9
ENDBRANCH   1   8
BRANCH   1  18
ATOM     18  C   UNL     1       4.480   5.453  18.099  0.00  0.00    +0.000 C 
BRANCH  18  19
ATOM     19  C   UNL     1       5.263   4.970  16.882  0.00  0.00    +0.000 A 
ATOM     20  C   UNL     1       5.178   3.618  16.513  0.00  0.00    +0.000 A 
ATOM     21  C   UNL     1       5.542   3.198  15.229  0.00  0.00    +0.000 A 
ATOM     22  C   UNL     1       6.010   4.123  14.287  0.00  0.00    +0.000 A 
ATOM     23  C   UNL     1       6.236   5.444  14.701  0.00  0.00    +0.000 A 
ATOM     24  C   UNL     1       5.865   5.866  15.987  0.00  0.00    +0.000 A 
BRANCH  22  25
ATOM     25  C   UNL     1       6.167   3.741  12.834  0.00  0.00    +0.000 C 
ATOM     26  F   UNL     1       5.005   3.817  12.124  0.00  0.00    +0.000 F 
ATOM     27  F   UNL     1       7.045   4.556  12.182  0.00  0.00    +0.000 F 
ATOM     28  F   UNL     1       6.631   2.475  12.658  0.00  0.00    +0.000 F 
ENDBRANCH  22  25
ENDBRANCH  18  19
ENDBRANCH   1  18
TORSDOF 7
ENDMDL
MODEL 2
REMARK VINA RESULT:      -8.1      0.746      1.397
REMARK  Name = 
REMARK  8 active torsions:
REMARK  status: ('A' for Active; 'I' for Inactive)
REMARK    1  A    between atoms: C_1  and  O_2
REMARK    2  A    between atoms: O_2  and  C_3
REMARK    3  A    between atoms: C_6  and  C_7
REMARK    4  A    between atoms: C_7  and  O_8
REMARK    5  A    between atoms: O_8  and  N_9
REMARK    6  A    between atoms: N_9  and  C_10
REMARK    7  A    between atoms: C_10  and  C_11
REMARK    8  A    between atoms: C_14  and  C_15
REMARK                            x       y       z     vdW  Elec       q    Type
REMARK                         _______ _______ _______ _____ _____    ______ ____
ROOT
ATOM      1  N   UNL     1       3.030   5.033  18.108  0.00  0.00    +0.000 N 
ATOM      2  C   UNL     1       2.666   4.193  19.202  0.00  0.00    +0.000 A 
ATOM      3  C   UNL     1       1.319   4.132  19.595  0.00  0.00    +0.000 A 
ATOM      4  C   UNL     1       0.944   3.358  20.695  0.00  0.00    +0.000 A 
ATOM      5  C   UNL     1       1.912   2.649  21.388  0.00  0.00    +0.000 A 
ATOM      6  C   UNL     1       3.213   2.726  20.928  0.00  0.00    +0.000 A 
ATOM      7  N   UNL     1       3.594   3.460  19.858  0.00  0.00    +0.000 NA
ENDROOT
BRANCH   1   8
ATOM      8  O   UNL     1       2.230   6.195  17.880  0.00  0.00    +0.000 OA
BRANCH   8   9
ATOM      9  C   UNL     1       2.786   7.247  18.673  0.00  0.00    +0.000 C 
BRANCH   9  13
ATOM     10  C   UNL     1      -0.163  10.221  19.811  0.00  0.00    +0.000 A 
ATOM     11  C   UNL     1       0.286  10.186  18.488  0.00  0.00    +0.000 A 
ATOM     12  C   UNL     1       1.265   9.257  18.086  0.00  0.00    +0.000 A 
ATOM     13  C   UNL     1       1.819   8.366  19.012  0.00  0.00    +0.000 A 
ATOM     14  C   UNL     1       1.403   8.462  20.349  0.00  0.00    +0.000 A 
ATOM     15  C   UNL     1       0.429   9.377  20.747  0.00  0.00    +0.000 A 
BRANCH  10  17
ATOM     16  C   UNL     1      -0.876  11.966  21.229  0.00  0.00    +0.000 C 
ATOM     17  O   UNL     1      -1.149  11.127  20.105  0.00  0.00    +0.000 OA
ENDBRANCH  10  17
ENDBRANCH   9  13
ENDBRANCH   8   9
ENDBRANCH   1   8
BRANCH   1  18
ATOM     18  C   UNL     1       4.465   5.367  18.094  0.00  0.00    +0.000 C 
BRANCH  18  19
ATOM     19  C   UNL     1       5.199   5.041  16.798  0.00  0.00    +0.000 A 
ATOM     20  C   UNL     1       5.570   3.710  16.544  0.00  0.00    +0.000 A 
ATOM     21  C   UNL     1       5.888   3.286  15.250  0.00  0.00    +0.000 A 
ATOM     22  C   UNL     1       5.852   4.188  14.178  0.00  0.00    +0.000 A 
ATOM     23  C   UNL     1       5.628   5.546  14.455  0.00  0.00    +0.000 A 
ATOM     24  C   UNL     1       5.304   5.969  15.752  0.00  0.00    +0.000 A 
BRANCH  22  25
ATOM     25  C   UNL     1       5.942   3.704  12.751  0.00  0.00    +0.000 C 
ATOM     26  F   UNL     1       6.913   4.328  12.025  0.00  0.00    +0.000 F 
ATOM     27  F   UNL     1       6.234   2.373  12.679  0.00  0.00    +0.000 F 
ATOM     28  F   UNL     1       4.787   3.871  12.053  0.00  0.00    +0.000 F 
ENDBRANCH  22  25
ENDBRANCH  18  19
ENDBRANCH   1  18
TORSDOF 7
ENDMDL
MODEL 3
REMARK VINA RESULT:      -7.8      1.222      1.781
REMARK  Name = 
REMARK  8 active torsions:
REMARK  status: ('A' for Active; 'I' for Inactive)
REMARK    1  A    between atoms: C_1  and  O_2
REMARK    2  A    between atoms: O_2  and  C_3
REMARK    3  A    between atoms: C_6  and  C_7
REMARK    4  A    between atoms: C_7  and  O_8
REMARK    5  A    between atoms: O_8  and  N_9
REMARK    6  A    between atoms: N_9  and  C_10
REMARK    7  A    between atoms: C_10  and  C_11
REMARK    8  A    between atoms: C_14  and  C_15
REMARK                            x       y       z     vdW  Elec       q    Type
REMARK                         _______ _______ _______ _____ _____    ______ ____
ROOT
ATOM      1  N   UNL     1       3.298   5.882  19.179  0.00  0.00    +0.000 N 
ATOM      2  C   UNL     1       2.813   4.642  19.691  0.00  0.00    +0.000 A 
ATOM      3  C   UNL     1       1.493   4.573  20.170  0.00  0.00    +0.000 A 
ATOM      4  C   UNL     1       1.011   3.387  20.724  0.00  0.00    +0.000 A 
ATOM      5  C   UNL     1       1.842   2.280  20.791  0.00  0.00    +0.000 A 
ATOM      6  C   UNL     1       3.116   2.406  20.271  0.00  0.00    +0.000 A 
ATOM      7  N   UNL     1       3.599   3.543  19.720  0.00  0.00    +0.000 NA
ENDROOT
BRANCH   1   8
ATOM      8  O   UNL     1       2.736   7.080  19.719  0.00  0.00    +0.000 OA
BRANCH   8   9
ATOM      9  C   UNL     1       2.320   7.882  18.610  0.00  0.00    +0.000 C 
BRANCH   9  13
ATOM     10  C   UNL     1      -0.639  10.818  19.815  0.00  0.00    +0.000 A 
ATOM     11  C   UNL     1      -0.359  10.659  18.456  0.00  0.00    +0.000 A 
ATOM     12  C   UNL     1       0.617   9.740  18.026  0.00  0.00    +0.000 A 
ATOM     13  C   UNL     1       1.337   8.983  18.957  0.00  0.00    +0.000 A 
ATOM     14  C   UNL     1       1.088   9.206  20.320  0.00  0.00    +0.000 A 
ATOM     15  C   UNL     1       0.116  10.112  20.746  0.00  0.00    +0.000 A 
BRANCH  10  17
ATOM     16  C   UNL     1      -1.690  12.058  21.525  0.00  0.00    +0.000 C 
ATOM     17  O   UNL     1      -1.635  11.703  20.142  0.00  0.00    +0.000 OA
ENDBRANCH  10  17
ENDBRANCH   9  13
ENDBRANCH   8   9
ENDBRANCH   1   8
BRANCH   1  18
ATOM     18  C   UNL     1       4.769   5.954  19.151  0.00  0.00    +0.000 C 
BRANCH  18  19
ATOM     19  C   UNL     1       5.407   5.769  17.778  0.00  0.00    +0.000 A 
ATOM     20  C   UNL     1       6.300   4.703  17.581  0.00  0.00    +0.000 A 
ATOM     21  C   UNL     1       6.612   4.254  16.294  0.00  0.00    +0.000 A 
ATOM     22  C   UNL     1       6.045   4.869  15.171  0.00  0.00    +0.000 A 
ATOM     23  C   UNL     1       5.273   6.026  15.360  0.00  0.00    +0.000 A 
ATOM     24  C   UNL     1       4.956   6.472  16.652  0.00  0.00    +0.000 A 
BRANCH  22  25
ATOM     25  C   UNL     1       6.166   4.248  13.800  0.00  0.00    +0.000 C 
ATOM     26  F   UNL     1       7.142   4.810  13.032  0.00  0.00    +0.000 F 
ATOM     27  F   UNL     1       6.475   2.920  13.865  0.00  0.00    +0.000 F 
ATOM     28  F   UNL     1       5.022   4.329  13.070  0.00  0.00    +0.000 F 
ENDBRANCH  22  25
ENDBRANCH  18  19
ENDBRANCH   1  18
TORSDOF 7
ENDMDL
MODEL 4
REMARK VINA RESULT:      -7.8      1.173      1.379
REMARK  Name = 
REMARK  8 active torsions:
REMARK  status: ('A' for Active; 'I' for Inactive)
REMARK    1  A    between atoms: C_1  and  O_2
REMARK    2  A    between atoms: O_2  and  C_3
REMARK    3  A    between atoms: C_6  and  C_7
REMARK    4  A    between atoms: C_7  and  O_8
REMARK    5  A    between atoms: O_8  and  N_9
REMARK    6  A    between atoms: N_9  and  C_10
REMARK    7  A    between atoms: C_10  and  C_11
REMARK    8  A    between atoms: C_14  and  C_15
REMARK                            x       y       z     vdW  Elec       q    Type
REMARK                         _______ _______ _______ _____ _____    ______ ____
ROOT
ATOM      1  N   UNL     1       3.658   5.778  18.956  0.00  0.00    +0.000 N 
ATOM      2  C   UNL     1       3.026   4.656  19.570  0.00  0.00    +0.000 A 
ATOM      3  C   UNL     1       1.752   4.821  20.139  0.00  0.00    +0.000 A 
ATOM      4  C   UNL     1       1.134   3.754  20.793  0.00  0.00    +0.000 A 
ATOM      5  C   UNL     1       1.786   2.533  20.868  0.00  0.00    +0.000 A 
ATOM      6  C   UNL     1       3.021   2.430  20.258  0.00  0.00    +0.000 A 
ATOM      7  N   UNL     1       3.631   3.449  19.610  0.00  0.00    +0.000 NA
ENDROOT
BRANCH   1   8
ATOM      8  O   UNL     1       3.331   7.074  19.461  0.00  0.00    +0.000 OA
BRANCH   8   9
ATOM      9  C   UNL     1       2.555   7.730  18.455  0.00  0.00    +0.000 C 
BRANCH   9  13
ATOM     10  C   UNL     1      -0.399  10.609  19.806  0.00  0.00    +0.000 A 
ATOM     11  C   UNL     1       0.172   9.738  20.737  0.00  0.00    +0.000 A 
ATOM     12  C   UNL     1       1.110   8.768  20.335  0.00  0.00    +0.000 A 
ATOM     13  C   UNL     1       1.472   8.649  18.988  0.00  0.00    +0.000 A 
ATOM     14  C   UNL     1       0.839   9.488  18.059  0.00  0.00    +0.000 A 
ATOM     15  C   UNL     1      -0.086  10.454  18.458  0.00  0.00    +0.000 A 
BRANCH  10  17
ATOM     16  C   UNL     1      -2.066  12.199  19.298  0.00  0.00    +0.000 C 
ATOM     17  O   UNL     1      -1.269  11.550  20.292  0.00  0.00    +0.000 OA
ENDBRANCH  10  17
ENDBRANCH   9  13
ENDBRANCH   8   9
ENDBRANCH   1   8
BRANCH   1  18
ATOM     18  C   UNL     1       5.116   5.613  18.825  0.00  0.00    +0.000 C 
BRANCH  18  19
ATOM     19  C   UNL     1       5.633   5.469  17.397  0.00  0.00    +0.000 A 
ATOM     20  C   UNL     1       6.574   4.466  17.112  0.00  0.00    +0.000 A 
ATOM     21  C   UNL     1       6.793   4.036  15.799  0.00  0.00    +0.000 A 
ATOM     22  C   UNL     1       6.082   4.609  14.737  0.00  0.00    +0.000 A 
ATOM     23  C   UNL     1       5.254   5.711  15.003  0.00  0.00    +0.000 A 
ATOM     24  C   UNL     1       5.030   6.138  16.321  0.00  0.00    +0.000 A 
BRANCH  22  25
ATOM     25  C   UNL     1       6.115   3.995  13.358  0.00  0.00    +0.000 C 
ATOM     26  F   UNL     1       4.918   4.056  12.707  0.00  0.00    +0.000 F 
ATOM     27  F   UNL     1       7.007   4.623  12.539  0.00  0.00    +0.000 F 
ATOM     28  F   UNL     1       6.472   2.683  13.363  0.00  0.00    +0.000 F 
ENDBRANCH  22  25
ENDBRANCH  18  19
ENDBRANCH   1  18
TORSDOF 7
ENDMDL
MODEL 5
REMARK VINA RESULT:      -7.8      1.304      1.862
REMARK  Name = 
REMARK  8 active torsions:
REMARK  status: ('A' for Active; 'I' for Inactive)
REMARK    1  A    between atoms: C_1  and  O_2
REMARK    2  A    between atoms: O_2  and  C_3
REMARK    3  A    between atoms: C_6  and  C_7
REMARK    4  A    between atoms: C_7  and  O_8
REMARK    5  A    between atoms: O_8  and  N_9
REMARK    6  A    between atoms: N_9  and  C_10
REMARK    7  A    between atoms: C_10  and  C_11
REMARK    8  A    between atoms: C_14  and  C_15
REMARK                            x       y       z     vdW  Elec       q    Type
REMARK                         _______ _______ _______ _____ _____    ______ ____
ROOT
ATOM      1  N   UNL     1       3.124   5.735  19.247  0.00  0.00    +0.000 N 
ATOM      2  C   UNL     1       2.591   4.412  19.222  0.00  0.00    +0.000 A 
ATOM      3  C   UNL     1       1.257   4.208  19.613  0.00  0.00    +0.000 A 
ATOM      4  C   UNL     1       0.727   2.917  19.648  0.00  0.00    +0.000 A 
ATOM      5  C   UNL     1       1.526   1.844  19.287  0.00  0.00    +0.000 A 
ATOM      6  C   UNL     1       2.817   2.118  18.880  0.00  0.00    +0.000 A 
ATOM      7  N   UNL     1       3.346   3.362  18.828  0.00  0.00    +0.000 NA
ENDROOT
BRANCH   1   8
ATOM      8  O   UNL     1       2.578   6.644  20.206  0.00  0.00    +0.000 OA
BRANCH   8   9
ATOM      9  C   UNL     1       2.039   7.747  19.473  0.00  0.00    +0.000 C 
BRANCH   9  13
ATOM     10  C   UNL     1      -0.323  10.337  22.033  0.00  0.00    +0.000 A 
ATOM     11  C   UNL     1      -0.294  10.588  20.659  0.00  0.00    +0.000 A 
ATOM     12  C   UNL     1       0.485   9.791  19.799  0.00  0.00    +0.000 A 
ATOM     13  C   UNL     1       1.259   8.744  20.310  0.00  0.00    +0.000 A 
ATOM     14  C   UNL     1       1.268   8.550  21.700  0.00  0.00    +0.000 A 
ATOM     15  C   UNL     1       0.492   9.335  22.552  0.00  0.00    +0.000 A 
BRANCH  10  17
ATOM     16  C   UNL     1      -1.855  12.130  22.054  0.00  0.00    +0.000 C 
ATOM     17  O   UNL     1      -1.142  11.134  22.790  0.00  0.00    +0.000 OA
ENDBRANCH  10  17
ENDBRANCH   9  13
ENDBRANCH   8   9
ENDBRANCH   1   8
BRANCH   1  18
ATOM     18  C   UNL     1       4.597   5.759  19.273  0.00  0.00    +0.000 C 
BRANCH  18  19
ATOM     19  C   UNL     1       5.276   5.693  17.909  0.00  0.00    +0.000 A 
ATOM     20  C   UNL     1       6.280   4.735  17.695  0.00  0.00    +0.000 A 
ATOM     21  C   UNL     1       6.662   4.369  16.401  0.00  0.00    +0.000 A 
ATOM     22  C   UNL     1       6.055   4.963  15.287  0.00  0.00    +0.000 A 
ATOM     23  C   UNL     1       5.161   6.024  15.499  0.00  0.00    +0.000 A 
ATOM     24  C   UNL     1       4.774   6.387  16.798  0.00  0.00    +0.000 A 
BRANCH  22  25
ATOM     25  C   UNL     1       6.266   4.409  13.898  0.00  0.00    +0.000 C 
ATOM     26  F   UNL     1       7.231   5.065  13.193  0.00  0.00    +0.000 F 
ATOM     27  F   UNL     1       6.659   3.103  13.922  0.00  0.00    +0.000 F 
ATOM     28  F   UNL     1       5.147   4.448  13.128  0.00  0.00    +0.000 F 
ENDBRANCH  22  25
ENDBRANCH  18  19
ENDBRANCH   1  18
TORSDOF 7
ENDMDL
MODEL 6
REMARK VINA RESULT:      -7.7      1.284      1.668
REMARK  Name = 
REMARK  8 active torsions:
REMARK  status: ('A' for Active; 'I' for Inactive)
REMARK    1  A    between atoms: C_1  and  O_2
REMARK    2  A    between atoms: O_2  and  C_3
REMARK    3  A    between atoms: C_6  and  C_7
REMARK    4  A    between atoms: C_7  and  O_8
REMARK    5  A    between atoms: O_8  and  N_9
REMARK    6  A    between atoms: N_9  and  C_10
REMARK    7  A    between atoms: C_10  and  C_11
REMARK    8  A    between atoms: C_14  and  C_15
REMARK                            x       y       z     vdW  Elec       q    Type
REMARK                         _______ _______ _______ _____ _____    ______ ____
ROOT
ATOM      1  N   UNL     1       4.217   5.104  18.496  0.00  0.00    +0.000 N 
ATOM      2  C   UNL     1       3.710   4.211  19.485  0.00  0.00    +0.000 A 
ATOM      3  C   UNL     1       2.691   4.655  20.345  0.00  0.00    +0.000 A 
ATOM      4  C   UNL     1       2.214   3.819  21.356  0.00  0.00    +0.000 A 
ATOM      5  C   UNL     1       2.749   2.549  21.496  0.00  0.00    +0.000 A 
ATOM      6  C   UNL     1       3.724   2.163  20.596  0.00  0.00    +0.000 A 
ATOM      7  N   UNL     1       4.192   2.954  19.604  0.00  0.00    +0.000 NA
ENDROOT
BRANCH   1   8
ATOM      8  O   UNL     1       4.175   6.502  18.790  0.00  0.00    +0.000 OA
BRANCH   8   9
ATOM      9  C   UNL     1       3.190   7.079  17.928  0.00  0.00    +0.000 C 
BRANCH   9  13
ATOM     10  C   UNL     1       0.531   9.977  19.763  0.00  0.00    +0.000 A 
ATOM     11  C   UNL     1       1.047   8.943  20.547  0.00  0.00    +0.000 A 
ATOM     12  C   UNL     1       1.888   7.964  19.983  0.00  0.00    +0.000 A 
ATOM     13  C   UNL     1       2.205   8.002  18.620  0.00  0.00    +0.000 A 
ATOM     14  C   UNL     1       1.623   9.010  17.837  0.00  0.00    +0.000 A 
ATOM     15  C   UNL     1       0.795   9.984  18.396  0.00  0.00    +0.000 A 
BRANCH  10  17
ATOM     16  C   UNL     1      -0.679  11.994  19.579  0.00  0.00    +0.000 C 
ATOM     17  O   UNL     1      -0.243  10.911  20.403  0.00  0.00    +0.000 OA
ENDBRANCH  10  17
ENDBRANCH   9  13
ENDBRANCH   8   9
ENDBRANCH   1   8
BRANCH   1  18
ATOM     18  C   UNL     1       5.545   4.709  17.994  0.00  0.00    +0.000 C 
BRANCH  18  19
ATOM     19  C   UNL     1       5.730   4.811  16.483  0.00  0.00    +0.000 A 
ATOM     20  C   UNL     1       7.032   4.877  15.961  0.00  0.00    +0.000 A 
ATOM     21  C   UNL     1       7.284   4.589  14.616  0.00  0.00    +0.000 A 
ATOM     22  C   UNL     1       6.234   4.238  13.757  0.00  0.00    +0.000 A 
ATOM     23  C   UNL     1       4.919   4.318  14.241  0.00  0.00    +0.000 A 
ATOM     24  C   UNL     1       4.668   4.601  15.592  0.00  0.00    +0.000 A 
BRANCH  22  25
ATOM     25  C   UNL     1       6.509   3.683  12.380  0.00  0.00    +0.000 C 
ATOM     26  F   UNL     1       7.086   2.448  12.397  0.00  0.00    +0.000 F 
ATOM     27  F   UNL     1       5.367   3.540  11.648  0.00  0.00    +0.000 F 
ATOM     28  F   UNL     1       7.331   4.471  11.637  0.00  0.00    +0.000 F 
ENDBRANCH  22  25
ENDBRANCH  18  19
ENDBRANCH   1  18
TORSDOF 7
ENDMDL
MODEL 7
REMARK VINA RESULT:      -7.7      1.154      1.776
REMARK  Name = 
REMARK  8 active torsions:
REMARK  status: ('A' for Active; 'I' for Inactive)
REMARK    1  A    between atoms: C_1  and  O_2
REMARK    2  A    between atoms: O_2  and  C_3
REMARK    3  A    between atoms: C_6  and  C_7
REMARK    4  A    between atoms: C_7  and  O_8
REMARK    5  A    between atoms: O_8  and  N_9
REMARK    6  A    between atoms: N_9  and  C_10
REMARK    7  A    between atoms: C_10  and  C_11
REMARK    8  A    between atoms: C_14  and  C_15
REMARK                            x       y       z     vdW  Elec       q    Type
REMARK                         _______ _______ _______ _____ _____    ______ ____
ROOT
ATOM      1  N   UNL     1       3.863   5.455  19.034  0.00  0.00    +0.000 N 
ATOM      2  C   UNL     1       3.276   4.437  19.843  0.00  0.00    +0.000 A 
ATOM      3  C   UNL     1       2.050   4.695  20.479  0.00  0.00    +0.000 A 
ATOM      4  C   UNL     1       1.481   3.735  21.318  0.00  0.00    +0.000 A 
ATOM      5  C   UNL     1       2.134   2.529  21.511  0.00  0.00    +0.000 A 
ATOM      6  C   UNL     1       3.319   2.327  20.829  0.00  0.00    +0.000 A 
ATOM      7  N   UNL     1       3.880   3.239  20.003  0.00  0.00    +0.000 NA
ENDROOT
BRANCH   1   8
ATOM      8  O   UNL     1       3.578   6.813  19.379  0.00  0.00    +0.000 OA
BRANCH   8   9
ATOM      9  C   UNL     1       2.765   7.348  18.331  0.00  0.00    +0.000 C 
BRANCH   9  13
ATOM     10  C   UNL     1      -0.154  10.236  19.733  0.00  0.00    +0.000 A 
ATOM     11  C   UNL     1       0.263  10.289  18.401  0.00  0.00    +0.000 A 
ATOM     12  C   UNL     1       1.232   9.391  17.915  0.00  0.00    +0.000 A 
ATOM     13  C   UNL     1       1.808   8.440  18.766  0.00  0.00    +0.000 A 
ATOM     14  C   UNL     1       1.423   8.447  20.116  0.00  0.00    +0.000 A 
ATOM     15  C   UNL     1       0.459   9.333  20.596  0.00  0.00    +0.000 A 
BRANCH  10  17
ATOM     16  C   UNL     1      -1.922  11.633  19.034  0.00  0.00    +0.000 C 
ATOM     17  O   UNL     1      -1.133  11.120  20.109  0.00  0.00    +0.000 OA
ENDBRANCH  10  17
ENDBRANCH   9  13
ENDBRANCH   8   9
ENDBRANCH   1   8
BRANCH   1  18
ATOM     18  C   UNL     1       5.306   5.255  18.817  0.00  0.00    +0.000 C 
BRANCH  18  19
ATOM     19  C   UNL     1       5.683   4.590  17.497  0.00  0.00    +0.000 A 
ATOM     20  C   UNL     1       4.666   4.041  16.698  0.00  0.00    +0.000 A 
ATOM     21  C   UNL     1       4.882   3.772  15.343  0.00  0.00    +0.000 A 
ATOM     22  C   UNL     1       6.127   4.036  14.757  0.00  0.00    +0.000 A 
ATOM     23  C   UNL     1       7.184   4.442  15.586  0.00  0.00    +0.000 A 
ATOM     24  C   UNL     1       6.965   4.718  16.944  0.00  0.00    +0.000 A 
BRANCH  22  25
ATOM     25  C   UNL     1       6.305   3.992  13.258  0.00  0.00    +0.000 C 
ATOM     26  F   UNL     1       6.727   2.781  12.795  0.00  0.00    +0.000 F 
ATOM     27  F   UNL     1       5.140   4.249  12.596  0.00  0.00    +0.000 F 
ATOM     28  F   UNL     1       7.204   4.903  12.797  0.00  0.00    +0.000 F 
ENDBRANCH  22  25
ENDBRANCH  18  19
ENDBRANCH   1  18
TORSDOF 7
ENDMDL
MODEL 8
REMARK VINA RESULT:      -7.7      1.188      1.434
REMARK  Name = 
REMARK  8 active torsions:
REMARK  status: ('A' for Active; 'I' for Inactive)
REMARK    1  A    between atoms: C_1  and  O_2
REMARK    2  A    between atoms: O_2  and  C_3
REMARK    3  A    between atoms: C_6  and  C_7
REMARK    4  A    between atoms: C_7  and  O_8
REMARK    5  A    between atoms: O_8  and  N_9
REMARK    6  A    between atoms: N_9  and  C_10
REMARK    7  A    between atoms: C_10  and  C_11
REMARK    8  A    between atoms: C_14  and  C_15
REMARK                            x       y       z     vdW  Elec       q    Type
REMARK                         _______ _______ _______ _____ _____    ______ ____
ROOT
ATOM      1  N   UNL     1       3.475   4.498  17.988  0.00  0.00    +0.000 N 
ATOM      2  C   UNL     1       2.854   3.908  19.129  0.00  0.00    +0.000 A 
ATOM      3  C   UNL     1       1.473   4.082  19.318  0.00  0.00    +0.000 A 
ATOM      4  C   UNL     1       0.850   3.560  20.452  0.00  0.00    +0.000 A 
ATOM      5  C   UNL     1       1.606   2.866  21.384  0.00  0.00    +0.000 A 
ATOM      6  C   UNL     1       2.952   2.702  21.120  0.00  0.00    +0.000 A 
ATOM      7  N   UNL     1       3.572   3.190  20.021  0.00  0.00    +0.000 NA
ENDROOT
BRANCH   1   8
ATOM      8  O   UNL     1       2.890   5.693  17.467  0.00  0.00    +0.000 OA
BRANCH   8   9
ATOM      9  C   UNL     1       3.423   6.783  18.225  0.00  0.00    +0.000 C 
BRANCH   9  13
ATOM     10  C   UNL     1       0.616   9.656  19.868  0.00  0.00    +0.000 A 
ATOM     11  C   UNL     1       1.058   8.605  20.675  0.00  0.00    +0.000 A 
ATOM     12  C   UNL     1       1.944   7.634  20.170  0.00  0.00    +0.000 A 
ATOM     13  C   UNL     1       2.381   7.696  18.842  0.00  0.00    +0.000 A 
ATOM     14  C   UNL     1       1.873   8.721  18.029  0.00  0.00    +0.000 A 
ATOM     15  C   UNL     1       1.000   9.687  18.531  0.00  0.00    +0.000 A 
BRANCH  10  17
ATOM     16  C   UNL     1       0.395  11.849  20.709  0.00  0.00    +0.000 C 
ATOM     17  O   UNL     1      -0.211  10.580  20.454  0.00  0.00    +0.000 OA
ENDBRANCH  10  17
ENDBRANCH   9  13
ENDBRANCH   8   9
ENDBRANCH   1   8
BRANCH   1  18
ATOM     18  C   UNL     1       4.933   4.646  18.141  0.00  0.00    +0.000 C 
BRANCH  18  19
ATOM     19  C   UNL     1       5.750   4.416  16.874  0.00  0.00    +0.000 A 
ATOM     20  C   UNL     1       5.085   4.038  15.696  0.00  0.00    +0.000 A 
ATOM     21  C   UNL     1       5.696   4.183  14.446  0.00  0.00    +0.000 A 
ATOM     22  C   UNL     1       6.994   4.701  14.347  0.00  0.00    +0.000 A 
ATOM     23  C   UNL     1       7.712   4.937  15.529  0.00  0.00    +0.000 A 
ATOM     24  C   UNL     1       7.096   4.797  16.782  0.00  0.00    +0.000 A 
BRANCH  22  25
ATOM     25  C   UNL     1       7.571   5.099  13.010  0.00  0.00    +0.000 C 
ATOM     26  F   UNL     1       7.102   6.294  12.549  0.00  0.00    +0.000 F 
ATOM     27  F   UNL     1       8.928   5.237  13.058  0.00  0.00    +0.000 F 
ATOM     28  F   UNL     1       7.324   4.194  12.026  0.00  0.00    +0.000 F 
ENDBRANCH  22  25
ENDBRANCH  18  19
ENDBRANCH   1  18
TORSDOF 7
ENDMDL
MODEL 9
REMARK VINA RESULT:      -7.6      3.965      6.306
REMARK  Name = 
REMARK  8 active torsions:
REMARK  status: ('A' for Active; 'I' for Inactive)
REMARK    1  A    between atoms: C_1  and  O_2
REMARK    2  A    between atoms: O_2  and  C_3
REMARK    3  A    between atoms: C_6  and  C_7
REMARK    4  A    between atoms: C_7  and  O_8
REMARK    5  A    between atoms: O_8  and  N_9
REMARK    6  A    between atoms: N_9  and  C_10
REMARK    7  A    between atoms: C_10  and  C_11
REMARK    8  A    between atoms: C_14  and  C_15
REMARK                            x       y       z     vdW  Elec       q    Type
REMARK                         _______ _______ _______ _____ _____    ______ ____
ROOT
ATOM      1  N   UNL     1       5.372   4.288  16.442  0.00  0.00    +0.000 N 
ATOM      2  C   UNL     1       6.033   4.358  15.179  0.00  0.00    +0.000 A 
ATOM      3  C   UNL     1       7.173   5.169  15.051  0.00  0.00    +0.000 A 
ATOM      4  C   UNL     1       7.807   5.295  13.814  0.00  0.00    +0.000 A 
ATOM      5  C   UNL     1       7.304   4.610  12.719  0.00  0.00    +0.000 A 
ATOM      6  C   UNL     1       6.200   3.804  12.922  0.00  0.00    +0.000 A 
ATOM      7  N   UNL     1       5.579   3.659  14.115  0.00  0.00    +0.000 NA
ENDROOT
BRANCH   1   8
ATOM      8  O   UNL     1       5.457   5.436  17.290  0.00  0.00    +0.000 OA
BRANCH   8   9
ATOM      9  C   UNL     1       4.530   6.399  16.782  0.00  0.00    +0.000 C 
BRANCH   9  13
ATOM     10  C   UNL     1       1.731   8.078  19.642  0.00  0.00    +0.000 A 
ATOM     11  C   UNL     1       2.300   6.829  19.906  0.00  0.00    +0.000 A 
ATOM     12  C   UNL     1       3.187   6.236  18.988  0.00  0.00    +0.000 A 
ATOM     13  C   UNL     1       3.501   6.880  17.786  0.00  0.00    +0.000 A 
ATOM     14  C   UNL     1       2.868   8.102  17.510  0.00  0.00    +0.000 A 
ATOM     15  C   UNL     1       1.993   8.694  18.421  0.00  0.00    +0.000 A 
BRANCH  10  17
ATOM     16  C   UNL     1       1.555   8.869  21.857  0.00  0.00    +0.000 C 
ATOM     17  O   UNL     1       0.912   8.601  20.609  0.00  0.00    +0.000 OA
ENDBRANCH  10  17
ENDBRANCH   9  13
ENDBRANCH   8   9
ENDBRANCH   1   8
BRANCH   1  18
ATOM     18  C   UNL     1       3.983   3.809  16.337  0.00  0.00    +0.000 C 
BRANCH  18  19
ATOM     19  C   UNL     1       3.423   3.149  17.592  0.00  0.00    +0.000 A 
ATOM     20  C   UNL     1       4.291   2.879  18.663  0.00  0.00    +0.000 A 
ATOM     21  C   UNL     1       3.795   2.641  19.949  0.00  0.00    +0.000 A 
ATOM     22  C   UNL     1       2.415   2.657  20.192  0.00  0.00    +0.000 A 
ATOM     23  C   UNL     1       1.545   2.777  19.097  0.00  0.00    +0.000 A 
ATOM     24  C   UNL     1       2.043   3.022  17.808  0.00  0.00    +0.000 A 
BRANCH  22  25
ATOM     25  C   UNL     1       1.874   2.655  21.601  0.00  0.00    +0.000 C 
ATOM     26  F   UNL     1       2.232   1.553  22.320  0.00  0.00    +0.000 F 
ATOM     27  F   UNL     1       2.323   3.722  22.324  0.00  0.00    +0.000 F 
ATOM     28  F   UNL     1       0.516   2.713  21.655  0.00  0.00    +0.000 F 
ENDBRANCH  22  25
ENDBRANCH  18  19
ENDBRANCH   1  18
TORSDOF 7
ENDMDL
