MODEL 1
REMARK VINA RESULT:      -8.9      0.000      0.000
REMARK  Name = 
REMARK  3 active torsions:
REMARK  status: ('A' for Active; 'I' for Inactive)
REMARK    1  A    between atoms: C_2  and  C_3
REMARK    2  A    between atoms: C_3  and  C_4
REMARK    3  A    between atoms: C_4  and  C_5
REMARK                            x       y       z     vdW  Elec       q    Type
REMARK                         _______ _______ _______ _____ _____    ______ ____
ROOT
ATOM      1  C   UNL     1       3.873   4.472  17.901  0.00  0.00    +0.000 A 
ATOM      2  N   UNL     1       3.870   3.163  18.082  0.00  0.00    +0.000 NA
ATOM      3  N   UNL     1       3.025   2.876  19.128  0.00  0.00    +0.000 NA
ATOM      4  C   UNL     1       2.544   4.017  19.570  0.00  0.00    +0.000 A 
ATOM      5  C   UNL     1       1.658   4.327  20.612  0.00  0.00    +0.000 A 
ATOM      6  C   UNL     1       1.370   5.611  20.847  0.00  0.00    +0.000 A 
ATOM      7  C   UNL     1       1.986   6.682  19.984  0.00  0.00    +0.000 A 
ATOM      8  N   UNL     1       1.689   8.011  20.244  0.00  0.00    +0.000 N 
ATOM      9  C   UNL     1       1.444   8.546  21.580  0.00  0.00    +0.000 C 
ATOM     10  C   UNL     1       0.026   9.106  21.641  0.00  0.00    +0.000 C 
ATOM     11  C   UNL     1      -0.184  10.156  20.548  0.00  0.00    +0.000 C 
ATOM     12  C   UNL     1       0.201   9.608  19.172  0.00  0.00    +0.000 C 
ATOM     13  C   UNL     1       1.611   9.008  19.175  0.00  0.00    +0.000 C 
ATOM     14  N   UNL     1       2.775   6.395  18.978  0.00  0.00    +0.000 NA
ATOM     15  N   UNL     1       3.039   5.063  18.823  0.00  0.00    +0.000 N 
ENDROOT
BRANCH   1  16
ATOM     16  C   UNL     1       4.635   5.213  16.858  0.00  0.00    +0.000 C 
BRANCH  16  17
ATOM     17  C   UNL     1       6.058   4.675  16.776  0.00  0.00    +0.000 C 
BRANCH  17  19
ATOM     18  O   UNL     1       7.540   6.571  16.907  0.00  0.00    +0.000 OA
ATOM     19  C   UNL     1       7.038   5.683  16.212  0.00  0.00    +0.000 C 
ATOM     20  N   UNL     1       7.429   5.581  14.904  0.00  0.00    +0.000 N 
ATOM     21  C   UNL     1       6.898   4.766  13.899  0.00  0.00    +0.000 A 
ATOM     22  C   UNL     1       7.604   4.659  12.707  0.00  0.00    +0.000 A 
ATOM     23  C   UNL     1       7.088   3.858  11.688  0.00  0.00    +0.000 A 
ATOM     24  C   UNL     1       5.875   3.208  11.878  0.00  0.00    +0.000 A 
ATOM     25  C   UNL     1       5.233   3.382  13.087  0.00  0.00    +0.000 A 
ATOM     26  N   UNL     1       5.724   4.140  14.089  0.00  0.00    +0.000 NA
ATOM     27  H   UNL     1       8.187   6.200  14.661  0.00  0.00    +0.000 HD
ENDBRANCH  17  19
ENDBRANCH  16  17
ENDBRANCH   1  16
TORSDOF 3
ENDMDL
MODEL 2
REMARK VINA RESULT:      -8.9      0.912      1.078
REMARK  Name = 
REMARK  3 active torsions:
REMARK  status: ('A' for Active; 'I' for Inactive)
REMARK    1  A    between atoms: C_2  and  C_3
REMARK    2  A    between atoms: C_3  and  C_4
REMARK    3  A    between atoms: C_4  and  C_5
REMARK                            x       y       z     vdW  Elec       q    Type
REMARK                         _______ _______ _______ _____ _____    ______ ____
ROOT
ATOM      1  C   UNL     1       4.913   4.111  19.280  0.00  0.00    +0.000 A 
ATOM      2  N   UNL     1       4.749   2.833  19.576  0.00  0.00    +0.000 NA
ATOM      3  N   UNL     1       3.473   2.664  20.056  0.00  0.00    +0.000 NA
ATOM      4  C   UNL     1       2.891   3.843  20.054  0.00  0.00    +0.000 A 
ATOM      5  C   UNL     1       1.611   4.264  20.442  0.00  0.00    +0.000 A 
ATOM      6  C   UNL     1       1.309   5.563  20.350  0.00  0.00    +0.000 A 
ATOM      7  C   UNL     1       2.336   6.530  19.819  0.00  0.00    +0.000 A 
ATOM      8  N   UNL     1       2.015   7.876  19.738  0.00  0.00    +0.000 N 
ATOM      9  C   UNL     1       1.142   8.566  20.684  0.00  0.00    +0.000 C 
ATOM     10  C   UNL     1      -0.072   9.109  19.937  0.00  0.00    +0.000 C 
ATOM     11  C   UNL     1       0.366  10.015  18.786  0.00  0.00    +0.000 C 
ATOM     12  C   UNL     1       1.379   9.311  17.880  0.00  0.00    +0.000 C 
ATOM     13  C   UNL     1       2.552   8.736  18.681  0.00  0.00    +0.000 C 
ATOM     14  N   UNL     1       3.515   6.134  19.409  0.00  0.00    +0.000 NA
ATOM     15  N   UNL     1       3.753   4.797  19.562  0.00  0.00    +0.000 N 
ENDROOT
BRANCH   1  16
ATOM     16  C   UNL     1       6.140   4.730  18.709  0.00  0.00    +0.000 C 
BRANCH  16  17
ATOM     17  C   UNL     1       5.977   4.915  17.205  0.00  0.00    +0.000 C 
BRANCH  17  19
ATOM     18  O   UNL     1       7.503   6.777  17.291  0.00  0.00    +0.000 OA
ATOM     19  C   UNL     1       6.979   5.885  16.617  0.00  0.00    +0.000 C 
ATOM     20  N   UNL     1       7.365   5.744  15.312  0.00  0.00    +0.000 N 
ATOM     21  C   UNL     1       6.815   4.919  14.326  0.00  0.00    +0.000 A 
ATOM     22  C   UNL     1       7.516   4.767  13.137  0.00  0.00    +0.000 A 
ATOM     23  C   UNL     1       6.980   3.955  12.137  0.00  0.00    +0.000 A 
ATOM     24  C   UNL     1       5.753   3.339  12.343  0.00  0.00    +0.000 A 
ATOM     25  C   UNL     1       5.116   3.556  13.548  0.00  0.00    +0.000 A 
ATOM     26  N   UNL     1       5.626   4.325  14.532  0.00  0.00    +0.000 NA
ATOM     27  H   UNL     1       8.138   6.339  15.054  0.00  0.00    +0.000 HD
ENDBRANCH  17  19
ENDBRANCH  16  17
ENDBRANCH   1  16
TORSDOF 3
ENDMDL
MODEL 3
REMARK VINA RESULT:      -8.4      1.024      1.153
REMARK  Name = 
REMARK  3 active torsions:
REMARK  status: ('A' for Active; 'I' for Inactive)
REMARK    1  A    between atoms: C_2  and  C_3
REMARK    2  A    between atoms: C_3  and  C_4
REMARK    3  A    between atoms: C_4  and  C_5
REMARK                            x       y       z     vdW  Elec       q    Type
REMARK                         _______ _______ _______ _____ _____    ______ ____
ROOT
ATOM      1  C   UNL     1       3.829   3.177  18.298  0.00  0.00    +0.000 A 
ATOM      2  N   UNL     1       3.463   1.934  18.554  0.00  0.00    +0.000 NA
ATOM      3  N   UNL     1       2.340   1.971  19.347  0.00  0.00    +0.000 NA
ATOM      4  C   UNL     1       2.055   3.236  19.567  0.00  0.00    +0.000 A 
ATOM      5  C   UNL     1       1.040   3.860  20.306  0.00  0.00    +0.000 A 
ATOM      6  C   UNL     1       1.023   5.195  20.372  0.00  0.00    +0.000 A 
ATOM      7  C   UNL     1       2.076   5.989  19.642  0.00  0.00    +0.000 A 
ATOM      8  N   UNL     1       2.056   7.372  19.726  0.00  0.00    +0.000 N 
ATOM      9  C   UNL     1       1.622   8.112  20.908  0.00  0.00    +0.000 C 
ATOM     10  C   UNL     1       0.414   8.970  20.544  0.00  0.00    +0.000 C 
ATOM     11  C   UNL     1       0.744   9.893  19.371  0.00  0.00    +0.000 C 
ATOM     12  C   UNL     1       1.316   9.107  18.189  0.00  0.00    +0.000 C 
ATOM     13  C   UNL     1       2.492   8.220  18.615  0.00  0.00    +0.000 C 
ATOM     14  N   UNL     1       2.997   5.413  18.910  0.00  0.00    +0.000 NA
ATOM     15  N   UNL     1       2.960   4.046  18.918  0.00  0.00    +0.000 N 
ENDROOT
BRANCH   1  16
ATOM     16  C   UNL     1       4.983   3.597  17.457  0.00  0.00    +0.000 C 
BRANCH  16  17
ATOM     17  C   UNL     1       4.516   4.582  16.390  0.00  0.00    +0.000 C 
BRANCH  17  19
ATOM     18  O   UNL     1       5.514   6.680  17.027  0.00  0.00    +0.000 OA
ATOM     19  C   UNL     1       5.460   5.752  16.215  0.00  0.00    +0.000 C 
ATOM     20  N   UNL     1       6.325   5.765  15.154  0.00  0.00    +0.000 N 
ATOM     21  C   UNL     1       6.350   4.917  14.043  0.00  0.00    +0.000 A 
ATOM     22  C   UNL     1       7.460   4.969  13.208  0.00  0.00    +0.000 A 
ATOM     23  C   UNL     1       7.502   4.138  12.089  0.00  0.00    +0.000 A 
ATOM     24  C   UNL     1       6.429   3.297  11.822  0.00  0.00    +0.000 A 
ATOM     25  C   UNL     1       5.360   3.320  12.695  0.00  0.00    +0.000 A 
ATOM     26  N   UNL     1       5.308   4.106  13.790  0.00  0.00    +0.000 NA
ATOM     27  H   UNL     1       7.008   6.505  15.201  0.00  0.00    +0.000 HD
ENDBRANCH  17  19
ENDBRANCH  16  17
ENDBRANCH   1  16
TORSDOF 3
ENDMDL
MODEL 4
REMARK VINA RESULT:      -8.2      2.074      8.393
REMARK  Name = 
REMARK  3 active torsions:
REMARK  status: ('A' for Active; 'I' for Inactive)
REMARK    1  A    between atoms: C_2  and  C_3
REMARK    2  A    between atoms: C_3  and  C_4
REMARK    3  A    between atoms: C_4  and  C_5
REMARK                            x       y       z     vdW  Elec       q    Type
REMARK                         _______ _______ _______ _____ _____    ______ ____
ROOT
ATOM      1  C   UNL     1       1.837   4.836  20.294  0.00  0.00    +0.000 A 
ATOM      2  N   UNL     1       0.887   3.993  20.658  0.00  0.00    +0.000 NA
ATOM      3  N   UNL     1       0.872   2.950  19.762  0.00  0.00    +0.000 NA
ATOM      4  C   UNL     1       1.803   3.187  18.865  0.00  0.00    +0.000 A 
ATOM      5  C   UNL     1       2.221   2.479  17.729  0.00  0.00    +0.000 A 
ATOM      6  C   UNL     1       3.196   2.996  16.975  0.00  0.00    +0.000 A 
ATOM      7  C   UNL     1       3.828   4.306  17.371  0.00  0.00    +0.000 A 
ATOM      8  N   UNL     1       4.831   4.838  16.576  0.00  0.00    +0.000 N 
ATOM      9  C   UNL     1       4.885   4.692  15.124  0.00  0.00    +0.000 C 
ATOM     10  C   UNL     1       6.159   3.943  14.745  0.00  0.00    +0.000 C 
ATOM     11  C   UNL     1       7.390   4.660  15.302  0.00  0.00    +0.000 C 
ATOM     12  C   UNL     1       7.251   4.915  16.805  0.00  0.00    +0.000 C 
ATOM     13  C   UNL     1       5.932   5.619  17.141  0.00  0.00    +0.000 C 
ATOM     14  N   UNL     1       3.475   4.946  18.458  0.00  0.00    +0.000 NA
ATOM     15  N   UNL     1       2.454   4.365  19.156  0.00  0.00    +0.000 N 
ENDROOT
BRANCH   1  16
ATOM     16  C   UNL     1       2.213   6.093  20.997  0.00  0.00    +0.000 C 
BRANCH  16  17
ATOM     17  C   UNL     1       1.135   7.149  20.783  0.00  0.00    +0.000 C 
BRANCH  17  19
ATOM     18  O   UNL     1       2.341   8.035  18.895  0.00  0.00    +0.000 OA
ATOM     19  C   UNL     1       1.563   8.245  19.830  0.00  0.00    +0.000 C 
ATOM     20  N   UNL     1       1.032   9.498  19.965  0.00  0.00    +0.000 N 
ATOM     21  C   UNL     1       0.259  10.007  21.014  0.00  0.00    +0.000 A 
ATOM     22  C   UNL     1      -0.365  11.234  20.829  0.00  0.00    +0.000 A 
ATOM     23  C   UNL     1      -1.134  11.763  21.866  0.00  0.00    +0.000 A 
ATOM     24  C   UNL     1      -1.239  11.066  23.062  0.00  0.00    +0.000 A 
ATOM     25  C   UNL     1      -0.574   9.862  23.167  0.00  0.00    +0.000 A 
ATOM     26  N   UNL     1       0.161   9.327  22.170  0.00  0.00    +0.000 NA
ATOM     27  H   UNL     1       1.262  10.118  19.203  0.00  0.00    +0.000 HD
ENDBRANCH  17  19
ENDBRANCH  16  17
ENDBRANCH   1  16
TORSDOF 3
ENDMDL
MODEL 5
REMARK VINA RESULT:      -8.1      3.734      6.285
REMARK  Name = 
REMARK  3 active torsions:
REMARK  status: ('A' for Active; 'I' for Inactive)
REMARK    1  A    between atoms: C_2  and  C_3
REMARK    2  A    between atoms: C_3  and  C_4
REMARK    3  A    between atoms: C_4  and  C_5
REMARK                            x       y       z     vdW  Elec       q    Type
REMARK                         _______ _______ _______ _____ _____    ______ ____
ROOT
ATOM      1  C   UNL     1       5.980   6.278  16.437  0.00  0.00    +0.000 A 
ATOM      2  N   UNL     1       6.441   5.935  15.247  0.00  0.00    +0.000 NA
ATOM      3  N   UNL     1       6.024   4.654  14.977  0.00  0.00    +0.000 NA
ATOM      4  C   UNL     1       5.329   4.239  16.014  0.00  0.00    +0.000 A 
ATOM      5  C   UNL     1       4.681   3.027  16.291  0.00  0.00    +0.000 A 
ATOM      6  C   UNL     1       4.066   2.884  17.470  0.00  0.00    +0.000 A 
ATOM      7  C   UNL     1       4.069   4.027  18.453  0.00  0.00    +0.000 A 
ATOM      8  N   UNL     1       3.438   3.864  19.677  0.00  0.00    +0.000 N 
ATOM      9  C   UNL     1       3.377   2.598  20.403  0.00  0.00    +0.000 C 
ATOM     10  C   UNL     1       1.918   2.182  20.559  0.00  0.00    +0.000 C 
ATOM     11  C   UNL     1       1.115   3.286  21.250  0.00  0.00    +0.000 C 
ATOM     12  C   UNL     1       1.298   4.631  20.542  0.00  0.00    +0.000 C 
ATOM     13  C   UNL     1       2.779   4.979  20.360  0.00  0.00    +0.000 C 
ATOM     14  N   UNL     1       4.630   5.178  18.179  0.00  0.00    +0.000 NA
ATOM     15  N   UNL     1       5.259   5.231  16.967  0.00  0.00    +0.000 N 
ENDROOT
BRANCH   1  16
ATOM     16  C   UNL     1       6.176   7.591  17.111  0.00  0.00    +0.000 C 
BRANCH  16  17
ATOM     17  C   UNL     1       7.664   7.910  17.200  0.00  0.00    +0.000 C 
BRANCH  17  19
ATOM     18  O   UNL     1       8.151   6.536  19.119  0.00  0.00    +0.000 OA
ATOM     19  C   UNL     1       8.245   7.638  18.572  0.00  0.00    +0.000 C 
ATOM     20  N   UNL     1       8.947   8.624  19.211  0.00  0.00    +0.000 N 
ATOM     21  C   UNL     1       9.062   9.974  18.866  0.00  0.00    +0.000 A 
ATOM     22  C   UNL     1      10.015  10.737  19.529  0.00  0.00    +0.000 A 
ATOM     23  C   UNL     1      10.140  12.089  19.205  0.00  0.00    +0.000 A 
ATOM     24  C   UNL     1       9.297  12.643  18.251  0.00  0.00    +0.000 A 
ATOM     25  C   UNL     1       8.369  11.816  17.653  0.00  0.00    +0.000 A 
ATOM     26  N   UNL     1       8.243  10.505  17.941  0.00  0.00    +0.000 NA
ATOM     27  H   UNL     1       9.416   8.306  20.046  0.00  0.00    +0.000 HD
ENDBRANCH  17  19
ENDBRANCH  16  17
ENDBRANCH   1  16
TORSDOF 3
ENDMDL
MODEL 6
REMARK VINA RESULT:      -8.1      2.545      8.132
REMARK  Name = 
REMARK  3 active torsions:
REMARK  status: ('A' for Active; 'I' for Inactive)
REMARK    1  A    between atoms: C_2  and  C_3
REMARK    2  A    between atoms: C_3  and  C_4
REMARK    3  A    between atoms: C_4  and  C_5
REMARK                            x       y       z     vdW  Elec       q    Type
REMARK                         _______ _______ _______ _____ _____    ______ ____
ROOT
ATOM      1  C   UNL     1       1.878   6.180  20.105  0.00  0.00    +0.000 A 
ATOM      2  N   UNL     1       1.098   5.406  20.839  0.00  0.00    +0.000 NA
ATOM      3  N   UNL     1       1.270   4.107  20.426  0.00  0.00    +0.000 NA
ATOM      4  C   UNL     1       2.140   4.118  19.440  0.00  0.00    +0.000 A 
ATOM      5  C   UNL     1       2.677   3.097  18.643  0.00  0.00    +0.000 A 
ATOM      6  C   UNL     1       3.540   3.425  17.677  0.00  0.00    +0.000 A 
ATOM      7  C   UNL     1       3.924   4.869  17.481  0.00  0.00    +0.000 A 
ATOM      8  N   UNL     1       4.811   5.200  16.469  0.00  0.00    +0.000 N 
ATOM      9  C   UNL     1       4.887   4.500  15.189  0.00  0.00    +0.000 C 
ATOM     10  C   UNL     1       6.275   3.885  15.039  0.00  0.00    +0.000 C 
ATOM     11  C   UNL     1       7.357   4.957  15.178  0.00  0.00    +0.000 C 
ATOM     12  C   UNL     1       7.178   5.761  16.469  0.00  0.00    +0.000 C 
ATOM     13  C   UNL     1       5.754   6.312  16.601  0.00  0.00    +0.000 C 
ATOM     14  N   UNL     1       3.464   5.821  18.255  0.00  0.00    +0.000 NA
ATOM     15  N   UNL     1       2.567   5.405  19.199  0.00  0.00    +0.000 N 
ENDROOT
BRANCH   1  16
ATOM     16  C   UNL     1       2.022   7.656  20.231  0.00  0.00    +0.000 C 
BRANCH  16  17
ATOM     17  C   UNL     1       0.828   8.230  20.985  0.00  0.00    +0.000 C 
BRANCH  17  19
ATOM     18  O   UNL     1       1.778   9.457  22.828  0.00  0.00    +0.000 OA
ATOM     19  C   UNL     1       1.167   9.488  21.756  0.00  0.00    +0.000 C 
ATOM     20  N   UNL     1       0.839  10.708  21.230  0.00  0.00    +0.000 N 
ATOM     21  C   UNL     1       0.032  10.989  20.124  0.00  0.00    +0.000 A 
ATOM     22  C   UNL     1       0.028  12.289  19.632  0.00  0.00    +0.000 A 
ATOM     23  C   UNL     1      -0.778  12.593  18.535  0.00  0.00    +0.000 A 
ATOM     24  C   UNL     1      -1.572  11.600  17.975  0.00  0.00    +0.000 A 
ATOM     25  C   UNL     1      -1.519  10.340  18.535  0.00  0.00    +0.000 A 
ATOM     26  N   UNL     1      -0.735  10.024  19.586  0.00  0.00    +0.000 NA
ATOM     27  H   UNL     1       1.232  11.485  21.739  0.00  0.00    +0.000 HD
ENDBRANCH  17  19
ENDBRANCH  16  17
ENDBRANCH   1  16
TORSDOF 3
ENDMDL
MODEL 7
REMARK VINA RESULT:      -8.0      2.245      8.136
REMARK  Name = 
REMARK  3 active torsions:
REMARK  status: ('A' for Active; 'I' for Inactive)
REMARK    1  A    between atoms: C_2  and  C_3
REMARK    2  A    between atoms: C_3  and  C_4
REMARK    3  A    between atoms: C_4  and  C_5
REMARK                            x       y       z     vdW  Elec       q    Type
REMARK                         _______ _______ _______ _____ _____    ______ ____
ROOT
ATOM      1  C   UNL     1       1.729   4.468  20.698  0.00  0.00    +0.000 A 
ATOM      2  N   UNL     1       1.569   3.604  21.686  0.00  0.00    +0.000 NA
ATOM      3  N   UNL     1       2.517   2.618  21.552  0.00  0.00    +0.000 NA
ATOM      4  C   UNL     1       3.225   2.894  20.479  0.00  0.00    +0.000 A 
ATOM      5  C   UNL     1       4.300   2.238  19.863  0.00  0.00    +0.000 A 
ATOM      6  C   UNL     1       4.806   2.754  18.739  0.00  0.00    +0.000 A 
ATOM      7  C   UNL     1       4.226   4.027  18.177  0.00  0.00    +0.000 A 
ATOM      8  N   UNL     1       4.752   4.547  17.005  0.00  0.00    +0.000 N 
ATOM      9  C   UNL     1       5.281   3.732  15.914  0.00  0.00    +0.000 C 
ATOM     10  C   UNL     1       6.757   4.062  15.716  0.00  0.00    +0.000 C 
ATOM     11  C   UNL     1       6.944   5.559  15.465  0.00  0.00    +0.000 C 
ATOM     12  C   UNL     1       6.270   6.394  16.556  0.00  0.00    +0.000 C 
ATOM     13  C   UNL     1       4.805   5.989  16.756  0.00  0.00    +0.000 C 
ATOM     14  N   UNL     1       3.254   4.670  18.775  0.00  0.00    +0.000 NA
ATOM     15  N   UNL     1       2.776   4.061  19.902  0.00  0.00    +0.000 N 
ENDROOT
BRANCH   1  16
ATOM     16  C   UNL     1       0.929   5.703  20.472  0.00  0.00    +0.000 C 
BRANCH  16  17
ATOM     17  C   UNL     1       1.743   6.928  20.872  0.00  0.00    +0.000 C 
BRANCH  17  19
ATOM     18  O   UNL     1       2.508   7.763  18.746  0.00  0.00    +0.000 OA
ATOM     19  C   UNL     1       1.842   7.958  19.767  0.00  0.00    +0.000 C 
ATOM     20  N   UNL     1       1.130   9.121  19.867  0.00  0.00    +0.000 N 
ATOM     21  C   UNL     1       0.434   9.623  20.972  0.00  0.00    +0.000 A 
ATOM     22  C   UNL     1      -0.409  10.709  20.774  0.00  0.00    +0.000 A 
ATOM     23  C   UNL     1      -1.105  11.230  21.864  0.00  0.00    +0.000 A 
ATOM     24  C   UNL     1      -0.923  10.670  23.122  0.00  0.00    +0.000 A 
ATOM     25  C   UNL     1      -0.055   9.603  23.232  0.00  0.00    +0.000 A 
ATOM     26  N   UNL     1       0.615   9.076  22.187  0.00  0.00    +0.000 NA
ATOM     27  H   UNL     1       1.143   9.675  19.025  0.00  0.00    +0.000 HD
ENDBRANCH  17  19
ENDBRANCH  16  17
ENDBRANCH   1  16
TORSDOF 3
ENDMDL
MODEL 8
REMARK VINA RESULT:      -7.9      8.762     11.007
REMARK  Name = 
REMARK  3 active torsions:
REMARK  status: ('A' for Active; 'I' for Inactive)
REMARK    1  A    between atoms: C_2  and  C_3
REMARK    2  A    between atoms: C_3  and  C_4
REMARK    3  A    between atoms: C_4  and  C_5
REMARK                            x       y       z     vdW  Elec       q    Type
REMARK                         _______ _______ _______ _____ _____    ______ ____
ROOT
ATOM      1  C   UNL     1      -5.092  12.772  21.581  0.00  0.00    +0.000 A 
ATOM      2  N   UNL     1      -5.543  12.709  22.822  0.00  0.00    +0.000 NA
ATOM      3  N   UNL     1      -4.479  12.448  23.652  0.00  0.00    +0.000 NA
ATOM      4  C   UNL     1      -3.407  12.345  22.899  0.00  0.00    +0.000 A 
ATOM      5  C   UNL     1      -2.063  12.079  23.201  0.00  0.00    +0.000 A 
ATOM      6  C   UNL     1      -1.184  12.005  22.198  0.00  0.00    +0.000 A 
ATOM      7  C   UNL     1      -1.651  12.223  20.781  0.00  0.00    +0.000 A 
ATOM      8  N   UNL     1      -0.732  12.132  19.747  0.00  0.00    +0.000 N 
ATOM      9  C   UNL     1       0.410  11.222  19.747  0.00  0.00    +0.000 C 
ATOM     10  C   UNL     1       1.698  12.037  19.678  0.00  0.00    +0.000 C 
ATOM     11  C   UNL     1       1.688  12.955  18.455  0.00  0.00    +0.000 C 
ATOM     12  C   UNL     1       0.419  13.809  18.412  0.00  0.00    +0.000 C 
ATOM     13  C   UNL     1      -0.846  12.951  18.539  0.00  0.00    +0.000 C 
ATOM     14  N   UNL     1      -2.895  12.520  20.498  0.00  0.00    +0.000 NA
ATOM     15  N   UNL     1      -3.733  12.550  21.577  0.00  0.00    +0.000 N 
ENDROOT
BRANCH   1  16
ATOM     16  C   UNL     1      -5.902  13.056  20.365  0.00  0.00    +0.000 C 
BRANCH  16  17
ATOM     17  C   UNL     1      -5.974  11.812  19.487  0.00  0.00    +0.000 C 
BRANCH  17  19
ATOM     18  O   UNL     1      -7.672  12.579  17.960  0.00  0.00    +0.000 OA
ATOM     19  C   UNL     1      -6.549  12.090  18.115  0.00  0.00    +0.000 C 
ATOM     20  N   UNL     1      -5.787  11.849  17.005  0.00  0.00    +0.000 N 
ATOM     21  C   UNL     1      -4.566  11.173  16.919  0.00  0.00    +0.000 A 
ATOM     22  C   UNL     1      -3.860  11.251  15.724  0.00  0.00    +0.000 A 
ATOM     23  C   UNL     1      -2.643  10.577  15.615  0.00  0.00    +0.000 A 
ATOM     24  C   UNL     1      -2.178   9.829  16.688  0.00  0.00    +0.000 A 
ATOM     25  C   UNL     1      -2.949   9.793  17.832  0.00  0.00    +0.000 A 
ATOM     26  N   UNL     1      -4.120  10.450  17.962  0.00  0.00    +0.000 NA
ATOM     27  H   UNL     1      -6.195  12.199  16.152  0.00  0.00    +0.000 HD
ENDBRANCH  17  19
ENDBRANCH  16  17
ENDBRANCH   1  16
TORSDOF 3
ENDMDL
MODEL 9
REMARK VINA RESULT:      -7.9      1.708      3.172
REMARK  Name = 
REMARK  3 active torsions:
REMARK  status: ('A' for Active; 'I' for Inactive)
REMARK    1  A    between atoms: C_2  and  C_3
REMARK    2  A    between atoms: C_3  and  C_4
REMARK    3  A    between atoms: C_4  and  C_5
REMARK                            x       y       z     vdW  Elec       q    Type
REMARK                         _______ _______ _______ _____ _____    ______ ____
ROOT
ATOM      1  C   UNL     1       3.329   3.654  17.442  0.00  0.00    +0.000 A 
ATOM      2  N   UNL     1       3.204   2.362  17.692  0.00  0.00    +0.000 NA
ATOM      3  N   UNL     1       2.508   2.218  18.869  0.00  0.00    +0.000 NA
ATOM      4  C   UNL     1       2.236   3.424  19.316  0.00  0.00    +0.000 A 
ATOM      5  C   UNL     1       1.567   3.876  20.463  0.00  0.00    +0.000 A 
ATOM      6  C   UNL     1       1.469   5.193  20.670  0.00  0.00    +0.000 A 
ATOM      7  C   UNL     1       2.060   6.150  19.665  0.00  0.00    +0.000 A 
ATOM      8  N   UNL     1       1.962   7.513  19.895  0.00  0.00    +0.000 N 
ATOM      9  C   UNL     1       1.994   8.122  21.223  0.00  0.00    +0.000 C 
ATOM     10  C   UNL     1       0.677   8.852  21.469  0.00  0.00    +0.000 C 
ATOM     11  C   UNL     1       0.418   9.879  20.366  0.00  0.00    +0.000 C 
ATOM     12  C   UNL     1       0.516   9.241  18.978  0.00  0.00    +0.000 C 
ATOM     13  C   UNL     1       1.831   8.474  18.798  0.00  0.00    +0.000 C 
ATOM     14  N   UNL     1       2.642   5.733  18.568  0.00  0.00    +0.000 NA
ATOM     15  N   UNL     1       2.724   4.374  18.447  0.00  0.00    +0.000 N 
ENDROOT
BRANCH   1  16
ATOM     16  C   UNL     1       3.995   4.259  16.256  0.00  0.00    +0.000 C 
BRANCH  16  17
ATOM     17  C   UNL     1       5.357   3.609  16.039  0.00  0.00    +0.000 C 
BRANCH  17  19
ATOM     18  O   UNL     1       6.260   4.165  13.876  0.00  0.00    +0.000 OA
ATOM     19  C   UNL     1       6.239   4.390  15.090  0.00  0.00    +0.000 C 
ATOM     20  N   UNL     1       7.000   5.420  15.573  0.00  0.00    +0.000 N 
ATOM     21  C   UNL     1       7.252   5.764  16.905  0.00  0.00    +0.000 A 
ATOM     22  C   UNL     1       7.863   6.986  17.158  0.00  0.00    +0.000 A 
ATOM     23  C   UNL     1       8.131   7.345  18.479  0.00  0.00    +0.000 A 
ATOM     24  C   UNL     1       7.803   6.469  19.505  0.00  0.00    +0.000 A 
ATOM     25  C   UNL     1       7.212   5.269  19.164  0.00  0.00    +0.000 A 
ATOM     26  N   UNL     1       6.932   4.911  17.894  0.00  0.00    +0.000 NA
ATOM     27  H   UNL     1       7.438   5.971  14.851  0.00  0.00    +0.000 HD
ENDBRANCH  17  19
ENDBRANCH  16  17
ENDBRANCH   1  16
TORSDOF 3
ENDMDL
