MODEL 1
REMARK VINA RESULT:      -8.6      0.000      0.000
REMARK  Name = 
REMARK  8 active torsions:
REMARK  status: ('A' for Active; 'I' for Inactive)
REMARK    1  A    between atoms: C_1  and  C_2
REMARK    2  A    between atoms: C_2  and  C_4
REMARK    3  A    between atoms: N_6  and  C_7
REMARK    4  A    between atoms: C_7  and  C_8
REMARK    5  A    between atoms: C_13  and  C_14
REMARK    6  A    between atoms: C_17  and  C_18
REMARK    7  A    between atoms: C_18  and  C_19
REMARK    8  A    between atoms: C_23  and  C_24
REMARK                            x       y       z     vdW  Elec       q    Type
REMARK                         _______ _______ _______ _____ _____    ______ ____
ROOT
ATOM      1  C   UNL     1       1.028   9.189  20.251  0.00  0.00    +0.000 A 
ATOM      2  C   UNL     1       1.760   8.019  20.524  0.00  0.00    +0.000 A 
ATOM      3  N   UNL     1       2.356   7.313  19.525  0.00  0.00    +0.000 N 
ATOM      4  C   UNL     1       2.257   7.736  18.253  0.00  0.00    +0.000 A 
ATOM      5  C   UNL     1       1.544   8.874  17.930  0.00  0.00    +0.000 A 
ATOM      6  C   UNL     1       0.919   9.643  18.922  0.00  0.00    +0.000 A 
ENDROOT
BRANCH   1   8
ATOM      7  C   UNL     1      -0.578   9.155  22.295  0.00  0.00    +0.000 C 
ATOM      8  C   UNL     1       0.477   9.835  21.470  0.00  0.00    +0.000 C 
ATOM      9  O   UNL     1       0.969  10.910  21.810  0.00  0.00    +0.000 OA
ENDBRANCH   1   8
BRANCH   3  10
ATOM     10  C   UNL     1       3.102   6.060  19.843  0.00  0.00    +0.000 C 
BRANCH  10  11
ATOM     11  C   UNL     1       2.284   4.856  19.417  0.00  0.00    +0.000 A 
ATOM     12  C   UNL     1       1.207   4.447  20.232  0.00  0.00    +0.000 A 
ATOM     13  C   UNL     1       0.475   3.297  19.941  0.00  0.00    +0.000 A 
ATOM     14  C   UNL     1       0.792   2.542  18.821  0.00  0.00    +0.000 A 
ATOM     15  C   UNL     1       1.816   2.958  17.971  0.00  0.00    +0.000 A 
ATOM     16  C   UNL     1       2.568   4.116  18.244  0.00  0.00    +0.000 A 
ATOM     17  C   UNL     1       3.617   4.531  17.252  0.00  0.00    +0.000 C 
ENDBRANCH  10  11
ENDBRANCH   3  10
BRANCH   6  18
ATOM     18  C   UNL     1       0.264  10.931  18.451  0.00  0.00    +0.000 C 
BRANCH  18  19
ATOM     19  C   UNL     1      -1.233  10.959  18.685  0.00  0.00    +0.000 C 
ATOM     20  C   UNL     1      -2.044  11.102  17.393  0.00  0.00    +0.000 C 
ATOM     21  C   UNL     1      -3.382  11.336  18.019  0.00  0.00    +0.000 A 
ATOM     22  C   UNL     1      -4.521  10.574  17.871  0.00  0.00    +0.000 A 
ATOM     23  C   UNL     1      -5.542  10.733  18.817  0.00  0.00    +0.000 A 
ATOM     24  C   UNL     1      -6.586   9.656  18.946  0.00  0.00    +0.000 C 
ATOM     25  C   UNL     1      -5.500  11.800  19.745  0.00  0.00    +0.000 A 
ATOM     26  C   UNL     1      -4.329  12.540  19.918  0.00  0.00    +0.000 A 
ATOM     27  C   UNL     1      -3.262  12.196  19.112  0.00  0.00    +0.000 A 
ATOM     28  C   UNL     1      -1.839  12.111  19.503  0.00  0.00    +0.000 C 
ATOM     29  O   UNL     1      -1.316  12.705  20.427  0.00  0.00    +0.000 OA
ENDBRANCH  18  19
ENDBRANCH   6  18
TORSDOF 5
ENDMDL
MODEL 2
REMARK VINA RESULT:      -8.5      5.883      9.309
REMARK  Name = 
REMARK  8 active torsions:
REMARK  status: ('A' for Active; 'I' for Inactive)
REMARK    1  A    between atoms: C_1  and  C_2
REMARK    2  A    between atoms: C_2  and  C_4
REMARK    3  A    between atoms: N_6  and  C_7
REMARK    4  A    between atoms: C_7  and  C_8
REMARK    5  A    between atoms: C_13  and  C_14
REMARK    6  A    between atoms: C_17  and  C_18
REMARK    7  A    between atoms: C_18  and  C_19
REMARK    8  A    between atoms: C_23  and  C_24
REMARK                            x       y       z     vdW  Elec       q    Type
REMARK                         _______ _______ _______ _____ _____    ______ ____
ROOT
ATOM      1  C   UNL     1       5.752   5.868  18.367  0.00  0.00    +0.000 A 
ATOM      2  C   UNL     1       4.655   5.785  19.244  0.00  0.00    +0.000 A 
ATOM      3  N   UNL     1       3.450   6.328  18.917  0.00  0.00    +0.000 N 
ATOM      4  C   UNL     1       3.292   6.946  17.734  0.00  0.00    +0.000 A 
ATOM      5  C   UNL     1       4.338   7.060  16.839  0.00  0.00    +0.000 A 
ATOM      6  C   UNL     1       5.597   6.512  17.124  0.00  0.00    +0.000 A 
ENDROOT
BRANCH   1   8
ATOM      7  C   UNL     1       7.886   4.439  17.965  0.00  0.00    +0.000 C 
ATOM      8  C   UNL     1       6.970   5.194  18.886  0.00  0.00    +0.000 C 
ATOM      9  O   UNL     1       7.231   5.342  20.079  0.00  0.00    +0.000 OA
ENDBRANCH   1   8
BRANCH   3  10
ATOM     10  C   UNL     1       2.313   6.250  19.880  0.00  0.00    +0.000 C 
BRANCH  10  11
ATOM     11  C   UNL     1       1.990   4.798  20.173  0.00  0.00    +0.000 A 
ATOM     12  C   UNL     1       2.147   4.321  21.492  0.00  0.00    +0.000 A 
ATOM     13  C   UNL     1       1.952   2.977  21.805  0.00  0.00    +0.000 A 
ATOM     14  C   UNL     1       1.577   2.085  20.811  0.00  0.00    +0.000 A 
ATOM     15  C   UNL     1       1.360   2.542  19.512  0.00  0.00    +0.000 A 
ATOM     16  C   UNL     1       1.551   3.895  19.173  0.00  0.00    +0.000 A 
ATOM     17  C   UNL     1       1.244   4.324  17.767  0.00  0.00    +0.000 C 
ENDBRANCH  10  11
ENDBRANCH   3  10
BRANCH   6  18
ATOM     18  C   UNL     1       6.629   6.605  16.013  0.00  0.00    +0.000 C 
BRANCH  18  19
ATOM     19  C   UNL     1       6.280   5.760  14.804  0.00  0.00    +0.000 C 
ATOM     20  C   UNL     1       5.595   4.438  15.167  0.00  0.00    +0.000 C 
ATOM     21  C   UNL     1       5.639   3.809  13.812  0.00  0.00    +0.000 A 
ATOM     22  C   UNL     1       4.570   3.392  13.048  0.00  0.00    +0.000 A 
ATOM     23  C   UNL     1       4.786   3.184  11.679  0.00  0.00    +0.000 A 
ATOM     24  C   UNL     1       3.599   3.148  10.754  0.00  0.00    +0.000 C 
ATOM     25  C   UNL     1       6.099   3.176  11.154  0.00  0.00    +0.000 A 
ATOM     26  C   UNL     1       7.170   3.639  11.920  0.00  0.00    +0.000 A 
ATOM     27  C   UNL     1       6.871   4.052  13.203  0.00  0.00    +0.000 A 
ATOM     28  C   UNL     1       7.415   5.230  13.911  0.00  0.00    +0.000 C 
ATOM     29  O   UNL     1       8.478   5.775  13.679  0.00  0.00    +0.000 OA
ENDBRANCH  18  19
ENDBRANCH   6  18
TORSDOF 5
ENDMDL
MODEL 3
REMARK VINA RESULT:      -8.3      2.861      4.743
REMARK  Name = 
REMARK  8 active torsions:
REMARK  status: ('A' for Active; 'I' for Inactive)
REMARK    1  A    between atoms: C_1  and  C_2
REMARK    2  A    between atoms: C_2  and  C_4
REMARK    3  A    between atoms: N_6  and  C_7
REMARK    4  A    between atoms: C_7  and  C_8
REMARK    5  A    between atoms: C_13  and  C_14
REMARK    6  A    between atoms: C_17  and  C_18
REMARK    7  A    between atoms: C_18  and  C_19
REMARK    8  A    between atoms: C_23  and  C_24
REMARK                            x       y       z     vdW  Elec       q    Type
REMARK                         _______ _______ _______ _____ _____    ______ ____
ROOT
ATOM      1  C   UNL     1       1.179   8.853  20.541  0.00  0.00    +0.000 A 
ATOM      2  C   UNL     1       1.981   7.702  20.431  0.00  0.00    +0.000 A 
ATOM      3  N   UNL     1       2.442   7.278  19.222  0.00  0.00    +0.000 N 
ATOM      4  C   UNL     1       2.139   7.969  18.110  0.00  0.00    +0.000 A 
ATOM      5  C   UNL     1       1.350   9.101  18.161  0.00  0.00    +0.000 A 
ATOM      6  C   UNL     1       0.857   9.585  19.381  0.00  0.00    +0.000 A 
ENDROOT
BRANCH   1   8
ATOM      7  C   UNL     1      -0.604   8.944  22.430  0.00  0.00    +0.000 C 
ATOM      8  C   UNL     1       0.798   9.172  21.941  0.00  0.00    +0.000 C 
ATOM      9  O   UNL     1       1.690   9.559  22.693  0.00  0.00    +0.000 OA
ENDBRANCH   1   8
BRANCH   3  10
ATOM     10  C   UNL     1       3.266   6.037  19.134  0.00  0.00    +0.000 C 
BRANCH  10  11
ATOM     11  C   UNL     1       2.485   4.865  19.695  0.00  0.00    +0.000 A 
ATOM     12  C   UNL     1       2.607   4.566  21.069  0.00  0.00    +0.000 A 
ATOM     13  C   UNL     1       1.986   3.448  21.624  0.00  0.00    +0.000 A 
ATOM     14  C   UNL     1       1.216   2.617  20.824  0.00  0.00    +0.000 A 
ATOM     15  C   UNL     1       1.035   2.924  19.476  0.00  0.00    +0.000 A 
ATOM     16  C   UNL     1       1.652   4.047  18.894  0.00  0.00    +0.000 A 
ATOM     17  C   UNL     1       1.365   4.344  17.449  0.00  0.00    +0.000 C 
ENDBRANCH  10  11
ENDBRANCH   3  10
BRANCH   6  18
ATOM     18  C   UNL     1       0.099  10.900  19.317  0.00  0.00    +0.000 C 
BRANCH  18  19
ATOM     19  C   UNL     1       1.009  12.109  19.229  0.00  0.00    +0.000 C 
ATOM     20  C   UNL     1       1.573  12.541  20.587  0.00  0.00    +0.000 C 
ATOM     21  C   UNL     1       2.178  13.837  20.150  0.00  0.00    +0.000 A 
ATOM     22  C   UNL     1       3.504  14.209  20.223  0.00  0.00    +0.000 A 
ATOM     23  C   UNL     1       3.924  15.286  19.431  0.00  0.00    +0.000 A 
ATOM     24  C   UNL     1       5.395  15.451  19.154  0.00  0.00    +0.000 C 
ATOM     25  C   UNL     1       2.979  16.102  18.769  0.00  0.00    +0.000 A 
ATOM     26  C   UNL     1       1.646  15.698  18.665  0.00  0.00    +0.000 A 
ATOM     27  C   UNL     1       1.320  14.503  19.274  0.00  0.00    +0.000 A 
ATOM     28  C   UNL     1       0.426  13.449  18.749  0.00  0.00    +0.000 C 
ATOM     29  O   UNL     1      -0.470  13.609  17.941  0.00  0.00    +0.000 OA
ENDBRANCH  18  19
ENDBRANCH   6  18
TORSDOF 5
ENDMDL
MODEL 4
REMARK VINA RESULT:      -8.3      2.613      4.493
REMARK  Name = 
REMARK  8 active torsions:
REMARK  status: ('A' for Active; 'I' for Inactive)
REMARK    1  A    between atoms: C_1  and  C_2
REMARK    2  A    between atoms: C_2  and  C_4
REMARK    3  A    between atoms: N_6  and  C_7
REMARK    4  A    between atoms: C_7  and  C_8
REMARK    5  A    between atoms: C_13  and  C_14
REMARK    6  A    between atoms: C_17  and  C_18
REMARK    7  A    between atoms: C_18  and  C_19
REMARK    8  A    between atoms: C_23  and  C_24
REMARK                            x       y       z     vdW  Elec       q    Type
REMARK                         _______ _______ _______ _____ _____    ______ ____
ROOT
ATOM      1  C   UNL     1       1.148   8.847  20.542  0.00  0.00    +0.000 A 
ATOM      2  C   UNL     1       2.026   7.751  20.460  0.00  0.00    +0.000 A 
ATOM      3  N   UNL     1       2.478   7.301  19.257  0.00  0.00    +0.000 N 
ATOM      4  C   UNL     1       2.094   7.913  18.124  0.00  0.00    +0.000 A 
ATOM      5  C   UNL     1       1.228   8.990  18.149  0.00  0.00    +0.000 A 
ATOM      6  C   UNL     1       0.740   9.498  19.362  0.00  0.00    +0.000 A 
ENDROOT
BRANCH   1   8
ATOM      7  C   UNL     1      -0.613   9.024  22.446  0.00  0.00    +0.000 C 
ATOM      8  C   UNL     1       0.789   9.208  21.938  0.00  0.00    +0.000 C 
ATOM      9  O   UNL     1       1.697   9.591  22.673  0.00  0.00    +0.000 OA
ENDBRANCH   1   8
BRANCH   3  10
ATOM     10  C   UNL     1       3.385   6.117  19.200  0.00  0.00    +0.000 C 
BRANCH  10  11
ATOM     11  C   UNL     1       2.565   4.852  19.046  0.00  0.00    +0.000 A 
ATOM     12  C   UNL     1       1.549   4.585  19.989  0.00  0.00    +0.000 A 
ATOM     13  C   UNL     1       0.822   3.396  19.953  0.00  0.00    +0.000 A 
ATOM     14  C   UNL     1       1.080   2.458  18.964  0.00  0.00    +0.000 A 
ATOM     15  C   UNL     1       2.040   2.725  17.989  0.00  0.00    +0.000 A 
ATOM     16  C   UNL     1       2.786   3.918  18.005  0.00  0.00    +0.000 A 
ATOM     17  C   UNL     1       3.762   4.159  16.888  0.00  0.00    +0.000 C 
ENDBRANCH  10  11
ENDBRANCH   3  10
BRANCH   6  18
ATOM     18  C   UNL     1      -0.111  10.753  19.262  0.00  0.00    +0.000 C 
BRANCH  18  19
ATOM     19  C   UNL     1       0.709  12.027  19.217  0.00  0.00    +0.000 C 
ATOM     20  C   UNL     1       2.030  11.868  18.456  0.00  0.00    +0.000 C 
ATOM     21  C   UNL     1       2.635  13.183  18.828  0.00  0.00    +0.000 A 
ATOM     22  C   UNL     1       3.029  14.195  17.978  0.00  0.00    +0.000 A 
ATOM     23  C   UNL     1       3.215  15.472  18.523  0.00  0.00    +0.000 A 
ATOM     24  C   UNL     1       3.223  16.661  17.600  0.00  0.00    +0.000 C 
ATOM     25  C   UNL     1       3.227  15.659  19.925  0.00  0.00    +0.000 A 
ATOM     26  C   UNL     1       2.788  14.643  20.777  0.00  0.00    +0.000 A 
ATOM     27  C   UNL     1       2.395  13.465  20.173  0.00  0.00    +0.000 A 
ATOM     28  C   UNL     1       1.235  12.623  20.533  0.00  0.00    +0.000 C 
ATOM     29  O   UNL     1       0.696  12.576  21.623  0.00  0.00    +0.000 OA
ENDBRANCH  18  19
ENDBRANCH   6  18
TORSDOF 5
ENDMDL
MODEL 5
REMARK VINA RESULT:      -8.3      0.932      1.142
REMARK  Name = 
REMARK  8 active torsions:
REMARK  status: ('A' for Active; 'I' for Inactive)
REMARK    1  A    between atoms: C_1  and  C_2
REMARK    2  A    between atoms: C_2  and  C_4
REMARK    3  A    between atoms: N_6  and  C_7
REMARK    4  A    between atoms: C_7  and  C_8
REMARK    5  A    between atoms: C_13  and  C_14
REMARK    6  A    between atoms: C_17  and  C_18
REMARK    7  A    between atoms: C_18  and  C_19
REMARK    8  A    between atoms: C_23  and  C_24
REMARK                            x       y       z     vdW  Elec       q    Type
REMARK                         _______ _______ _______ _____ _____    ______ ____
ROOT
ATOM      1  C   UNL     1       1.307   8.895  20.179  0.00  0.00    +0.000 A 
ATOM      2  C   UNL     1       1.959   7.659  20.017  0.00  0.00    +0.000 A 
ATOM      3  N   UNL     1       2.534   7.317  18.831  0.00  0.00    +0.000 N 
ATOM      4  C   UNL     1       2.491   8.171  17.794  0.00  0.00    +0.000 A 
ATOM      5  C   UNL     1       1.857   9.394  17.898  0.00  0.00    +0.000 A 
ATOM      6  C   UNL     1       1.257   9.798  19.100  0.00  0.00    +0.000 A 
ENDROOT
BRANCH   1   8
ATOM      7  C   UNL     1      -0.574   8.550  21.940  0.00  0.00    +0.000 C 
ATOM      8  C   UNL     1       0.768   9.099  21.548  0.00  0.00    +0.000 C 
ATOM      9  O   UNL     1       1.494   9.671  22.360  0.00  0.00    +0.000 OA
ENDBRANCH   1   8
BRANCH   3  10
ATOM     10  C   UNL     1       3.193   5.987  18.681  0.00  0.00    +0.000 C 
BRANCH  10  11
ATOM     11  C   UNL     1       2.402   4.936  19.435  0.00  0.00    +0.000 A 
ATOM     12  C   UNL     1       2.609   4.801  20.825  0.00  0.00    +0.000 A 
ATOM     13  C   UNL     1       1.979   3.796  21.556  0.00  0.00    +0.000 A 
ATOM     14  C   UNL     1       1.115   2.917  20.920  0.00  0.00    +0.000 A 
ATOM     15  C   UNL     1       0.851   3.066  19.559  0.00  0.00    +0.000 A 
ATOM     16  C   UNL     1       1.475   4.074  18.800  0.00  0.00    +0.000 A 
ATOM     17  C   UNL     1       1.098   4.208  17.352  0.00  0.00    +0.000 C 
ENDBRANCH  10  11
ENDBRANCH   3  10
BRANCH   6  18
ATOM     18  C   UNL     1       0.695  11.210  19.119  0.00  0.00    +0.000 C 
BRANCH  18  19
ATOM     19  C   UNL     1      -0.819  11.247  19.190  0.00  0.00    +0.000 C 
ATOM     20  C   UNL     1      -1.471  11.768  17.904  0.00  0.00    +0.000 C 
ATOM     21  C   UNL     1      -2.868  11.892  18.423  0.00  0.00    +0.000 A 
ATOM     22  C   UNL     1      -3.995  11.252  17.953  0.00  0.00    +0.000 A 
ATOM     23  C   UNL     1      -5.116  11.204  18.792  0.00  0.00    +0.000 A 
ATOM     24  C   UNL     1      -6.187  10.184  18.513  0.00  0.00    +0.000 C 
ATOM     25  C   UNL     1      -5.164  11.983  19.971  0.00  0.00    +0.000 A 
ATOM     26  C   UNL     1      -4.009  12.594  20.462  0.00  0.00    +0.000 A 
ATOM     27  C   UNL     1      -2.861  12.424  19.713  0.00  0.00    +0.000 A 
ATOM     28  C   UNL     1      -1.496  12.169  20.218  0.00  0.00    +0.000 C 
ATOM     29  O   UNL     1      -1.073  12.471  21.319  0.00  0.00    +0.000 OA
ENDBRANCH  18  19
ENDBRANCH   6  18
TORSDOF 5
ENDMDL
MODEL 6
REMARK VINA RESULT:      -8.2      2.012      8.042
REMARK  Name = 
REMARK  8 active torsions:
REMARK  status: ('A' for Active; 'I' for Inactive)
REMARK    1  A    between atoms: C_1  and  C_2
REMARK    2  A    between atoms: C_2  and  C_4
REMARK    3  A    between atoms: N_6  and  C_7
REMARK    4  A    between atoms: C_7  and  C_8
REMARK    5  A    between atoms: C_13  and  C_14
REMARK    6  A    between atoms: C_17  and  C_18
REMARK    7  A    between atoms: C_18  and  C_19
REMARK    8  A    between atoms: C_23  and  C_24
REMARK                            x       y       z     vdW  Elec       q    Type
REMARK                         _______ _______ _______ _____ _____    ______ ____
ROOT
ATOM      1  C   UNL     1      -1.778  11.836  19.532  0.00  0.00    +0.000 A 
ATOM      2  C   UNL     1      -3.093  11.911  19.036  0.00  0.00    +0.000 A 
ATOM      3  N   UNL     1      -3.517  11.087  18.039  0.00  0.00    +0.000 N 
ATOM      4  C   UNL     1      -2.678  10.175  17.520  0.00  0.00    +0.000 A 
ATOM      5  C   UNL     1      -1.375  10.064  17.966  0.00  0.00    +0.000 A 
ATOM      6  C   UNL     1      -0.890  10.883  18.996  0.00  0.00    +0.000 A 
ENDROOT
BRANCH   1   8
ATOM      7  C   UNL     1      -1.673  12.384  22.071  0.00  0.00    +0.000 C 
ATOM      8  C   UNL     1      -1.510  12.794  20.635  0.00  0.00    +0.000 C 
ATOM      9  O   UNL     1      -1.084  13.906  20.324  0.00  0.00    +0.000 OA
ENDBRANCH   1   8
BRANCH   3  10
ATOM     10  C   UNL     1      -4.909  11.211  17.514  0.00  0.00    +0.000 C 
BRANCH  10  11
ATOM     11  C   UNL     1      -5.901  11.008  18.643  0.00  0.00    +0.000 A 
ATOM     12  C   UNL     1      -6.197   9.692  19.056  0.00  0.00    +0.000 A 
ATOM     13  C   UNL     1      -7.165   9.437  20.025  0.00  0.00    +0.000 A 
ATOM     14  C   UNL     1      -7.845  10.493  20.616  0.00  0.00    +0.000 A 
ATOM     15  C   UNL     1      -7.529  11.805  20.265  0.00  0.00    +0.000 A 
ATOM     16  C   UNL     1      -6.555  12.086  19.289  0.00  0.00    +0.000 A 
ATOM     17  C   UNL     1      -6.230  13.524  19.005  0.00  0.00    +0.000 C 
ENDBRANCH  10  11
ENDBRANCH   3  10
BRANCH   6  18
ATOM     18  C   UNL     1       0.521  10.585  19.473  0.00  0.00    +0.000 C 
BRANCH  18  19
ATOM     19  C   UNL     1       0.875   9.112  19.406  0.00  0.00    +0.000 C 
ATOM     20  C   UNL     1       1.520   8.587  20.692  0.00  0.00    +0.000 C 
ATOM     21  C   UNL     1       1.933   7.245  20.177  0.00  0.00    +0.000 A 
ATOM     22  C   UNL     1       1.544   6.010  20.650  0.00  0.00    +0.000 A 
ATOM     23  C   UNL     1       1.731   4.902  19.814  0.00  0.00    +0.000 A 
ATOM     24  C   UNL     1       0.957   3.642  20.096  0.00  0.00    +0.000 C 
ATOM     25  C   UNL     1       2.502   5.015  18.634  0.00  0.00    +0.000 A 
ATOM     26  C   UNL     1       2.858   6.271  18.140  0.00  0.00    +0.000 A 
ATOM     27  C   UNL     1       2.452   7.360  18.886  0.00  0.00    +0.000 A 
ATOM     28  C   UNL     1       1.917   8.641  18.378  0.00  0.00    +0.000 C 
ATOM     29  O   UNL     1       2.123   9.115  17.276  0.00  0.00    +0.000 OA
ENDBRANCH  18  19
ENDBRANCH   6  18
TORSDOF 5
ENDMDL
MODEL 7
REMARK VINA RESULT:      -8.0      2.784      4.591
REMARK  Name = 
REMARK  8 active torsions:
REMARK  status: ('A' for Active; 'I' for Inactive)
REMARK    1  A    between atoms: C_1  and  C_2
REMARK    2  A    between atoms: C_2  and  C_4
REMARK    3  A    between atoms: N_6  and  C_7
REMARK    4  A    between atoms: C_7  and  C_8
REMARK    5  A    between atoms: C_13  and  C_14
REMARK    6  A    between atoms: C_17  and  C_18
REMARK    7  A    between atoms: C_18  and  C_19
REMARK    8  A    between atoms: C_23  and  C_24
REMARK                            x       y       z     vdW  Elec       q    Type
REMARK                         _______ _______ _______ _____ _____    ______ ____
ROOT
ATOM      1  C   UNL     1       0.955   8.521  20.423  0.00  0.00    +0.000 A 
ATOM      2  C   UNL     1       1.829   7.418  20.420  0.00  0.00    +0.000 A 
ATOM      3  N   UNL     1       2.591   7.127  19.330  0.00  0.00    +0.000 N 
ATOM      4  C   UNL     1       2.521   7.904  18.236  0.00  0.00    +0.000 A 
ATOM      5  C   UNL     1       1.675   8.995  18.184  0.00  0.00    +0.000 A 
ATOM      6  C   UNL     1       0.876   9.344  19.282  0.00  0.00    +0.000 A 
ENDROOT
BRANCH   1   8
ATOM      7  C   UNL     1       0.813   9.527  22.816  0.00  0.00    +0.000 C 
ATOM      8  C   UNL     1       0.232   8.694  21.709  0.00  0.00    +0.000 C 
ATOM      9  O   UNL     1      -0.886   8.189  21.799  0.00  0.00    +0.000 OA
ENDBRANCH   1   8
BRANCH   3  10
ATOM     10  C   UNL     1       3.486   5.933  19.347  0.00  0.00    +0.000 C 
BRANCH  10  11
ATOM     11  C   UNL     1       2.679   4.684  19.055  0.00  0.00    +0.000 A 
ATOM     12  C   UNL     1       1.598   4.362  19.904  0.00  0.00    +0.000 A 
ATOM     13  C   UNL     1       0.876   3.181  19.740  0.00  0.00    +0.000 A 
ATOM     14  C   UNL     1       1.204   2.308  18.714  0.00  0.00    +0.000 A 
ATOM     15  C   UNL     1       2.231   2.632  17.828  0.00  0.00    +0.000 A 
ATOM     16  C   UNL     1       2.974   3.818  17.973  0.00  0.00    +0.000 A 
ATOM     17  C   UNL     1       4.027   4.126  16.947  0.00  0.00    +0.000 C 
ENDBRANCH  10  11
ENDBRANCH   3  10
BRANCH   6  18
ATOM     18  C   UNL     1       0.076  10.628  19.141  0.00  0.00    +0.000 C 
BRANCH  18  19
ATOM     19  C   UNL     1       0.939  11.874  19.165  0.00  0.00    +0.000 C 
ATOM     20  C   UNL     1       1.415  12.251  20.572  0.00  0.00    +0.000 C 
ATOM     21  C   UNL     1       1.988  13.591  20.238  0.00  0.00    +0.000 A 
ATOM     22  C   UNL     1       3.292  14.008  20.400  0.00  0.00    +0.000 A 
ATOM     23  C   UNL     1       3.708  15.143  19.691  0.00  0.00    +0.000 A 
ATOM     24  C   UNL     1       5.183  15.379  19.502  0.00  0.00    +0.000 C 
ATOM     25  C   UNL     1       2.765  15.958  19.024  0.00  0.00    +0.000 A 
ATOM     26  C   UNL     1       1.457  15.510  18.828  0.00  0.00    +0.000 A 
ATOM     27  C   UNL     1       1.149  14.271  19.354  0.00  0.00    +0.000 A 
ATOM     28  C   UNL     1       0.327  13.215  18.727  0.00  0.00    +0.000 C 
ATOM     29  O   UNL     1      -0.532  13.384  17.883  0.00  0.00    +0.000 OA
ENDBRANCH  18  19
ENDBRANCH   6  18
TORSDOF 5
ENDMDL
MODEL 8
REMARK VINA RESULT:      -8.0      0.866      2.019
REMARK  Name = 
REMARK  8 active torsions:
REMARK  status: ('A' for Active; 'I' for Inactive)
REMARK    1  A    between atoms: C_1  and  C_2
REMARK    2  A    between atoms: C_2  and  C_4
REMARK    3  A    between atoms: N_6  and  C_7
REMARK    4  A    between atoms: C_7  and  C_8
REMARK    5  A    between atoms: C_13  and  C_14
REMARK    6  A    between atoms: C_17  and  C_18
REMARK    7  A    between atoms: C_18  and  C_19
REMARK    8  A    between atoms: C_23  and  C_24
REMARK                            x       y       z     vdW  Elec       q    Type
REMARK                         _______ _______ _______ _____ _____    ______ ____
ROOT
ATOM      1  C   UNL     1       1.072   9.104  20.259  0.00  0.00    +0.000 A 
ATOM      2  C   UNL     1       1.743   7.881  20.444  0.00  0.00    +0.000 A 
ATOM      3  N   UNL     1       2.271   7.202  19.389  0.00  0.00    +0.000 N 
ATOM      4  C   UNL     1       2.164   7.704  18.147  0.00  0.00    +0.000 A 
ATOM      5  C   UNL     1       1.510   8.897  17.909  0.00  0.00    +0.000 A 
ATOM      6  C   UNL     1       0.955   9.640  18.962  0.00  0.00    +0.000 A 
ENDROOT
BRANCH   1   8
ATOM      7  C   UNL     1      -0.461   9.027  22.357  0.00  0.00    +0.000 C 
ATOM      8  C   UNL     1       0.591   9.708  21.528  0.00  0.00    +0.000 C 
ATOM      9  O   UNL     1       1.138  10.744  21.902  0.00  0.00    +0.000 OA
ENDBRANCH   1   8
BRANCH   3  10
ATOM     10  C   UNL     1       2.951   5.893  19.613  0.00  0.00    +0.000 C 
BRANCH  10  11
ATOM     11  C   UNL     1       3.766   5.523  18.389  0.00  0.00    +0.000 A 
ATOM     12  C   UNL     1       4.943   6.251  18.114  0.00  0.00    +0.000 A 
ATOM     13  C   UNL     1       5.685   6.018  16.958  0.00  0.00    +0.000 A 
ATOM     14  C   UNL     1       5.278   5.041  16.061  0.00  0.00    +0.000 A 
ATOM     15  C   UNL     1       4.149   4.270  16.340  0.00  0.00    +0.000 A 
ATOM     16  C   UNL     1       3.385   4.488  17.501  0.00  0.00    +0.000 A 
ATOM     17  C   UNL     1       2.216   3.581  17.761  0.00  0.00    +0.000 C 
ENDBRANCH  10  11
ENDBRANCH   3  10
BRANCH   6  18
ATOM     18  C   UNL     1       0.364  10.988  18.584  0.00  0.00    +0.000 C 
BRANCH  18  19
ATOM     19  C   UNL     1      -1.137  11.057  18.782  0.00  0.00    +0.000 C 
ATOM     20  C   UNL     1      -1.906  11.323  17.483  0.00  0.00    +0.000 C 
ATOM     21  C   UNL     1      -3.251  11.563  18.091  0.00  0.00    +0.000 A 
ATOM     22  C   UNL     1      -4.412  10.858  17.859  0.00  0.00    +0.000 A 
ATOM     23  C   UNL     1      -5.453  10.989  18.789  0.00  0.00    +0.000 A 
ATOM     24  C   UNL     1      -6.539   9.947  18.814  0.00  0.00    +0.000 C 
ATOM     25  C   UNL     1      -5.398  11.985  19.792  0.00  0.00    +0.000 A 
ATOM     26  C   UNL     1      -4.206  12.666  20.047  0.00  0.00    +0.000 A 
ATOM     27  C   UNL     1      -3.130  12.338  19.245  0.00  0.00    +0.000 A 
ATOM     28  C   UNL     1      -1.723  12.171  19.665  0.00  0.00    +0.000 C 
ATOM     29  O   UNL     1      -1.204  12.677  20.642  0.00  0.00    +0.000 OA
ENDBRANCH  18  19
ENDBRANCH   6  18
TORSDOF 5
ENDMDL
MODEL 9
REMARK VINA RESULT:      -8.0      2.699      4.395
REMARK  Name = 
REMARK  8 active torsions:
REMARK  status: ('A' for Active; 'I' for Inactive)
REMARK    1  A    between atoms: C_1  and  C_2
REMARK    2  A    between atoms: C_2  and  C_4
REMARK    3  A    between atoms: N_6  and  C_7
REMARK    4  A    between atoms: C_7  and  C_8
REMARK    5  A    between atoms: C_13  and  C_14
REMARK    6  A    between atoms: C_17  and  C_18
REMARK    7  A    between atoms: C_18  and  C_19
REMARK    8  A    between atoms: C_23  and  C_24
REMARK                            x       y       z     vdW  Elec       q    Type
REMARK                         _______ _______ _______ _____ _____    ______ ____
ROOT
ATOM      1  C   UNL     1       1.036   9.072  20.275  0.00  0.00    +0.000 A 
ATOM      2  C   UNL     1       1.851   7.938  20.449  0.00  0.00    +0.000 A 
ATOM      3  N   UNL     1       2.434   7.321  19.385  0.00  0.00    +0.000 N 
ATOM      4  C   UNL     1       2.242   7.801  18.144  0.00  0.00    +0.000 A 
ATOM      5  C   UNL     1       1.445   8.906  17.918  0.00  0.00    +0.000 A 
ATOM      6  C   UNL     1       0.829   9.584  18.980  0.00  0.00    +0.000 A 
ENDROOT
BRANCH   1   8
ATOM      7  C   UNL     1      -0.588   8.923  22.300  0.00  0.00    +0.000 C 
ATOM      8  C   UNL     1       0.513   9.621  21.553  0.00  0.00    +0.000 C 
ATOM      9  O   UNL     1       1.065  10.623  22.004  0.00  0.00    +0.000 OA
ENDBRANCH   1   8
BRANCH   3  10
ATOM     10  C   UNL     1       3.269   6.104  19.598  0.00  0.00    +0.000 C 
BRANCH  10  11
ATOM     11  C   UNL     1       2.458   4.864  19.277  0.00  0.00    +0.000 A 
ATOM     12  C   UNL     1       1.411   4.496  20.148  0.00  0.00    +0.000 A 
ATOM     13  C   UNL     1       0.688   3.319  19.955  0.00  0.00    +0.000 A 
ATOM     14  C   UNL     1       0.983   2.497  18.878  0.00  0.00    +0.000 A 
ATOM     15  C   UNL     1       1.976   2.868  17.972  0.00  0.00    +0.000 A 
ATOM     16  C   UNL     1       2.718   4.052  18.146  0.00  0.00    +0.000 A 
ATOM     17  C   UNL     1       3.732   4.414  17.099  0.00  0.00    +0.000 C 
ENDBRANCH  10  11
ENDBRANCH   3  10
BRANCH   6  18
ATOM     18  C   UNL     1       0.074  10.850  18.611  0.00  0.00    +0.000 C 
BRANCH  18  19
ATOM     19  C   UNL     1       0.758  12.114  19.093  0.00  0.00    +0.000 C 
ATOM     20  C   UNL     1      -0.127  13.360  18.983  0.00  0.00    +0.000 C 
ATOM     21  C   UNL     1       0.922  14.379  19.293  0.00  0.00    +0.000 A 
ATOM     22  C   UNL     1       0.928  15.284  20.333  0.00  0.00    +0.000 A 
ATOM     23  C   UNL     1       2.149  15.883  20.671  0.00  0.00    +0.000 A 
ATOM     24  C   UNL     1       2.292  16.526  22.025  0.00  0.00    +0.000 C 
ATOM     25  C   UNL     1       3.275  15.741  19.828  0.00  0.00    +0.000 A 
ATOM     26  C   UNL     1       3.275  14.794  18.802  0.00  0.00    +0.000 A 
ATOM     27  C   UNL     1       2.116  14.059  18.648  0.00  0.00    +0.000 A 
ATOM     28  C   UNL     1       2.009  12.615  18.352  0.00  0.00    +0.000 C 
ATOM     29  O   UNL     1       2.852  11.933  17.799  0.00  0.00    +0.000 OA
ENDBRANCH  18  19
ENDBRANCH   6  18
TORSDOF 5
ENDMDL
