MODEL 1
REMARK VINA RESULT:      -9.3      0.000      0.000
REMARK  Name = 
REMARK  4 active torsions:
REMARK  status: ('A' for Active; 'I' for Inactive)
REMARK    1  A    between atoms: C_1  and  N_2
REMARK    2  A    between atoms: C_5  and  N_6
REMARK    3  A    between atoms: N_14  and  C_15
REMARK    4  A    between atoms: C_20  and  C_21
REMARK                            x       y       z     vdW  Elec       q    Type
REMARK                         _______ _______ _______ _____ _____    ______ ____
ROOT
ATOM      1  N   UNL     1       8.366   9.406  18.752  0.00  0.00    +0.000 N 
ATOM      2  C   UNL     1       7.984   8.421  17.886  0.00  0.00    +0.000 C 
ATOM      3  O   UNL     1       8.531   8.343  16.795  0.00  0.00    +0.000 OA
ATOM      4  N   UNL     1       7.001   7.524  18.230  0.00  0.00    +0.000 N 
ATOM      5  C   UNL     1       6.555   6.479  17.350  0.00  0.00    +0.000 A 
ATOM      6  N   UNL     1       7.091   6.362  16.086  0.00  0.00    +0.000 NA
ATOM      7  C   UNL     1       6.669   5.358  15.273  0.00  0.00    +0.000 A 
ATOM      8  N   UNL     1       7.086   5.101  14.022  0.00  0.00    +0.000 NA
ATOM      9  N   UNL     1       6.409   4.023  13.627  0.00  0.00    +0.000 N 
ATOM     10  C   UNL     1       6.567   3.401  12.322  0.00  0.00    +0.000 C 
ATOM     11  C   UNL     1       5.572   3.594  14.603  0.00  0.00    +0.000 A 
ATOM     12  C   UNL     1       5.735   4.452  15.660  0.00  0.00    +0.000 A 
ATOM     13  C   UNL     1       5.192   4.569  16.918  0.00  0.00    +0.000 A 
ATOM     14  N   UNL     1       4.265   3.795  17.488  0.00  0.00    +0.000 NA
ATOM     15  C   UNL     1       4.113   4.376  18.701  0.00  0.00    +0.000 A 
ATOM     16  N   UNL     1       4.923   5.461  18.866  0.00  0.00    +0.000 NA
ATOM     17  N   UNL     1       5.596   5.560  17.731  0.00  0.00    +0.000 N 
ATOM     18  H   UNL     1       7.925   9.445  19.685  0.00  0.00    +0.000 HD
ATOM     19  H   UNL     1       6.560   7.599  19.159  0.00  0.00    +0.000 HD
ENDROOT
BRANCH   1  24
ATOM     20  C   UNL     1      11.429  14.209  18.569  0.00  0.00    +0.000 C 
ATOM     21  N   UNL     1      10.498  13.095  18.803  0.00  0.00    +0.000 NA
ATOM     22  C   UNL     1       9.757  12.776  17.568  0.00  0.00    +0.000 C 
ATOM     23  C   UNL     1       8.713  11.689  17.847  0.00  0.00    +0.000 C 
ATOM     24  C   UNL     1       9.379  10.409  18.404  0.00  0.00    +0.000 C 
ATOM     25  C   UNL     1      10.219  10.794  19.640  0.00  0.00    +0.000 C 
ATOM     26  C   UNL     1      11.222  11.904  19.288  0.00  0.00    +0.000 C 
ENDBRANCH   1  24
BRANCH  15  27
ATOM     27  C   UNL     1       3.157   3.859  19.687  0.00  0.00    +0.000 A 
ATOM     28  C   UNL     1       1.836   4.222  19.835  0.00  0.00    +0.000 A 
ATOM     29  C   UNL     1       1.355   3.459  20.879  0.00  0.00    +0.000 A 
ATOM     30  C   UNL     1       2.411   2.680  21.306  0.00  0.00    +0.000 A 
ATOM     31  O   UNL     1       3.470   2.939  20.574  0.00  0.00    +0.000 OA
ENDBRANCH  15  27
TORSDOF 2
ENDMDL
MODEL 2
REMARK VINA RESULT:      -8.8      5.040      7.416
REMARK  Name = 
REMARK  4 active torsions:
REMARK  status: ('A' for Active; 'I' for Inactive)
REMARK    1  A    between atoms: C_1  and  N_2
REMARK    2  A    between atoms: C_5  and  N_6
REMARK    3  A    between atoms: N_14  and  C_15
REMARK    4  A    between atoms: C_20  and  C_21
REMARK                            x       y       z     vdW  Elec       q    Type
REMARK                         _______ _______ _______ _____ _____    ______ ____
ROOT
ATOM      1  N   UNL     1       2.020  10.800  18.147  0.00  0.00    +0.000 N 
ATOM      2  C   UNL     1       2.089   9.500  18.561  0.00  0.00    +0.000 C 
ATOM      3  O   UNL     1       1.464   9.159  19.555  0.00  0.00    +0.000 OA
ATOM      4  N   UNL     1       2.846   8.581  17.873  0.00  0.00    +0.000 N 
ATOM      5  C   UNL     1       2.960   7.206  18.276  0.00  0.00    +0.000 A 
ATOM      6  N   UNL     1       2.324   6.763  19.414  0.00  0.00    +0.000 NA
ATOM      7  C   UNL     1       2.431   5.455  19.771  0.00  0.00    +0.000 A 
ATOM      8  N   UNL     1       1.877   4.861  20.841  0.00  0.00    +0.000 NA
ATOM      9  N   UNL     1       2.241   3.582  20.776  0.00  0.00    +0.000 N 
ATOM     10  C   UNL     1       1.845   2.576  21.750  0.00  0.00    +0.000 C 
ATOM     11  C   UNL     1       3.015   3.354  19.687  0.00  0.00    +0.000 A 
ATOM     12  C   UNL     1       3.141   4.557  19.042  0.00  0.00    +0.000 A 
ATOM     13  C   UNL     1       3.784   4.998  17.908  0.00  0.00    +0.000 A 
ATOM     14  N   UNL     1       4.532   4.288  17.060  0.00  0.00    +0.000 NA
ATOM     15  C   UNL     1       4.906   5.223  16.157  0.00  0.00    +0.000 A 
ATOM     16  N   UNL     1       4.398   6.457  16.440  0.00  0.00    +0.000 NA
ATOM     17  N   UNL     1       3.691   6.289  17.547  0.00  0.00    +0.000 N 
ATOM     18  H   UNL     1       2.522  11.074  17.288  0.00  0.00    +0.000 HD
ATOM     19  H   UNL     1       3.356   8.886  17.032  0.00  0.00    +0.000 HD
ENDROOT
BRANCH   1  24
ATOM     20  C   UNL     1      -0.831  15.553  19.475  0.00  0.00    +0.000 C 
ATOM     21  N   UNL     1      -0.077  14.435  18.890  0.00  0.00    +0.000 NA
ATOM     22  C   UNL     1       1.205  14.254  19.597  0.00  0.00    +0.000 C 
ATOM     23  C   UNL     1       2.033  13.158  18.914  0.00  0.00    +0.000 C 
ATOM     24  C   UNL     1       1.260  11.819  18.880  0.00  0.00    +0.000 C 
ATOM     25  C   UNL     1      -0.111  12.064  18.217  0.00  0.00    +0.000 C 
ATOM     26  C   UNL     1      -0.868  13.190  18.939  0.00  0.00    +0.000 C 
ENDBRANCH   1  24
BRANCH  15  27
ATOM     27  C   UNL     1       5.775   4.892  15.021  0.00  0.00    +0.000 A 
ATOM     28  C   UNL     1       5.543   3.950  14.043  0.00  0.00    +0.000 A 
ATOM     29  C   UNL     1       6.631   4.017  13.197  0.00  0.00    +0.000 A 
ATOM     30  C   UNL     1       7.460   4.992  13.712  0.00  0.00    +0.000 A 
ATOM     31  O   UNL     1       6.922   5.497  14.797  0.00  0.00    +0.000 OA
ENDBRANCH  15  27
TORSDOF 2
ENDMDL
MODEL 3
REMARK VINA RESULT:      -8.5      4.986      7.745
REMARK  Name = 
REMARK  4 active torsions:
REMARK  status: ('A' for Active; 'I' for Inactive)
REMARK    1  A    between atoms: C_1  and  N_2
REMARK    2  A    between atoms: C_5  and  N_6
REMARK    3  A    between atoms: N_14  and  C_15
REMARK    4  A    between atoms: C_20  and  C_21
REMARK                            x       y       z     vdW  Elec       q    Type
REMARK                         _______ _______ _______ _____ _____    ______ ____
ROOT
ATOM      1  N   UNL     1       1.593  10.627  18.060  0.00  0.00    +0.000 N 
ATOM      2  C   UNL     1       1.776   9.352  18.514  0.00  0.00    +0.000 C 
ATOM      3  O   UNL     1       1.184   8.988  19.520  0.00  0.00    +0.000 OA
ATOM      4  N   UNL     1       2.611   8.482  17.853  0.00  0.00    +0.000 N 
ATOM      5  C   UNL     1       2.846   7.136  18.298  0.00  0.00    +0.000 A 
ATOM      6  N   UNL     1       2.252   6.674  19.452  0.00  0.00    +0.000 NA
ATOM      7  C   UNL     1       2.474   5.393  19.850  0.00  0.00    +0.000 A 
ATOM      8  N   UNL     1       1.975   4.786  20.939  0.00  0.00    +0.000 NA
ATOM      9  N   UNL     1       2.450   3.542  20.913  0.00  0.00    +0.000 N 
ATOM     10  C   UNL     1       2.145   2.537  21.919  0.00  0.00    +0.000 C 
ATOM     11  C   UNL     1       3.242   3.350  19.829  0.00  0.00    +0.000 A 
ATOM     12  C   UNL     1       3.261   4.539  19.146  0.00  0.00    +0.000 A 
ATOM     13  C   UNL     1       3.862   4.998  17.998  0.00  0.00    +0.000 A 
ATOM     14  N   UNL     1       4.670   4.331  17.171  0.00  0.00    +0.000 NA
ATOM     15  C   UNL     1       4.960   5.266  16.237  0.00  0.00    +0.000 A 
ATOM     16  N   UNL     1       4.345   6.459  16.483  0.00  0.00    +0.000 NA
ATOM     17  N   UNL     1       3.656   6.264  17.596  0.00  0.00    +0.000 N 
ATOM     18  H   UNL     1       2.068  10.917  17.191  0.00  0.00    +0.000 HD
ATOM     19  H   UNL     1       3.092   8.804  17.001  0.00  0.00    +0.000 HD
ENDROOT
BRANCH   1  24
ATOM     20  C   UNL     1      -2.145  12.983  21.660  0.00  0.00    +0.000 C 
ATOM     21  N   UNL     1      -1.235  12.149  20.860  0.00  0.00    +0.000 NA
ATOM     22  C   UNL     1      -1.634  12.170  19.440  0.00  0.00    +0.000 C 
ATOM     23  C   UNL     1      -0.748  11.215  18.632  0.00  0.00    +0.000 C 
ATOM     24  C   UNL     1       0.745  11.597  18.762  0.00  0.00    +0.000 C 
ATOM     25  C   UNL     1       1.104  11.655  20.262  0.00  0.00    +0.000 C 
ATOM     26  C   UNL     1       0.159  12.611  21.008  0.00  0.00    +0.000 C 
ENDBRANCH   1  24
BRANCH  15  27
ATOM     27  C   UNL     1       5.854   4.978  15.110  0.00  0.00    +0.000 A 
ATOM     28  C   UNL     1       5.648   4.070  14.094  0.00  0.00    +0.000 A 
ATOM     29  C   UNL     1       6.753   4.170  13.275  0.00  0.00    +0.000 A 
ATOM     30  C   UNL     1       7.568   5.128  13.842  0.00  0.00    +0.000 A 
ATOM     31  O   UNL     1       7.004   5.593  14.933  0.00  0.00    +0.000 OA
ENDBRANCH  15  27
TORSDOF 2
ENDMDL
MODEL 4
REMARK VINA RESULT:      -7.9      4.839      7.306
REMARK  Name = 
REMARK  4 active torsions:
REMARK  status: ('A' for Active; 'I' for Inactive)
REMARK    1  A    between atoms: C_1  and  N_2
REMARK    2  A    between atoms: C_5  and  N_6
REMARK    3  A    between atoms: N_14  and  C_15
REMARK    4  A    between atoms: C_20  and  C_21
REMARK                            x       y       z     vdW  Elec       q    Type
REMARK                         _______ _______ _______ _____ _____    ______ ____
ROOT
ATOM      1  N   UNL     1       2.150  10.167  17.982  0.00  0.00    +0.000 N 
ATOM      2  C   UNL     1       2.348   8.877  18.386  0.00  0.00    +0.000 C 
ATOM      3  O   UNL     1       1.857   8.502  19.441  0.00  0.00    +0.000 OA
ATOM      4  N   UNL     1       3.087   8.006  17.621  0.00  0.00    +0.000 N 
ATOM      5  C   UNL     1       3.334   6.644  18.009  0.00  0.00    +0.000 A 
ATOM      6  N   UNL     1       2.854   6.167  19.209  0.00  0.00    +0.000 NA
ATOM      7  C   UNL     1       3.085   4.872  19.552  0.00  0.00    +0.000 A 
ATOM      8  N   UNL     1       2.688   4.250  20.674  0.00  0.00    +0.000 NA
ATOM      9  N   UNL     1       3.127   2.996  20.570  0.00  0.00    +0.000 N 
ATOM     10  C   UNL     1       2.905   1.973  21.580  0.00  0.00    +0.000 C 
ATOM     11  C   UNL     1       3.795   2.814  19.404  0.00  0.00    +0.000 A 
ATOM     12  C   UNL     1       3.771   4.018  18.750  0.00  0.00    +0.000 A 
ATOM     13  C   UNL     1       4.259   4.492  17.555  0.00  0.00    +0.000 A 
ATOM     14  N   UNL     1       4.958   3.827  16.631  0.00  0.00    +0.000 NA
ATOM     15  C   UNL     1       5.170   4.779  15.693  0.00  0.00    +0.000 A 
ATOM     16  N   UNL     1       4.614   5.979  16.030  0.00  0.00    +0.000 NA
ATOM     17  N   UNL     1       4.042   5.772  17.205  0.00  0.00    +0.000 N 
ATOM     18  H   UNL     1       2.538  10.468  17.074  0.00  0.00    +0.000 HD
ATOM     19  H   UNL     1       3.483   8.338  16.730  0.00  0.00    +0.000 HD
ENDROOT
BRANCH   1  24
ATOM     20  C   UNL     1      -0.844  14.735  19.611  0.00  0.00    +0.000 C 
ATOM     21  N   UNL     1      -0.085  13.665  18.949  0.00  0.00    +0.000 NA
ATOM     22  C   UNL     1       1.272  13.567  19.520  0.00  0.00    +0.000 C 
ATOM     23  C   UNL     1       2.092  12.524  18.752  0.00  0.00    +0.000 C 
ATOM     24  C   UNL     1       1.406  11.138  18.793  0.00  0.00    +0.000 C 
ATOM     25  C   UNL     1      -0.039  11.294  18.275  0.00  0.00    +0.000 C 
ATOM     26  C   UNL     1      -0.787  12.372  19.075  0.00  0.00    +0.000 C 
ENDBRANCH   1  24
BRANCH  15  27
ATOM     27  C   UNL     1       5.933   4.498  14.471  0.00  0.00    +0.000 A 
ATOM     28  C   UNL     1       7.183   4.975  14.142  0.00  0.00    +0.000 A 
ATOM     29  C   UNL     1       7.478   4.426  12.911  0.00  0.00    +0.000 A 
ATOM     30  C   UNL     1       6.391   3.652  12.563  0.00  0.00    +0.000 A 
ATOM     31  O   UNL     1       5.488   3.712  13.514  0.00  0.00    +0.000 OA
ENDBRANCH  15  27
TORSDOF 2
ENDMDL
MODEL 5
REMARK VINA RESULT:      -7.3      7.352     10.551
REMARK  Name = 
REMARK  4 active torsions:
REMARK  status: ('A' for Active; 'I' for Inactive)
REMARK    1  A    between atoms: C_1  and  N_2
REMARK    2  A    between atoms: C_5  and  N_6
REMARK    3  A    between atoms: N_14  and  C_15
REMARK    4  A    between atoms: C_20  and  C_21
REMARK                            x       y       z     vdW  Elec       q    Type
REMARK                         _______ _______ _______ _____ _____    ______ ____
ROOT
ATOM      1  N   UNL     1       1.442   6.616  20.785  0.00  0.00    +0.000 N 
ATOM      2  C   UNL     1       1.519   7.928  20.409  0.00  0.00    +0.000 C 
ATOM      3  O   UNL     1       2.302   8.249  19.527  0.00  0.00    +0.000 OA
ATOM      4  N   UNL     1       0.728   8.879  21.009  0.00  0.00    +0.000 N 
ATOM      5  C   UNL     1       0.781  10.272  20.659  0.00  0.00    +0.000 A 
ATOM      6  N   UNL     1       1.676  10.714  19.708  0.00  0.00    +0.000 NA
ATOM      7  C   UNL     1       1.701  12.032  19.378  0.00  0.00    +0.000 A 
ATOM      8  N   UNL     1       2.502  12.625  18.478  0.00  0.00    +0.000 NA
ATOM      9  N   UNL     1       2.165  13.914  18.483  0.00  0.00    +0.000 N 
ATOM     10  C   UNL     1       2.791  14.919  17.638  0.00  0.00    +0.000 C 
ATOM     11  C   UNL     1       1.167  14.148  19.370  0.00  0.00    +0.000 A 
ATOM     12  C   UNL     1       0.869  12.941  19.948  0.00  0.00    +0.000 A 
ATOM     13  C   UNL     1      -0.020  12.506  20.903  0.00  0.00    +0.000 A 
ATOM     14  N   UNL     1      -0.913  13.228  21.584  0.00  0.00    +0.000 NA
ATOM     15  C   UNL     1      -1.493  12.296  22.374  0.00  0.00    +0.000 A 
ATOM     16  N   UNL     1      -0.976  11.049  22.177  0.00  0.00    +0.000 NA
ATOM     17  N   UNL     1      -0.053  11.206  21.242  0.00  0.00    +0.000 N 
ATOM     18  H   UNL     1       0.754   6.346  21.506  0.00  0.00    +0.000 HD
ATOM     19  H   UNL     1       0.066   8.586  21.743  0.00  0.00    +0.000 HD
ENDROOT
BRANCH   1  24
ATOM     20  C   UNL     1       3.276   1.765  18.423  0.00  0.00    +0.000 C 
ATOM     21  N   UNL     1       2.563   2.904  19.019  0.00  0.00    +0.000 NA
ATOM     22  C   UNL     1       3.060   3.164  20.384  0.00  0.00    +0.000 C 
ATOM     23  C   UNL     1       2.238   4.281  21.038  0.00  0.00    +0.000 C 
ATOM     24  C   UNL     1       2.301   5.580  20.200  0.00  0.00    +0.000 C 
ATOM     25  C   UNL     1       1.863   5.252  18.758  0.00  0.00    +0.000 C 
ATOM     26  C   UNL     1       2.712   4.109  18.181  0.00  0.00    +0.000 C 
ENDBRANCH   1  24
BRANCH  15  27
ATOM     27  C   UNL     1      -2.549  12.647  23.330  0.00  0.00    +0.000 A 
ATOM     28  C   UNL     1      -2.774  13.877  23.909  0.00  0.00    +0.000 A 
ATOM     29  C   UNL     1      -3.879  13.712  24.718  0.00  0.00    +0.000 A 
ATOM     30  C   UNL     1      -4.258  12.392  24.588  0.00  0.00    +0.000 A 
ATOM     31  O   UNL     1      -3.449  11.784  23.752  0.00  0.00    +0.000 OA
ENDBRANCH  15  27
TORSDOF 2
ENDMDL
MODEL 6
REMARK VINA RESULT:      -7.2      5.080      7.818
REMARK  Name = 
REMARK  4 active torsions:
REMARK  status: ('A' for Active; 'I' for Inactive)
REMARK    1  A    between atoms: C_1  and  N_2
REMARK    2  A    between atoms: C_5  and  N_6
REMARK    3  A    between atoms: N_14  and  C_15
REMARK    4  A    between atoms: C_20  and  C_21
REMARK                            x       y       z     vdW  Elec       q    Type
REMARK                         _______ _______ _______ _____ _____    ______ ____
ROOT
ATOM      1  N   UNL     1       1.681  10.474  18.442  0.00  0.00    +0.000 N 
ATOM      2  C   UNL     1       1.814   9.174  18.841  0.00  0.00    +0.000 C 
ATOM      3  O   UNL     1       1.209   8.792  19.833  0.00  0.00    +0.000 OA
ATOM      4  N   UNL     1       2.613   8.302  18.142  0.00  0.00    +0.000 N 
ATOM      5  C   UNL     1       2.796   6.930  18.528  0.00  0.00    +0.000 A 
ATOM      6  N   UNL     1       2.185   6.442  19.663  0.00  0.00    +0.000 NA
ATOM      7  C   UNL     1       2.357   5.138  20.005  0.00  0.00    +0.000 A 
ATOM      8  N   UNL     1       1.836   4.505  21.068  0.00  0.00    +0.000 NA
ATOM      9  N   UNL     1       2.262   3.246  20.988  0.00  0.00    +0.000 N 
ATOM     10  C   UNL     1       1.919   2.211  21.951  0.00  0.00    +0.000 C 
ATOM     11  C   UNL     1       3.044   3.069  19.895  0.00  0.00    +0.000 A 
ATOM     12  C   UNL     1       3.109   4.284  19.263  0.00  0.00    +0.000 A 
ATOM     13  C   UNL     1       3.726   4.768  18.134  0.00  0.00    +0.000 A 
ATOM     14  N   UNL     1       4.506   4.106  17.276  0.00  0.00    +0.000 NA
ATOM     15  C   UNL     1       4.831   5.068  16.382  0.00  0.00    +0.000 A 
ATOM     16  N   UNL     1       4.264   6.272  16.681  0.00  0.00    +0.000 NA
ATOM     17  N   UNL     1       3.569   6.057  17.787  0.00  0.00    +0.000 N 
ATOM     18  H   UNL     1       2.166  10.782  17.585  0.00  0.00    +0.000 HD
ATOM     19  H   UNL     1       3.106   8.641  17.302  0.00  0.00    +0.000 HD
ENDROOT
BRANCH   1  24
ATOM     20  C   UNL     1      -2.716  13.495  20.450  0.00  0.00    +0.000 C 
ATOM     21  N   UNL     1      -1.766  12.585  19.791  0.00  0.00    +0.000 NA
ATOM     22  C   UNL     1      -0.794  13.351  18.989  0.00  0.00    +0.000 C 
ATOM     23  C   UNL     1       0.124  12.392  18.221  0.00  0.00    +0.000 C 
ATOM     24  C   UNL     1       0.873  11.446  19.188  0.00  0.00    +0.000 C 
ATOM     25  C   UNL     1      -0.168  10.731  20.074  0.00  0.00    +0.000 C 
ATOM     26  C   UNL     1      -1.065  11.754  20.789  0.00  0.00    +0.000 C 
ENDBRANCH   1  24
BRANCH  15  27
ATOM     27  C   UNL     1       5.712   4.793  15.241  0.00  0.00    +0.000 A 
ATOM     28  C   UNL     1       7.022   5.190  15.086  0.00  0.00    +0.000 A 
ATOM     29  C   UNL     1       7.423   4.683  13.867  0.00  0.00    +0.000 A 
ATOM     30  C   UNL     1       6.333   4.012  13.352  0.00  0.00    +0.000 A 
ATOM     31  O   UNL     1       5.330   4.092  14.195  0.00  0.00    +0.000 OA
ENDBRANCH  15  27
TORSDOF 2
ENDMDL
MODEL 7
REMARK VINA RESULT:      -7.0      6.890     11.214
REMARK  Name = 
REMARK  4 active torsions:
REMARK  status: ('A' for Active; 'I' for Inactive)
REMARK    1  A    between atoms: C_1  and  N_2
REMARK    2  A    between atoms: C_5  and  N_6
REMARK    3  A    between atoms: N_14  and  C_15
REMARK    4  A    between atoms: C_20  and  C_21
REMARK                            x       y       z     vdW  Elec       q    Type
REMARK                         _______ _______ _______ _____ _____    ______ ____
ROOT
ATOM      1  N   UNL     1       2.597   7.403  19.031  0.00  0.00    +0.000 N 
ATOM      2  C   UNL     1       1.795   8.276  19.711  0.00  0.00    +0.000 C 
ATOM      3  O   UNL     1       1.028   7.842  20.558  0.00  0.00    +0.000 OA
ATOM      4  N   UNL     1       1.846   9.625  19.453  0.00  0.00    +0.000 N 
ATOM      5  C   UNL     1       1.014  10.581  20.131  0.00  0.00    +0.000 A 
ATOM      6  N   UNL     1       0.091  10.159  21.062  0.00  0.00    +0.000 NA
ATOM      7  C   UNL     1      -0.677  11.079  21.704  0.00  0.00    +0.000 A 
ATOM      8  N   UNL     1      -1.616  10.840  22.635  0.00  0.00    +0.000 NA
ATOM      9  N   UNL     1      -2.092  12.033  22.986  0.00  0.00    +0.000 N 
ATOM     10  C   UNL     1      -3.133  12.230  23.983  0.00  0.00    +0.000 C 
ATOM     11  C   UNL     1      -1.474  13.023  22.294  0.00  0.00    +0.000 A 
ATOM     12  C   UNL     1      -0.566  12.411  21.469  0.00  0.00    +0.000 A 
ATOM     13  C   UNL     1       0.349  12.836  20.534  0.00  0.00    +0.000 A 
ATOM     14  N   UNL     1       0.610  14.089  20.152  0.00  0.00    +0.000 NA
ATOM     15  C   UNL     1       1.574  13.908  19.220  0.00  0.00    +0.000 A 
ATOM     16  N   UNL     1       1.893  12.593  19.045  0.00  0.00    +0.000 NA
ATOM     17  N   UNL     1       1.111  11.937  19.888  0.00  0.00    +0.000 N 
ATOM     18  H   UNL     1       3.267   7.779  18.342  0.00  0.00    +0.000 HD
ATOM     19  H   UNL     1       2.507   9.972  18.742  0.00  0.00    +0.000 HD
ENDROOT
BRANCH   1  24
ATOM     20  C   UNL     1       3.386   1.786  18.480  0.00  0.00    +0.000 C 
ATOM     21  N   UNL     1       3.343   3.254  18.411  0.00  0.00    +0.000 NA
ATOM     22  C   UNL     1       1.960   3.717  18.191  0.00  0.00    +0.000 C 
ATOM     23  C   UNL     1       1.939   5.240  18.012  0.00  0.00    +0.000 C 
ATOM     24  C   UNL     1       2.540   5.953  19.246  0.00  0.00    +0.000 C 
ATOM     25  C   UNL     1       3.949   5.379  19.503  0.00  0.00    +0.000 C 
ATOM     26  C   UNL     1       3.893   3.850  19.645  0.00  0.00    +0.000 C 
ENDBRANCH   1  24
BRANCH  15  27
ATOM     27  C   UNL     1       2.167  15.039  18.497  0.00  0.00    +0.000 A 
ATOM     28  C   UNL     1       3.347  15.045  17.784  0.00  0.00    +0.000 A 
ATOM     29  C   UNL     1       3.471  16.324  17.281  0.00  0.00    +0.000 A 
ATOM     30  C   UNL     1       2.363  17.019  17.719  0.00  0.00    +0.000 A 
ATOM     31  O   UNL     1       1.604  16.226  18.438  0.00  0.00    +0.000 OA
ENDBRANCH  15  27
TORSDOF 2
ENDMDL
MODEL 8
REMARK VINA RESULT:      -6.8      8.506     11.918
REMARK  Name = 
REMARK  4 active torsions:
REMARK  status: ('A' for Active; 'I' for Inactive)
REMARK    1  A    between atoms: C_1  and  N_2
REMARK    2  A    between atoms: C_5  and  N_6
REMARK    3  A    between atoms: N_14  and  C_15
REMARK    4  A    between atoms: C_20  and  C_21
REMARK                            x       y       z     vdW  Elec       q    Type
REMARK                         _______ _______ _______ _____ _____    ______ ____
ROOT
ATOM      1  N   UNL     1       1.919   9.295  18.123  0.00  0.00    +0.000 N 
ATOM      2  C   UNL     1       1.090   9.959  18.982  0.00  0.00    +0.000 C 
ATOM      3  O   UNL     1       0.567   9.342  19.899  0.00  0.00    +0.000 OA
ATOM      4  N   UNL     1       0.844  11.303  18.826  0.00  0.00    +0.000 N 
ATOM      5  C   UNL     1      -0.029  12.042  19.695  0.00  0.00    +0.000 A 
ATOM      6  N   UNL     1      -0.692  11.402  20.719  0.00  0.00    +0.000 NA
ATOM      7  C   UNL     1      -1.503  12.121  21.541  0.00  0.00    +0.000 A 
ATOM      8  N   UNL     1      -2.214  11.657  22.581  0.00  0.00    +0.000 NA
ATOM      9  N   UNL     1      -2.842  12.715  23.093  0.00  0.00    +0.000 N 
ATOM     10  C   UNL     1      -3.723  12.654  24.249  0.00  0.00    +0.000 C 
ATOM     11  C   UNL     1      -2.542  13.838  22.395  0.00  0.00    +0.000 A 
ATOM     12  C   UNL     1      -1.684  13.458  21.396  0.00  0.00    +0.000 A 
ATOM     13  C   UNL     1      -1.030  14.100  20.370  0.00  0.00    +0.000 A 
ATOM     14  N   UNL     1      -1.074  15.396  20.052  0.00  0.00    +0.000 NA
ATOM     15  C   UNL     1      -0.260  15.454  18.973  0.00  0.00    +0.000 A 
ATOM     16  N   UNL     1       0.267  14.237  18.650  0.00  0.00    +0.000 NA
ATOM     17  N   UNL     1      -0.230  13.401  19.547  0.00  0.00    +0.000 N 
ATOM     18  H   UNL     1       2.385   9.829  17.371  0.00  0.00    +0.000 HD
ATOM     19  H   UNL     1       1.303  11.807  18.053  0.00  0.00    +0.000 HD
ENDROOT
BRANCH   1  24
ATOM     20  C   UNL     1       4.315   4.265  19.322  0.00  0.00    +0.000 C 
ATOM     21  N   UNL     1       3.908   5.665  19.136  0.00  0.00    +0.000 NA
ATOM     22  C   UNL     1       3.806   5.985  17.700  0.00  0.00    +0.000 C 
ATOM     23  C   UNL     1       3.488   7.473  17.514  0.00  0.00    +0.000 C 
ATOM     24  C   UNL     1       2.171   7.854  18.230  0.00  0.00    +0.000 C 
ATOM     25  C   UNL     1       2.277   7.423  19.707  0.00  0.00    +0.000 C 
ATOM     26  C   UNL     1       2.623   5.929  19.812  0.00  0.00    +0.000 C 
ENDBRANCH   1  24
BRANCH  15  27
ATOM     27  C   UNL     1      -0.015  16.712  18.260  0.00  0.00    +0.000 A 
ATOM     28  C   UNL     1       1.206  17.257  17.926  0.00  0.00    +0.000 A 
ATOM     29  C   UNL     1       0.920  18.430  17.258  0.00  0.00    +0.000 A 
ATOM     30  C   UNL     1      -0.456  18.531  17.228  0.00  0.00    +0.000 A 
ATOM     31  O   UNL     1      -0.985  17.491  17.830  0.00  0.00    +0.000 OA
ENDBRANCH  15  27
TORSDOF 2
ENDMDL
MODEL 9
REMARK VINA RESULT:      -6.8      7.141      9.774
REMARK  Name = 
REMARK  4 active torsions:
REMARK  status: ('A' for Active; 'I' for Inactive)
REMARK    1  A    between atoms: C_1  and  N_2
REMARK    2  A    between atoms: C_5  and  N_6
REMARK    3  A    between atoms: N_14  and  C_15
REMARK    4  A    between atoms: C_20  and  C_21
REMARK                            x       y       z     vdW  Elec       q    Type
REMARK                         _______ _______ _______ _____ _____    ______ ____
ROOT
ATOM      1  N   UNL     1       2.267   7.051  17.894  0.00  0.00    +0.000 N 
ATOM      2  C   UNL     1       2.199   8.406  18.055  0.00  0.00    +0.000 C 
ATOM      3  O   UNL     1       3.234   9.057  18.064  0.00  0.00    +0.000 OA
ATOM      4  N   UNL     1       0.986   9.038  18.202  0.00  0.00    +0.000 N 
ATOM      5  C   UNL     1       0.863  10.457  18.386  0.00  0.00    +0.000 A 
ATOM      6  N   UNL     1       1.989  11.247  18.457  0.00  0.00    +0.000 NA
ATOM      7  C   UNL     1       1.853  12.591  18.616  0.00  0.00    +0.000 A 
ATOM      8  N   UNL     1       2.838  13.499  18.701  0.00  0.00    +0.000 NA
ATOM      9  N   UNL     1       2.235  14.679  18.839  0.00  0.00    +0.000 N 
ATOM     10  C   UNL     1       2.945  15.943  18.960  0.00  0.00    +0.000 C 
ATOM     11  C   UNL     1       0.887  14.534  18.843  0.00  0.00    +0.000 A 
ATOM     12  C   UNL     1       0.639  13.193  18.703  0.00  0.00    +0.000 A 
ATOM     13  C   UNL     1      -0.488  12.408  18.641  0.00  0.00    +0.000 A 
ATOM     14  N   UNL     1      -1.764  12.795  18.711  0.00  0.00    +0.000 NA
ATOM     15  C   UNL     1      -2.426  11.620  18.604  0.00  0.00    +0.000 A 
ATOM     16  N   UNL     1      -1.583  10.555  18.467  0.00  0.00    +0.000 NA
ATOM     17  N   UNL     1      -0.367  11.078  18.489  0.00  0.00    +0.000 N 
ATOM     18  H   UNL     1       1.388   6.512  17.853  0.00  0.00    +0.000 HD
ATOM     19  H   UNL     1       0.125   8.472  18.180  0.00  0.00    +0.000 HD
ENDROOT
BRANCH   1  24
ATOM     20  C   UNL     1       6.573   3.890  15.909  0.00  0.00    +0.000 C 
ATOM     21  N   UNL     1       5.351   4.659  16.184  0.00  0.00    +0.000 NA
ATOM     22  C   UNL     1       4.633   4.087  17.338  0.00  0.00    +0.000 C 
ATOM     23  C   UNL     1       3.307   4.826  17.552  0.00  0.00    +0.000 C 
ATOM     24  C   UNL     1       3.544   6.337  17.780  0.00  0.00    +0.000 C 
ATOM     25  C   UNL     1       4.375   6.884  16.600  0.00  0.00    +0.000 C 
ATOM     26  C   UNL     1       5.673   6.078  16.434  0.00  0.00    +0.000 C 
ENDBRANCH   1  24
BRANCH  15  27
ATOM     27  C   UNL     1      -3.891  11.555  18.650  0.00  0.00    +0.000 A 
ATOM     28  C   UNL     1      -4.717  10.799  17.846  0.00  0.00    +0.000 A 
ATOM     29  C   UNL     1      -6.000  11.064  18.277  0.00  0.00    +0.000 A 
ATOM     30  C   UNL     1      -5.880  11.966  19.314  0.00  0.00    +0.000 A 
ATOM     31  O   UNL     1      -4.611  12.237  19.515  0.00  0.00    +0.000 OA
ENDBRANCH  15  27
TORSDOF 2
ENDMDL
