MODEL 1
REMARK VINA RESULT:      -7.6      0.000      0.000
REMARK  Name = 
REMARK  3 active torsions:
REMARK  status: ('A' for Active; 'I' for Inactive)
REMARK    1  A    between atoms: C_5  and  C_6
REMARK    2  A    between atoms: N_10  and  N_11
REMARK    3  A    between atoms: C_12  and  C_13
REMARK                            x       y       z     vdW  Elec       q    Type
REMARK                         _______ _______ _______ _____ _____    ______ ____
ROOT
ATOM      1  C   UNL     1       2.774   5.950  19.664  0.00  0.00    +0.000 A 
ATOM      2  C   UNL     1       2.124   4.780  20.002  0.00  0.00    +0.000 A 
ATOM      3  S   UNL     1       3.221   3.465  19.936  0.00  0.00    +0.000 S 
ATOM      4  C   UNL     1       4.492   4.551  19.503  0.00  0.00    +0.000 A 
ATOM      5  N   UNL     1       5.743   4.067  19.296  0.00  0.00    +0.000 N 
ATOM      6  N   UNL     1       4.115   5.802  19.363  0.00  0.00    +0.000 NA
ATOM      7  H   UNL     1       5.869   3.071  19.460  0.00  0.00    +0.000 HD
ENDROOT
BRANCH   1  12
ATOM      8 CL   UNL     1       0.288  11.379  19.357  0.00  0.00    +0.000 Cl
ATOM      9  C   UNL     1       0.987   9.808  19.445  0.00  0.00    +0.000 A 
ATOM     10  C   UNL     1       0.936   9.094  20.640  0.00  0.00    +0.000 A 
ATOM     11  C   UNL     1       1.506   7.821  20.718  0.00  0.00    +0.000 A 
ATOM     12  C   UNL     1       2.141   7.259  19.601  0.00  0.00    +0.000 A 
ATOM     13  C   UNL     1       2.188   7.994  18.408  0.00  0.00    +0.000 A 
ATOM     14  C   UNL     1       1.609   9.263  18.327  0.00  0.00    +0.000 A 
ENDBRANCH   1  12
BRANCH   5  15
ATOM     15  N   UNL     1       6.856   4.842  19.351  0.00  0.00    +0.000 NA
ATOM     16  C   UNL     1       7.337   5.307  18.232  0.00  0.00    +0.000 C 
BRANCH  16  17
ATOM     17  C   UNL     1       6.744   5.236  16.881  0.00  0.00    +0.000 A 
ATOM     18  C   UNL     1       5.843   6.200  16.429  0.00  0.00    +0.000 A 
ATOM     19  C   UNL     1       5.307   6.041  15.167  0.00  0.00    +0.000 A 
ATOM     20  N   UNL     1       5.636   5.027  14.340  0.00  0.00    +0.000 NA
ATOM     21  C   UNL     1       6.553   4.140  14.785  0.00  0.00    +0.000 A 
ATOM     22  C   UNL     1       7.138   4.201  16.038  0.00  0.00    +0.000 A 
ENDBRANCH  16  17
ENDBRANCH   5  15
TORSDOF 3
ENDMDL
MODEL 2
REMARK VINA RESULT:      -7.5      0.285      1.500
REMARK  Name = 
REMARK  3 active torsions:
REMARK  status: ('A' for Active; 'I' for Inactive)
REMARK    1  A    between atoms: C_5  and  C_6
REMARK    2  A    between atoms: N_10  and  N_11
REMARK    3  A    between atoms: C_12  and  C_13
REMARK                            x       y       z     vdW  Elec       q    Type
REMARK                         _______ _______ _______ _____ _____    ______ ____
ROOT
ATOM      1  C   UNL     1       2.680   6.047  19.702  0.00  0.00    +0.000 A 
ATOM      2  C   UNL     1       2.004   4.870  19.949  0.00  0.00    +0.000 A 
ATOM      3  S   UNL     1       3.096   3.551  19.900  0.00  0.00    +0.000 S 
ATOM      4  C   UNL     1       4.398   4.643  19.594  0.00  0.00    +0.000 A 
ATOM      5  N   UNL     1       5.657   4.158  19.449  0.00  0.00    +0.000 N 
ATOM      6  N   UNL     1       4.036   5.902  19.481  0.00  0.00    +0.000 NA
ATOM      7  H   UNL     1       5.767   3.155  19.580  0.00  0.00    +0.000 HD
ENDROOT
BRANCH   1  12
ATOM      8 CL   UNL     1       0.015  11.398  19.542  0.00  0.00    +0.000 Cl
ATOM      9  C   UNL     1       0.799   9.866  19.589  0.00  0.00    +0.000 A 
ATOM     10  C   UNL     1       1.453   9.387  18.456  0.00  0.00    +0.000 A 
ATOM     11  C   UNL     1       2.086   8.142  18.487  0.00  0.00    +0.000 A 
ATOM     12  C   UNL     1       2.059   7.363  19.652  0.00  0.00    +0.000 A 
ATOM     13  C   UNL     1       1.392   7.858  20.783  0.00  0.00    +0.000 A 
ATOM     14  C   UNL     1       0.767   9.106  20.754  0.00  0.00    +0.000 A 
ENDBRANCH   1  12
BRANCH   5  15
ATOM     15  N   UNL     1       6.768   4.922  19.606  0.00  0.00    +0.000 NA
ATOM     16  C   UNL     1       7.326   5.422  18.539  0.00  0.00    +0.000 C 
BRANCH  16  17
ATOM     17  C   UNL     1       6.826   5.404  17.150  0.00  0.00    +0.000 A 
ATOM     18  C   UNL     1       7.213   4.413  16.249  0.00  0.00    +0.000 A 
ATOM     19  C   UNL     1       6.728   4.489  14.958  0.00  0.00    +0.000 A 
ATOM     20  N   UNL     1       5.875   5.446  14.538  0.00  0.00    +0.000 NA
ATOM     21  C   UNL     1       5.474   6.360  15.449  0.00  0.00    +0.000 A 
ATOM     22  C   UNL     1       5.913   6.381  16.762  0.00  0.00    +0.000 A 
ENDBRANCH  16  17
ENDBRANCH   5  15
TORSDOF 3
ENDMDL
MODEL 3
REMARK VINA RESULT:      -7.5      0.220      1.052
REMARK  Name = 
REMARK  3 active torsions:
REMARK  status: ('A' for Active; 'I' for Inactive)
REMARK    1  A    between atoms: C_5  and  C_6
REMARK    2  A    between atoms: N_10  and  N_11
REMARK    3  A    between atoms: C_12  and  C_13
REMARK                            x       y       z     vdW  Elec       q    Type
REMARK                         _______ _______ _______ _____ _____    ______ ____
ROOT
ATOM      1  C   UNL     1       2.770   6.024  19.580  0.00  0.00    +0.000 A 
ATOM      2  C   UNL     1       2.103   4.855  19.884  0.00  0.00    +0.000 A 
ATOM      3  S   UNL     1       3.203   3.542  19.885  0.00  0.00    +0.000 S 
ATOM      4  C   UNL     1       4.496   4.627  19.520  0.00  0.00    +0.000 A 
ATOM      5  N   UNL     1       5.757   4.144  19.386  0.00  0.00    +0.000 N 
ATOM      6  N   UNL     1       4.125   5.878  19.354  0.00  0.00    +0.000 NA
ATOM      7  H   UNL     1       5.874   3.149  19.561  0.00  0.00    +0.000 HD
ENDROOT
BRANCH   1  12
ATOM      8 CL   UNL     1       0.296  11.448  19.107  0.00  0.00    +0.000 Cl
ATOM      9  C   UNL     1       0.991   9.879  19.242  0.00  0.00    +0.000 A 
ATOM     10  C   UNL     1       0.925   9.194  20.454  0.00  0.00    +0.000 A 
ATOM     11  C   UNL     1       1.492   7.923  20.571  0.00  0.00    +0.000 A 
ATOM     12  C   UNL     1       2.140   7.332  19.476  0.00  0.00    +0.000 A 
ATOM     13  C   UNL     1       2.201   8.038  18.265  0.00  0.00    +0.000 A 
ATOM     14  C   UNL     1       1.626   9.305  18.146  0.00  0.00    +0.000 A 
ENDBRANCH   1  12
BRANCH   5  15
ATOM     15  N   UNL     1       6.864   4.922  19.501  0.00  0.00    +0.000 NA
ATOM     16  C   UNL     1       7.381   5.419  18.412  0.00  0.00    +0.000 C 
BRANCH  16  17
ATOM     17  C   UNL     1       6.835   5.383  17.040  0.00  0.00    +0.000 A 
ATOM     18  C   UNL     1       7.179   4.372  16.144  0.00  0.00    +0.000 A 
ATOM     19  C   UNL     1       6.654   4.432  14.869  0.00  0.00    +0.000 A 
ATOM     20  N   UNL     1       5.800   5.393  14.460  0.00  0.00    +0.000 NA
ATOM     21  C   UNL     1       5.443   6.328  15.367  0.00  0.00    +0.000 A 
ATOM     22  C   UNL     1       5.924   6.367  16.664  0.00  0.00    +0.000 A 
ENDBRANCH  16  17
ENDBRANCH   5  15
TORSDOF 3
ENDMDL
MODEL 4
REMARK VINA RESULT:      -7.4      0.212      1.075
REMARK  Name = 
REMARK  3 active torsions:
REMARK  status: ('A' for Active; 'I' for Inactive)
REMARK    1  A    between atoms: C_5  and  C_6
REMARK    2  A    between atoms: N_10  and  N_11
REMARK    3  A    between atoms: C_12  and  C_13
REMARK                            x       y       z     vdW  Elec       q    Type
REMARK                         _______ _______ _______ _____ _____    ______ ____
ROOT
ATOM      1  C   UNL     1       2.656   6.002  19.697  0.00  0.00    +0.000 A 
ATOM      2  C   UNL     1       1.969   4.837  19.968  0.00  0.00    +0.000 A 
ATOM      3  S   UNL     1       3.033   3.498  19.873  0.00  0.00    +0.000 S 
ATOM      4  C   UNL     1       4.342   4.567  19.518  0.00  0.00    +0.000 A 
ATOM      5  N   UNL     1       5.585   4.059  19.321  0.00  0.00    +0.000 N 
ATOM      6  N   UNL     1       4.000   5.833  19.422  0.00  0.00    +0.000 NA
ATOM      7  H   UNL     1       5.682   3.054  19.446  0.00  0.00    +0.000 HD
ENDROOT
BRANCH   1  12
ATOM      8 CL   UNL     1       0.085  11.400  19.650  0.00  0.00    +0.000 Cl
ATOM      9  C   UNL     1       0.843   9.855  19.665  0.00  0.00    +0.000 A 
ATOM     10  C   UNL     1       1.458   9.374  18.510  0.00  0.00    +0.000 A 
ATOM     11  C   UNL     1       2.069   8.118  18.514  0.00  0.00    +0.000 A 
ATOM     12  C   UNL     1       2.058   7.329  19.674  0.00  0.00    +0.000 A 
ATOM     13  C   UNL     1       1.430   7.826  20.825  0.00  0.00    +0.000 A 
ATOM     14  C   UNL     1       0.827   9.086  20.823  0.00  0.00    +0.000 A 
ENDBRANCH   1  12
BRANCH   5  15
ATOM     15  N   UNL     1       6.716   4.803  19.436  0.00  0.00    +0.000 NA
ATOM     16  C   UNL     1       7.225   5.317  18.352  0.00  0.00    +0.000 C 
BRANCH  16  17
ATOM     17  C   UNL     1       6.652   5.338  16.991  0.00  0.00    +0.000 A 
ATOM     18  C   UNL     1       5.734   6.312  16.602  0.00  0.00    +0.000 A 
ATOM     19  C   UNL     1       5.218   6.239  15.322  0.00  0.00    +0.000 A 
ATOM     20  N   UNL     1       5.584   5.300  14.425  0.00  0.00    +0.000 NA
ATOM     21  C   UNL     1       6.517   4.404  14.814  0.00  0.00    +0.000 A 
ATOM     22  C   UNL     1       7.083   4.381  16.076  0.00  0.00    +0.000 A 
ENDBRANCH  16  17
ENDBRANCH   5  15
TORSDOF 3
ENDMDL
MODEL 5
REMARK VINA RESULT:      -7.1      2.682      4.784
REMARK  Name = 
REMARK  3 active torsions:
REMARK  status: ('A' for Active; 'I' for Inactive)
REMARK    1  A    between atoms: C_5  and  C_6
REMARK    2  A    between atoms: N_10  and  N_11
REMARK    3  A    between atoms: C_12  and  C_13
REMARK                            x       y       z     vdW  Elec       q    Type
REMARK                         _______ _______ _______ _____ _____    ______ ____
ROOT
ATOM      1  C   UNL     1       3.034   7.055  18.109  0.00  0.00    +0.000 A 
ATOM      2  C   UNL     1       4.345   7.281  17.739  0.00  0.00    +0.000 A 
ATOM      3  S   UNL     1       5.050   5.824  17.179  0.00  0.00    +0.000 S 
ATOM      4  C   UNL     1       3.552   5.004  17.430  0.00  0.00    +0.000 A 
ATOM      5  N   UNL     1       3.455   3.683  17.135  0.00  0.00    +0.000 N 
ATOM      6  N   UNL     1       2.603   5.752  17.948  0.00  0.00    +0.000 NA
ATOM      7  H   UNL     1       4.283   3.255  16.727  0.00  0.00    +0.000 HD
ENDROOT
BRANCH   1  12
ATOM      8 CL   UNL     1      -0.717  11.126  20.368  0.00  0.00    +0.000 Cl
ATOM      9  C   UNL     1       0.377   9.967  19.717  0.00  0.00    +0.000 A 
ATOM     10  C   UNL     1       0.695  10.001  18.361  0.00  0.00    +0.000 A 
ATOM     11  C   UNL     1       1.578   9.060  17.826  0.00  0.00    +0.000 A 
ATOM     12  C   UNL     1       2.140   8.069  18.646  0.00  0.00    +0.000 A 
ATOM     13  C   UNL     1       1.803   8.047  20.008  0.00  0.00    +0.000 A 
ATOM     14  C   UNL     1       0.928   8.994  20.543  0.00  0.00    +0.000 A 
ENDBRANCH   1  12
BRANCH   5  15
ATOM     15  N   UNL     1       2.270   3.057  16.915  0.00  0.00    +0.000 NA
ATOM     16  C   UNL     1       1.682   2.481  17.926  0.00  0.00    +0.000 C 
BRANCH  16  17
ATOM     17  C   UNL     1       2.052   2.538  19.354  0.00  0.00    +0.000 A 
ATOM     18  C   UNL     1       3.332   2.198  19.790  0.00  0.00    +0.000 A 
ATOM     19  C   UNL     1       3.587   2.243  21.147  0.00  0.00    +0.000 A 
ATOM     20  N   UNL     1       2.675   2.633  22.062  0.00  0.00    +0.000 NA
ATOM     21  C   UNL     1       1.462   3.009  21.604  0.00  0.00    +0.000 A 
ATOM     22  C   UNL     1       1.102   2.986  20.268  0.00  0.00    +0.000 A 
ENDBRANCH  16  17
ENDBRANCH   5  15
TORSDOF 3
ENDMDL
MODEL 6
REMARK VINA RESULT:      -7.1      2.639      4.667
REMARK  Name = 
REMARK  3 active torsions:
REMARK  status: ('A' for Active; 'I' for Inactive)
REMARK    1  A    between atoms: C_5  and  C_6
REMARK    2  A    between atoms: N_10  and  N_11
REMARK    3  A    between atoms: C_12  and  C_13
REMARK                            x       y       z     vdW  Elec       q    Type
REMARK                         _______ _______ _______ _____ _____    ______ ____
ROOT
ATOM      1  C   UNL     1       3.098   6.956  18.096  0.00  0.00    +0.000 A 
ATOM      2  C   UNL     1       4.405   7.178  17.715  0.00  0.00    +0.000 A 
ATOM      3  S   UNL     1       5.101   5.720  17.145  0.00  0.00    +0.000 S 
ATOM      4  C   UNL     1       3.601   4.905  17.408  0.00  0.00    +0.000 A 
ATOM      5  N   UNL     1       3.497   3.585  17.111  0.00  0.00    +0.000 N 
ATOM      6  N   UNL     1       2.660   5.655  17.937  0.00  0.00    +0.000 NA
ATOM      7  H   UNL     1       4.319   3.155  16.694  0.00  0.00    +0.000 HD
ENDROOT
BRANCH   1  12
ATOM      8 CL   UNL     1      -0.460  11.227  20.298  0.00  0.00    +0.000 Cl
ATOM      9  C   UNL     1       0.549   9.986  19.664  0.00  0.00    +0.000 A 
ATOM     10  C   UNL     1       1.001   8.967  20.500  0.00  0.00    +0.000 A 
ATOM     11  C   UNL     1       1.825   7.959  19.992  0.00  0.00    +0.000 A 
ATOM     12  C   UNL     1       2.212   7.972  18.644  0.00  0.00    +0.000 A 
ATOM     13  C   UNL     1       1.751   9.009  17.818  0.00  0.00    +0.000 A 
ATOM     14  C   UNL     1       0.920  10.010  18.324  0.00  0.00    +0.000 A 
ENDBRANCH   1  12
BRANCH   5  15
ATOM     15  N   UNL     1       2.307   2.965  16.899  0.00  0.00    +0.000 NA
ATOM     16  C   UNL     1       1.714   2.411  17.920  0.00  0.00    +0.000 C 
BRANCH  16  17
ATOM     17  C   UNL     1       2.082   2.490  19.347  0.00  0.00    +0.000 A 
ATOM     18  C   UNL     1       3.360   2.151  19.791  0.00  0.00    +0.000 A 
ATOM     19  C   UNL     1       3.613   2.218  21.147  0.00  0.00    +0.000 A 
ATOM     20  N   UNL     1       2.702   2.628  22.054  0.00  0.00    +0.000 NA
ATOM     21  C   UNL     1       1.491   3.002  21.588  0.00  0.00    +0.000 A 
ATOM     22  C   UNL     1       1.132   2.958  20.252  0.00  0.00    +0.000 A 
ENDBRANCH  16  17
ENDBRANCH   5  15
TORSDOF 3
ENDMDL
MODEL 7
REMARK VINA RESULT:      -7.0      2.667      4.678
REMARK  Name = 
REMARK  3 active torsions:
REMARK  status: ('A' for Active; 'I' for Inactive)
REMARK    1  A    between atoms: C_5  and  C_6
REMARK    2  A    between atoms: N_10  and  N_11
REMARK    3  A    between atoms: C_12  and  C_13
REMARK                            x       y       z     vdW  Elec       q    Type
REMARK                         _______ _______ _______ _____ _____    ______ ____
ROOT
ATOM      1  C   UNL     1       3.066   7.029  18.110  0.00  0.00    +0.000 A 
ATOM      2  C   UNL     1       4.381   7.247  17.751  0.00  0.00    +0.000 A 
ATOM      3  S   UNL     1       5.081   5.787  17.193  0.00  0.00    +0.000 S 
ATOM      4  C   UNL     1       3.575   4.976  17.430  0.00  0.00    +0.000 A 
ATOM      5  N   UNL     1       3.472   3.657  17.131  0.00  0.00    +0.000 N 
ATOM      6  N   UNL     1       2.627   5.729  17.943  0.00  0.00    +0.000 NA
ATOM      7  H   UNL     1       4.300   3.225  16.728  0.00  0.00    +0.000 HD
ENDROOT
BRANCH   1  12
ATOM      8 CL   UNL     1      -0.676  11.119  20.351  0.00  0.00    +0.000 Cl
ATOM      9  C   UNL     1       0.415   9.955  19.706  0.00  0.00    +0.000 A 
ATOM     10  C   UNL     1       0.752   9.996  18.354  0.00  0.00    +0.000 A 
ATOM     11  C   UNL     1       1.633   9.050  17.824  0.00  0.00    +0.000 A 
ATOM     12  C   UNL     1       2.174   8.048  18.643  0.00  0.00    +0.000 A 
ATOM     13  C   UNL     1       1.820   8.019  20.000  0.00  0.00    +0.000 A 
ATOM     14  C   UNL     1       0.947   8.970  20.531  0.00  0.00    +0.000 A 
ENDBRANCH   1  12
BRANCH   5  15
ATOM     15  N   UNL     1       2.285   3.040  16.899  0.00  0.00    +0.000 NA
ATOM     16  C   UNL     1       1.681   2.473  17.906  0.00  0.00    +0.000 C 
BRANCH  16  17
ATOM     17  C   UNL     1       2.035   2.533  19.338  0.00  0.00    +0.000 A 
ATOM     18  C   UNL     1       1.112   2.937  20.301  0.00  0.00    +0.000 A 
ATOM     19  C   UNL     1       1.534   3.000  21.615  0.00  0.00    +0.000 A 
ATOM     20  N   UNL     1       2.776   2.657  22.015  0.00  0.00    +0.000 NA
ATOM     21  C   UNL     1       3.631   2.217  21.066  0.00  0.00    +0.000 A 
ATOM     22  C   UNL     1       3.312   2.131  19.722  0.00  0.00    +0.000 A 
ENDBRANCH  16  17
ENDBRANCH   5  15
TORSDOF 3
ENDMDL
MODEL 8
REMARK VINA RESULT:      -7.0      2.653      4.566
REMARK  Name = 
REMARK  3 active torsions:
REMARK  status: ('A' for Active; 'I' for Inactive)
REMARK    1  A    between atoms: C_5  and  C_6
REMARK    2  A    between atoms: N_10  and  N_11
REMARK    3  A    between atoms: C_12  and  C_13
REMARK                            x       y       z     vdW  Elec       q    Type
REMARK                         _______ _______ _______ _____ _____    ______ ____
ROOT
ATOM      1  C   UNL     1       3.083   6.992  18.139  0.00  0.00    +0.000 A 
ATOM      2  C   UNL     1       4.395   7.213  17.774  0.00  0.00    +0.000 A 
ATOM      3  S   UNL     1       5.091   5.758  17.197  0.00  0.00    +0.000 S 
ATOM      4  C   UNL     1       3.586   4.946  17.436  0.00  0.00    +0.000 A 
ATOM      5  N   UNL     1       3.480   3.629  17.124  0.00  0.00    +0.000 N 
ATOM      6  N   UNL     1       2.642   5.694  17.962  0.00  0.00    +0.000 NA
ATOM      7  H   UNL     1       4.305   3.201  16.712  0.00  0.00    +0.000 HD
ENDROOT
BRANCH   1  12
ATOM      8 CL   UNL     1      -0.482  11.255  20.348  0.00  0.00    +0.000 Cl
ATOM      9  C   UNL     1       0.529  10.016  19.711  0.00  0.00    +0.000 A 
ATOM     10  C   UNL     1       0.961   8.981  20.539  0.00  0.00    +0.000 A 
ATOM     11  C   UNL     1       1.786   7.975  20.029  0.00  0.00    +0.000 A 
ATOM     12  C   UNL     1       2.195   8.006  18.688  0.00  0.00    +0.000 A 
ATOM     13  C   UNL     1       1.755   9.058  17.870  0.00  0.00    +0.000 A 
ATOM     14  C   UNL     1       0.922  10.057  18.378  0.00  0.00    +0.000 A 
ENDBRANCH   1  12
BRANCH   5  15
ATOM     15  N   UNL     1       2.291   3.016  16.894  0.00  0.00    +0.000 NA
ATOM     16  C   UNL     1       1.682   2.458  17.903  0.00  0.00    +0.000 C 
BRANCH  16  17
ATOM     17  C   UNL     1       2.033   2.527  19.336  0.00  0.00    +0.000 A 
ATOM     18  C   UNL     1       1.108   2.938  20.295  0.00  0.00    +0.000 A 
ATOM     19  C   UNL     1       1.527   3.008  21.609  0.00  0.00    +0.000 A 
ATOM     20  N   UNL     1       2.768   2.667  22.014  0.00  0.00    +0.000 NA
ATOM     21  C   UNL     1       3.625   2.220  21.070  0.00  0.00    +0.000 A 
ATOM     22  C   UNL     1       3.309   2.126  19.726  0.00  0.00    +0.000 A 
ENDBRANCH  16  17
ENDBRANCH   5  15
TORSDOF 3
ENDMDL
MODEL 9
REMARK VINA RESULT:      -6.9      5.446      7.872
REMARK  Name = 
REMARK  3 active torsions:
REMARK  status: ('A' for Active; 'I' for Inactive)
REMARK    1  A    between atoms: C_5  and  C_6
REMARK    2  A    between atoms: N_10  and  N_11
REMARK    3  A    between atoms: C_12  and  C_13
REMARK                            x       y       z     vdW  Elec       q    Type
REMARK                         _______ _______ _______ _____ _____    ______ ____
ROOT
ATOM      1  C   UNL     1       7.247   5.728  16.701  0.00  0.00    +0.000 A 
ATOM      2  C   UNL     1       7.436   5.099  17.915  0.00  0.00    +0.000 A 
ATOM      3  S   UNL     1       7.993   6.229  19.076  0.00  0.00    +0.000 S 
ATOM      4  C   UNL     1       7.905   7.484  17.893  0.00  0.00    +0.000 A 
ATOM      5  N   UNL     1       8.249   8.751  18.236  0.00  0.00    +0.000 N 
ATOM      6  N   UNL     1       7.538   7.079  16.697  0.00  0.00    +0.000 NA
ATOM      7  H   UNL     1       8.499   8.897  19.211  0.00  0.00    +0.000 HD
ENDROOT
BRANCH   1  12
ATOM      8 CL   UNL     1       5.383   2.889  11.781  0.00  0.00    +0.000 Cl
ATOM      9  C   UNL     1       5.912   3.723  13.190  0.00  0.00    +0.000 A 
ATOM     10  C   UNL     1       7.061   4.509  13.138  0.00  0.00    +0.000 A 
ATOM     11  C   UNL     1       7.499   5.184  14.281  0.00  0.00    +0.000 A 
ATOM     12  C   UNL     1       6.794   5.066  15.487  0.00  0.00    +0.000 A 
ATOM     13  C   UNL     1       5.643   4.265  15.523  0.00  0.00    +0.000 A 
ATOM     14  C   UNL     1       5.200   3.599  14.378  0.00  0.00    +0.000 A 
ENDBRANCH   1  12
BRANCH   5  15
ATOM     15  N   UNL     1       7.847   9.843  17.537  0.00  0.00    +0.000 NA
ATOM     16  C   UNL     1       8.410  10.987  17.807  0.00  0.00    +0.000 C 
BRANCH  16  17
ATOM     17  C   UNL     1       9.566  11.254  18.687  0.00  0.00    +0.000 A 
ATOM     18  C   UNL     1       9.411  11.435  20.060  0.00  0.00    +0.000 A 
ATOM     19  C   UNL     1      10.538  11.716  20.807  0.00  0.00    +0.000 A 
ATOM     20  N   UNL     1      11.780  11.787  20.283  0.00  0.00    +0.000 NA
ATOM     21  C   UNL     1      11.905  11.551  18.958  0.00  0.00    +0.000 A 
ATOM     22  C   UNL     1      10.838  11.277  18.120  0.00  0.00    +0.000 A 
ENDBRANCH  16  17
ENDBRANCH   5  15
TORSDOF 3
ENDMDL
