MODEL 1
REMARK VINA RESULT:      -7.8      0.000      0.000
REMARK  Name = 
REMARK  5 active torsions:
REMARK  status: ('A' for Active; 'I' for Inactive)
REMARK    1  A    between atoms: C_1  and  C_2
REMARK    2  A    between atoms: C_4  and  C_5
REMARK    3  A    between atoms: N_6  and  N_7
REMARK    4  A    between atoms: C_15  and  C_16
REMARK    5  A    between atoms: N_17  and  C_18
REMARK                            x       y       z     vdW  Elec       q    Type
REMARK                         _______ _______ _______ _____ _____    ______ ____
ROOT
ATOM      1  C   UNL     1       4.360   2.597  19.793  0.00  0.00    +0.000 C 
ATOM      2  C   UNL     1       3.639   3.880  19.559  0.00  0.00    +0.000 A 
ATOM      3  C   UNL     1       2.611   4.364  20.341  0.00  0.00    +0.000 A 
ATOM      4  C   UNL     1       2.336   5.691  19.971  0.00  0.00    +0.000 A 
ATOM      5  C   UNL     1       3.176   5.992  18.902  0.00  0.00    +0.000 A 
ATOM      6  C   UNL     1       3.222   7.273  18.127  0.00  0.00    +0.000 C 
ATOM      7  N   UNL     1       3.947   4.852  18.603  0.00  0.00    +0.000 N 
ENDROOT
BRANCH   7   8
ATOM      8  C   UNL     1       4.956   4.755  17.580  0.00  0.00    +0.000 A 
ATOM      9  C   UNL     1       4.612   4.182  16.342  0.00  0.00    +0.000 A 
ATOM     10  C   UNL     1       5.541   4.079  15.302  0.00  0.00    +0.000 A 
ATOM     11  C   UNL     1       6.813   4.612  15.452  0.00  0.00    +0.000 A 
ATOM     12  C   UNL     1       7.174   5.186  16.668  0.00  0.00    +0.000 A 
ATOM     13  C   UNL     1       6.273   5.213  17.748  0.00  0.00    +0.000 A 
ATOM     14 CL   UNL     1       6.980   5.595  19.279  0.00  0.00    +0.000 Cl
ENDBRANCH   7   8
BRANCH   4  15
ATOM     15  C   UNL     1       1.373   6.585  20.590  0.00  0.00    +0.000 C 
ATOM     16  N   UNL     1       1.785   7.722  21.053  0.00  0.00    +0.000 NA
BRANCH  16  17
ATOM     17  N   UNL     1       0.813   8.478  21.642  0.00  0.00    +0.000 N 
ATOM     18  C   UNL     1       0.702   9.823  21.248  0.00  0.00    +0.000 A 
ATOM     19  C   UNL     1       1.014  10.237  19.958  0.00  0.00    +0.000 A 
ATOM     20  C   UNL     1       0.877  11.577  19.609  0.00  0.00    +0.000 A 
ATOM     21  C   UNL     1       0.420  12.446  20.572  0.00  0.00    +0.000 A 
ATOM     22 CL   UNL     1       0.220  14.115  20.255  0.00  0.00    +0.000 Cl
ATOM     23  N   UNL     1       0.101  12.046  21.818  0.00  0.00    +0.000 NA
ATOM     24  N   UNL     1       0.239  10.720  22.156  0.00  0.00    +0.000 NA
ATOM     25  H   UNL     1       0.657   8.414  22.648  0.00  0.00    +0.000 HD
ENDBRANCH  16  17
ENDBRANCH   4  15
TORSDOF 3
ENDMDL
MODEL 2
REMARK VINA RESULT:      -7.5      2.186      8.198
REMARK  Name = 
REMARK  5 active torsions:
REMARK  status: ('A' for Active; 'I' for Inactive)
REMARK    1  A    between atoms: C_1  and  C_2
REMARK    2  A    between atoms: C_4  and  C_5
REMARK    3  A    between atoms: N_6  and  N_7
REMARK    4  A    between atoms: C_15  and  C_16
REMARK    5  A    between atoms: N_17  and  C_18
REMARK                            x       y       z     vdW  Elec       q    Type
REMARK                         _______ _______ _______ _____ _____    ______ ____
ROOT
ATOM      1  C   UNL     1      -0.102   9.844  22.323  0.00  0.00    +0.000 C 
ATOM      2  C   UNL     1       0.717   9.241  21.234  0.00  0.00    +0.000 A 
ATOM      3  C   UNL     1       1.259   7.973  21.259  0.00  0.00    +0.000 A 
ATOM      4  C   UNL     1       1.759   7.659  19.984  0.00  0.00    +0.000 A 
ATOM      5  C   UNL     1       1.568   8.788  19.189  0.00  0.00    +0.000 A 
ATOM      6  C   UNL     1       1.983   8.963  17.761  0.00  0.00    +0.000 C 
ATOM      7  N   UNL     1       0.975   9.794  19.976  0.00  0.00    +0.000 N 
ENDROOT
BRANCH   7   8
ATOM      8  C   UNL     1       0.590  11.107  19.524  0.00  0.00    +0.000 A 
ATOM      9  C   UNL     1       1.384  12.209  19.891  0.00  0.00    +0.000 A 
ATOM     10  C   UNL     1       1.076  13.505  19.466  0.00  0.00    +0.000 A 
ATOM     11  C   UNL     1       0.008  13.718  18.606  0.00  0.00    +0.000 A 
ATOM     12  C   UNL     1      -0.790  12.641  18.229  0.00  0.00    +0.000 A 
ATOM     13  C   UNL     1      -0.539  11.349  18.724  0.00  0.00    +0.000 A 
ATOM     14 CL   UNL     1      -1.819  10.213  18.483  0.00  0.00    +0.000 Cl
ENDBRANCH   7   8
BRANCH   4  15
ATOM     15  C   UNL     1       2.349   6.400  19.566  0.00  0.00    +0.000 C 
ATOM     16  N   UNL     1       3.626   6.232  19.708  0.00  0.00    +0.000 NA
BRANCH  16  17
ATOM     17  N   UNL     1       4.091   5.029  19.260  0.00  0.00    +0.000 N 
ATOM     18  C   UNL     1       4.734   5.002  18.010  0.00  0.00    +0.000 A 
ATOM     19  C   UNL     1       5.467   6.086  17.539  0.00  0.00    +0.000 A 
ATOM     20  C   UNL     1       6.097   6.009  16.301  0.00  0.00    +0.000 A 
ATOM     21  C   UNL     1       5.973   4.837  15.591  0.00  0.00    +0.000 A 
ATOM     22 CL   UNL     1       6.700   4.636  14.056  0.00  0.00    +0.000 Cl
ATOM     23  N   UNL     1       5.278   3.780  16.052  0.00  0.00    +0.000 NA
ATOM     24  N   UNL     1       4.657   3.863  17.276  0.00  0.00    +0.000 NA
ATOM     25  H   UNL     1       3.516   4.193  19.355  0.00  0.00    +0.000 HD
ENDBRANCH  16  17
ENDBRANCH   4  15
TORSDOF 3
ENDMDL
MODEL 3
REMARK VINA RESULT:      -7.3      2.209      8.110
REMARK  Name = 
REMARK  5 active torsions:
REMARK  status: ('A' for Active; 'I' for Inactive)
REMARK    1  A    between atoms: C_1  and  C_2
REMARK    2  A    between atoms: C_4  and  C_5
REMARK    3  A    between atoms: N_6  and  N_7
REMARK    4  A    between atoms: C_15  and  C_16
REMARK    5  A    between atoms: N_17  and  C_18
REMARK                            x       y       z     vdW  Elec       q    Type
REMARK                         _______ _______ _______ _____ _____    ______ ____
ROOT
ATOM      1  C   UNL     1      -0.486   8.991  22.034  0.00  0.00    +0.000 C 
ATOM      2  C   UNL     1       0.560   8.658  21.025  0.00  0.00    +0.000 A 
ATOM      3  C   UNL     1       1.444   7.603  21.119  0.00  0.00    +0.000 A 
ATOM      4  C   UNL     1       2.117   7.454  19.895  0.00  0.00    +0.000 A 
ATOM      5  C   UNL     1       1.671   8.481  19.065  0.00  0.00    +0.000 A 
ATOM      6  C   UNL     1       2.133   8.774  17.672  0.00  0.00    +0.000 C 
ATOM      7  N   UNL     1       0.748   9.267  19.781  0.00  0.00    +0.000 N 
ENDROOT
BRANCH   7   8
ATOM      8  C   UNL     1       0.036  10.412  19.273  0.00  0.00    +0.000 A 
ATOM      9  C   UNL     1      -1.000  10.208  18.343  0.00  0.00    +0.000 A 
ATOM     10  C   UNL     1      -1.742  11.276  17.831  0.00  0.00    +0.000 A 
ATOM     11  C   UNL     1      -1.512  12.566  18.291  0.00  0.00    +0.000 A 
ATOM     12  C   UNL     1      -0.493  12.789  19.213  0.00  0.00    +0.000 A 
ATOM     13  C   UNL     1       0.316  11.731  19.666  0.00  0.00    +0.000 A 
ATOM     14 CL   UNL     1       1.757  12.214  20.488  0.00  0.00    +0.000 Cl
ENDBRANCH   7   8
BRANCH   4  15
ATOM     15  C   UNL     1       3.080   6.423  19.552  0.00  0.00    +0.000 C 
ATOM     16  N   UNL     1       2.726   5.489  18.727  0.00  0.00    +0.000 NA
BRANCH  16  17
ATOM     17  N   UNL     1       3.689   4.550  18.490  0.00  0.00    +0.000 N 
ATOM     18  C   UNL     1       4.445   4.673  17.312  0.00  0.00    +0.000 A 
ATOM     19  C   UNL     1       4.737   5.912  16.753  0.00  0.00    +0.000 A 
ATOM     20  C   UNL     1       5.501   5.985  15.593  0.00  0.00    +0.000 A 
ATOM     21  C   UNL     1       5.950   4.806  15.046  0.00  0.00    +0.000 A 
ATOM     22 CL   UNL     1       6.890   4.778  13.617  0.00  0.00    +0.000 Cl
ATOM     23  N   UNL     1       5.683   3.605  15.594  0.00  0.00    +0.000 NA
ATOM     24  N   UNL     1       4.928   3.540  16.741  0.00  0.00    +0.000 NA
ATOM     25  H   UNL     1       3.490   3.564  18.656  0.00  0.00    +0.000 HD
ENDBRANCH  16  17
ENDBRANCH   4  15
TORSDOF 3
ENDMDL
MODEL 4
REMARK VINA RESULT:      -7.2      1.021      1.097
REMARK  Name = 
REMARK  5 active torsions:
REMARK  status: ('A' for Active; 'I' for Inactive)
REMARK    1  A    between atoms: C_1  and  C_2
REMARK    2  A    between atoms: C_4  and  C_5
REMARK    3  A    between atoms: N_6  and  N_7
REMARK    4  A    between atoms: C_15  and  C_16
REMARK    5  A    between atoms: N_17  and  C_18
REMARK                            x       y       z     vdW  Elec       q    Type
REMARK                         _______ _______ _______ _____ _____    ______ ____
ROOT
ATOM      1  C   UNL     1       3.779   1.996  17.904  0.00  0.00    +0.000 C 
ATOM      2  C   UNL     1       3.368   3.418  18.073  0.00  0.00    +0.000 A 
ATOM      3  C   UNL     1       2.414   3.867  18.962  0.00  0.00    +0.000 A 
ATOM      4  C   UNL     1       2.457   5.270  19.017  0.00  0.00    +0.000 A 
ATOM      5  C   UNL     1       3.418   5.678  18.094  0.00  0.00    +0.000 A 
ATOM      6  C   UNL     1       3.794   7.086  17.751  0.00  0.00    +0.000 C 
ATOM      7  N   UNL     1       3.946   4.535  17.463  0.00  0.00    +0.000 N 
ENDROOT
BRANCH   7   8
ATOM      8  C   UNL     1       4.983   4.522  16.463  0.00  0.00    +0.000 A 
ATOM      9  C   UNL     1       4.632   4.257  15.126  0.00  0.00    +0.000 A 
ATOM     10  C   UNL     1       5.588   4.252  14.107  0.00  0.00    +0.000 A 
ATOM     11  C   UNL     1       6.907   4.582  14.390  0.00  0.00    +0.000 A 
ATOM     12  C   UNL     1       7.275   4.849  15.706  0.00  0.00    +0.000 A 
ATOM     13  C   UNL     1       6.336   4.769  16.750  0.00  0.00    +0.000 A 
ATOM     14 CL   UNL     1       7.011   4.743  18.340  0.00  0.00    +0.000 Cl
ENDBRANCH   7   8
BRANCH   4  15
ATOM     15  C   UNL     1       1.665   6.132  19.876  0.00  0.00    +0.000 C 
ATOM     16  N   UNL     1       2.223   7.183  20.389  0.00  0.00    +0.000 NA
BRANCH  16  17
ATOM     17  N   UNL     1       1.408   7.913  21.206  0.00  0.00    +0.000 N 
ATOM     18  C   UNL     1       1.148   9.246  20.847  0.00  0.00    +0.000 A 
ATOM     19  C   UNL     1       1.099   9.652  19.518  0.00  0.00    +0.000 A 
ATOM     20  C   UNL     1       0.825  10.981  19.209  0.00  0.00    +0.000 A 
ATOM     21  C   UNL     1       0.599  11.847  20.254  0.00  0.00    +0.000 A 
ATOM     22 CL   UNL     1       0.260  13.503  19.990  0.00  0.00    +0.000 Cl
ATOM     23  N   UNL     1       0.629  11.454  21.541  0.00  0.00    +0.000 NA
ATOM     24  N   UNL     1       0.901  10.140  21.839  0.00  0.00    +0.000 NA
ATOM     25  H   UNL     1       1.520   7.858  22.218  0.00  0.00    +0.000 HD
ENDBRANCH  16  17
ENDBRANCH   4  15
TORSDOF 3
ENDMDL
MODEL 5
REMARK VINA RESULT:      -7.1      7.672     10.284
REMARK  Name = 
REMARK  5 active torsions:
REMARK  status: ('A' for Active; 'I' for Inactive)
REMARK    1  A    between atoms: C_1  and  C_2
REMARK    2  A    between atoms: C_4  and  C_5
REMARK    3  A    between atoms: N_6  and  N_7
REMARK    4  A    between atoms: C_15  and  C_16
REMARK    5  A    between atoms: N_17  and  C_18
REMARK                            x       y       z     vdW  Elec       q    Type
REMARK                         _______ _______ _______ _____ _____    ______ ____
ROOT
ATOM      1  C   UNL     1       7.717  13.988  17.244  0.00  0.00    +0.000 C 
ATOM      2  C   UNL     1       8.543  12.976  17.962  0.00  0.00    +0.000 A 
ATOM      3  C   UNL     1       8.170  11.668  18.192  0.00  0.00    +0.000 A 
ATOM      4  C   UNL     1       9.277  10.951  18.676  0.00  0.00    +0.000 A 
ATOM      5  C   UNL     1      10.324  11.862  18.797  0.00  0.00    +0.000 A 
ATOM      6  C   UNL     1      11.699  11.587  19.321  0.00  0.00    +0.000 C 
ATOM      7  N   UNL     1       9.858  13.133  18.411  0.00  0.00    +0.000 N 
ENDROOT
BRANCH   7   8
ATOM      8  C   UNL     1      10.636  14.345  18.368  0.00  0.00    +0.000 A 
ATOM      9  C   UNL     1      11.252  14.711  17.157  0.00  0.00    +0.000 A 
ATOM     10  C   UNL     1      12.002  15.886  17.045  0.00  0.00    +0.000 A 
ATOM     11  C   UNL     1      12.093  16.757  18.123  0.00  0.00    +0.000 A 
ATOM     12  C   UNL     1      11.488  16.414  19.329  0.00  0.00    +0.000 A 
ATOM     13  C   UNL     1      10.808  15.192  19.475  0.00  0.00    +0.000 A 
ATOM     14 CL   UNL     1      10.456  14.741  21.106  0.00  0.00    +0.000 Cl
ENDBRANCH   7   8
BRANCH   4  15
ATOM     15  C   UNL     1       9.329   9.532  18.980  0.00  0.00    +0.000 C 
ATOM     16  N   UNL     1       8.440   8.749  18.456  0.00  0.00    +0.000 NA
BRANCH  16  17
ATOM     17  N   UNL     1       8.552   7.439  18.824  0.00  0.00    +0.000 N 
ATOM     18  C   UNL     1       7.572   6.544  18.362  0.00  0.00    +0.000 A 
ATOM     19  C   UNL     1       6.940   6.718  17.135  0.00  0.00    +0.000 A 
ATOM     20  C   UNL     1       5.985   5.799  16.712  0.00  0.00    +0.000 A 
ATOM     21  C   UNL     1       5.712   4.733  17.538  0.00  0.00    +0.000 A 
ATOM     22 CL   UNL     1       4.551   3.548  17.121  0.00  0.00    +0.000 Cl
ATOM     23  N   UNL     1       6.334   4.552  18.718  0.00  0.00    +0.000 NA
ATOM     24  N   UNL     1       7.277   5.465  19.130  0.00  0.00    +0.000 NA
ATOM     25  H   UNL     1       8.793   7.199  19.785  0.00  0.00    +0.000 HD
ENDBRANCH  16  17
ENDBRANCH   4  15
TORSDOF 3
ENDMDL
MODEL 6
REMARK VINA RESULT:      -7.1      2.239      9.256
REMARK  Name = 
REMARK  5 active torsions:
REMARK  status: ('A' for Active; 'I' for Inactive)
REMARK    1  A    between atoms: C_1  and  C_2
REMARK    2  A    between atoms: C_4  and  C_5
REMARK    3  A    between atoms: N_6  and  N_7
REMARK    4  A    between atoms: C_15  and  C_16
REMARK    5  A    between atoms: N_17  and  C_18
REMARK                            x       y       z     vdW  Elec       q    Type
REMARK                         _______ _______ _______ _____ _____    ______ ____
ROOT
ATOM      1  C   UNL     1      -0.492  12.296  18.847  0.00  0.00    +0.000 C 
ATOM      2  C   UNL     1      -0.195  11.166  19.771  0.00  0.00    +0.000 A 
ATOM      3  C   UNL     1       0.444   9.997  19.413  0.00  0.00    +0.000 A 
ATOM      4  C   UNL     1       0.763   9.271  20.573  0.00  0.00    +0.000 A 
ATOM      5  C   UNL     1       0.250   9.990  21.650  0.00  0.00    +0.000 A 
ATOM      6  C   UNL     1       0.291   9.598  23.094  0.00  0.00    +0.000 C 
ATOM      7  N   UNL     1      -0.397  11.139  21.154  0.00  0.00    +0.000 N 
ENDROOT
BRANCH   7   8
ATOM      8  C   UNL     1      -1.038  12.159  21.944  0.00  0.00    +0.000 A 
ATOM      9  C   UNL     1      -2.362  11.952  22.372  0.00  0.00    +0.000 A 
ATOM     10  C   UNL     1      -3.031  12.894  23.159  0.00  0.00    +0.000 A 
ATOM     11  C   UNL     1      -2.365  14.032  23.596  0.00  0.00    +0.000 A 
ATOM     12  C   UNL     1      -1.053  14.254  23.187  0.00  0.00    +0.000 A 
ATOM     13  C   UNL     1      -0.405  13.354  22.322  0.00  0.00    +0.000 A 
ATOM     14 CL   UNL     1       1.050  13.951  21.604  0.00  0.00    +0.000 Cl
ENDBRANCH   7   8
BRANCH   4  15
ATOM     15  C   UNL     1       1.496   8.020  20.641  0.00  0.00    +0.000 C 
ATOM     16  N   UNL     1       2.147   7.620  19.595  0.00  0.00    +0.000 NA
BRANCH  16  17
ATOM     17  N   UNL     1       2.780   6.420  19.747  0.00  0.00    +0.000 N 
ATOM     18  C   UNL     1       3.483   5.907  18.643  0.00  0.00    +0.000 A 
ATOM     19  C   UNL     1       4.099   6.740  17.715  0.00  0.00    +0.000 A 
ATOM     20  C   UNL     1       4.795   6.187  16.645  0.00  0.00    +0.000 A 
ATOM     21  C   UNL     1       4.852   4.816  16.558  0.00  0.00    +0.000 A 
ATOM     22 CL   UNL     1       5.675   4.030  15.280  0.00  0.00    +0.000 Cl
ATOM     23  N   UNL     1       4.271   4.006  17.463  0.00  0.00    +0.000 NA
ATOM     24  N   UNL     1       3.584   4.559  18.518  0.00  0.00    +0.000 NA
ATOM     25  H   UNL     1       2.308   5.652  20.225  0.00  0.00    +0.000 HD
ENDBRANCH  16  17
ENDBRANCH   4  15
TORSDOF 3
ENDMDL
MODEL 7
REMARK VINA RESULT:      -7.0      2.373      9.249
REMARK  Name = 
REMARK  5 active torsions:
REMARK  status: ('A' for Active; 'I' for Inactive)
REMARK    1  A    between atoms: C_1  and  C_2
REMARK    2  A    between atoms: C_4  and  C_5
REMARK    3  A    between atoms: N_6  and  N_7
REMARK    4  A    between atoms: C_15  and  C_16
REMARK    5  A    between atoms: N_17  and  C_18
REMARK                            x       y       z     vdW  Elec       q    Type
REMARK                         _______ _______ _______ _____ _____    ______ ____
ROOT
ATOM      1  C   UNL     1       0.927  12.669  18.619  0.00  0.00    +0.000 C 
ATOM      2  C   UNL     1       0.761  11.305  19.195  0.00  0.00    +0.000 A 
ATOM      3  C   UNL     1       1.478  10.190  18.811  0.00  0.00    +0.000 A 
ATOM      4  C   UNL     1       1.230   9.147  19.719  0.00  0.00    +0.000 A 
ATOM      5  C   UNL     1       0.296   9.626  20.635  0.00  0.00    +0.000 A 
ATOM      6  C   UNL     1      -0.323   8.867  21.768  0.00  0.00    +0.000 C 
ATOM      7  N   UNL     1      -0.043  10.946  20.281  0.00  0.00    +0.000 N 
ENDROOT
BRANCH   7   8
ATOM      8  C   UNL     1      -0.957  11.806  20.988  0.00  0.00    +0.000 A 
ATOM      9  C   UNL     1      -0.658  12.168  22.315  0.00  0.00    +0.000 A 
ATOM     10  C   UNL     1      -1.493  13.016  23.046  0.00  0.00    +0.000 A 
ATOM     11  C   UNL     1      -2.610  13.579  22.445  0.00  0.00    +0.000 A 
ATOM     12  C   UNL     1      -2.924  13.236  21.132  0.00  0.00    +0.000 A 
ATOM     13  C   UNL     1      -2.137  12.313  20.420  0.00  0.00    +0.000 A 
ATOM     14 CL   UNL     1      -2.858  11.703  18.972  0.00  0.00    +0.000 Cl
ENDBRANCH   7   8
BRANCH   4  15
ATOM     15  C   UNL     1       1.837   7.828  19.715  0.00  0.00    +0.000 C 
ATOM     16  N   UNL     1       2.622   7.506  18.736  0.00  0.00    +0.000 NA
BRANCH  16  17
ATOM     17  N   UNL     1       3.119   6.236  18.804  0.00  0.00    +0.000 N 
ATOM     18  C   UNL     1       3.874   5.770  17.714  0.00  0.00    +0.000 A 
ATOM     19  C   UNL     1       4.654   6.626  16.943  0.00  0.00    +0.000 A 
ATOM     20  C   UNL     1       5.395   6.118  15.881  0.00  0.00    +0.000 A 
ATOM     21  C   UNL     1       5.330   4.764  15.644  0.00  0.00    +0.000 A 
ATOM     22 CL   UNL     1       6.194   4.034  14.361  0.00  0.00    +0.000 Cl
ATOM     23  N   UNL     1       4.589   3.931  16.399  0.00  0.00    +0.000 NA
ATOM     24  N   UNL     1       3.859   4.440  17.447  0.00  0.00    +0.000 NA
ATOM     25  H   UNL     1       2.533   5.477  19.150  0.00  0.00    +0.000 HD
ENDBRANCH  16  17
ENDBRANCH   4  15
TORSDOF 3
ENDMDL
MODEL 8
REMARK VINA RESULT:      -7.0      5.082      6.772
REMARK  Name = 
REMARK  5 active torsions:
REMARK  status: ('A' for Active; 'I' for Inactive)
REMARK    1  A    between atoms: C_1  and  C_2
REMARK    2  A    between atoms: C_4  and  C_5
REMARK    3  A    between atoms: N_6  and  N_7
REMARK    4  A    between atoms: C_15  and  C_16
REMARK    5  A    between atoms: N_17  and  C_18
REMARK                            x       y       z     vdW  Elec       q    Type
REMARK                         _______ _______ _______ _____ _____    ______ ____
ROOT
ATOM      1  C   UNL     1       5.257   4.954  14.748  0.00  0.00    +0.000 C 
ATOM      2  C   UNL     1       5.803   5.256  16.101  0.00  0.00    +0.000 A 
ATOM      3  C   UNL     1       6.939   5.997  16.349  0.00  0.00    +0.000 A 
ATOM      4  C   UNL     1       7.018   6.275  17.724  0.00  0.00    +0.000 A 
ATOM      5  C   UNL     1       5.935   5.636  18.325  0.00  0.00    +0.000 A 
ATOM      6  C   UNL     1       5.614   5.595  19.787  0.00  0.00    +0.000 C 
ATOM      7  N   UNL     1       5.210   4.952  17.330  0.00  0.00    +0.000 N 
ENDROOT
BRANCH   7   8
ATOM      8  C   UNL     1       4.006   4.188  17.533  0.00  0.00    +0.000 A 
ATOM      9  C   UNL     1       4.066   2.786  17.419  0.00  0.00    +0.000 A 
ATOM     10  C   UNL     1       2.938   1.988  17.626  0.00  0.00    +0.000 A 
ATOM     11  C   UNL     1       1.740   2.567  18.021  0.00  0.00    +0.000 A 
ATOM     12  C   UNL     1       1.660   3.952  18.143  0.00  0.00    +0.000 A 
ATOM     13  C   UNL     1       2.767   4.768  17.850  0.00  0.00    +0.000 A 
ATOM     14 CL   UNL     1       2.408   6.449  17.671  0.00  0.00    +0.000 Cl
ENDBRANCH   7   8
BRANCH   4  15
ATOM     15  C   UNL     1       8.022   7.084  18.392  0.00  0.00    +0.000 C 
ATOM     16  N   UNL     1       8.063   8.355  18.148  0.00  0.00    +0.000 NA
BRANCH  16  17
ATOM     17  N   UNL     1       9.059   9.024  18.798  0.00  0.00    +0.000 N 
ATOM     18  C   UNL     1       9.302  10.357  18.425  0.00  0.00    +0.000 A 
ATOM     19  C   UNL     1       8.285  11.190  17.974  0.00  0.00    +0.000 A 
ATOM     20  C   UNL     1       8.570  12.507  17.627  0.00  0.00    +0.000 A 
ATOM     21  C   UNL     1       9.870  12.937  17.761  0.00  0.00    +0.000 A 
ATOM     22 CL   UNL     1      10.335  14.533  17.358  0.00  0.00    +0.000 Cl
ATOM     23  N   UNL     1      10.855  12.138  18.214  0.00  0.00    +0.000 NA
ATOM     24  N   UNL     1      10.565  10.838  18.554  0.00  0.00    +0.000 NA
ATOM     25  H   UNL     1       9.950   8.563  18.978  0.00  0.00    +0.000 HD
ENDBRANCH  16  17
ENDBRANCH   4  15
TORSDOF 3
ENDMDL
MODEL 9
REMARK VINA RESULT:      -6.9      2.439      2.569
REMARK  Name = 
REMARK  5 active torsions:
REMARK  status: ('A' for Active; 'I' for Inactive)
REMARK    1  A    between atoms: C_1  and  C_2
REMARK    2  A    between atoms: C_4  and  C_5
REMARK    3  A    between atoms: N_6  and  N_7
REMARK    4  A    between atoms: C_15  and  C_16
REMARK    5  A    between atoms: N_17  and  C_18
REMARK                            x       y       z     vdW  Elec       q    Type
REMARK                         _______ _______ _______ _____ _____    ______ ____
ROOT
ATOM      1  C   UNL     1       3.635   3.497  19.982  0.00  0.00    +0.000 C 
ATOM      2  C   UNL     1       3.254   4.844  19.469  0.00  0.00    +0.000 A 
ATOM      3  C   UNL     1       2.308   5.670  20.038  0.00  0.00    +0.000 A 
ATOM      4  C   UNL     1       2.381   6.938  19.438  0.00  0.00    +0.000 A 
ATOM      5  C   UNL     1       3.353   6.855  18.443  0.00  0.00    +0.000 A 
ATOM      6  C   UNL     1       3.759   7.937  17.492  0.00  0.00    +0.000 C 
ATOM      7  N   UNL     1       3.858   5.541  18.418  0.00  0.00    +0.000 N 
ENDROOT
BRANCH   7   8
ATOM      8  C   UNL     1       4.896   5.048  17.550  0.00  0.00    +0.000 A 
ATOM      9  C   UNL     1       4.531   4.442  16.334  0.00  0.00    +0.000 A 
ATOM     10  C   UNL     1       5.493   3.963  15.439  0.00  0.00    +0.000 A 
ATOM     11  C   UNL     1       6.843   4.144  15.708  0.00  0.00    +0.000 A 
ATOM     12  C   UNL     1       7.226   4.745  16.905  0.00  0.00    +0.000 A 
ATOM     13  C   UNL     1       6.265   5.147  17.850  0.00  0.00    +0.000 A 
ATOM     14 CL   UNL     1       6.891   5.509  19.420  0.00  0.00    +0.000 Cl
ENDBRANCH   7   8
BRANCH   4  15
ATOM     15  C   UNL     1       1.606   8.114  19.792  0.00  0.00    +0.000 C 
ATOM     16  N   UNL     1       1.438   9.041  18.903  0.00  0.00    +0.000 NA
BRANCH  16  17
ATOM     17  N   UNL     1       0.723  10.119  19.338  0.00  0.00    +0.000 N 
ATOM     18  C   UNL     1      -0.462  10.437  18.652  0.00  0.00    +0.000 A 
ATOM     19  C   UNL     1      -1.251   9.458  18.057  0.00  0.00    +0.000 A 
ATOM     20  C   UNL     1      -2.422   9.817  17.400  0.00  0.00    +0.000 A 
ATOM     21  C   UNL     1      -2.760  11.150  17.377  0.00  0.00    +0.000 A 
ATOM     22 CL   UNL     1      -4.175  11.705  16.592  0.00  0.00    +0.000 Cl
ATOM     23  N   UNL     1      -2.009  12.099  17.967  0.00  0.00    +0.000 NA
ATOM     24  N   UNL     1      -0.851  11.736  18.614  0.00  0.00    +0.000 NA
ATOM     25  H   UNL     1       1.203  10.983  19.586  0.00  0.00    +0.000 HD
ENDBRANCH  16  17
ENDBRANCH   4  15
TORSDOF 3
ENDMDL
