MODEL 1
REMARK VINA RESULT:      -8.5      0.000      0.000
REMARK  Name = 
REMARK  14 active torsions:
REMARK  status: ('A' for Active; 'I' for Inactive)
REMARK    1  A    between atoms: C_1  and  C_2
REMARK    2  A    between atoms: C_3  and  N_4
REMARK    3  A    between atoms: N_4  and  S_5
REMARK    4  A    between atoms: S_5  and  C_8
REMARK    5  A    between atoms: C_11  and  C_12
REMARK    6  A    between atoms: C_16  and  C_17
REMARK    7  A    between atoms: C_17  and  N_18
REMARK    8  A    between atoms: N_18  and  C_19
REMARK    9  A    between atoms: N_18  and  C_20
REMARK   10  A    between atoms: C_25  and  C_26
REMARK   11  A    between atoms: C_26  and  C_27
REMARK   12  A    between atoms: C_27  and  C_28
REMARK   13  A    between atoms: C_27  and  C_29
REMARK   14  A    between atoms: N_31  and  C_32
REMARK                            x       y       z     vdW  Elec       q    Type
REMARK                         _______ _______ _______ _____ _____    ______ ____
ROOT
ATOM      1  C   UNL     1       1.120   9.288  19.898  0.00  0.00    +0.000 A 
ATOM      2  C   UNL     1       1.493   8.144  20.599  0.00  0.00    +0.000 A 
ATOM      3  C   UNL     1       2.143   7.111  19.922  0.00  0.00    +0.000 A 
ATOM      4  C   UNL     1       2.442   7.189  18.546  0.00  0.00    +0.000 A 
ATOM      5  C   UNL     1       2.013   8.343  17.862  0.00  0.00    +0.000 A 
ATOM      6  C   UNL     1       1.345   9.380  18.526  0.00  0.00    +0.000 A 
ENDROOT
BRANCH   4   7
ATOM      7  C   UNL     1       3.149   6.078  17.856  0.00  0.00    +0.000 A 
ATOM      8  C   UNL     1       2.734   4.741  17.989  0.00  0.00    +0.000 A 
ATOM      9  C   UNL     1       3.451   3.691  17.405  0.00  0.00    +0.000 A 
ATOM     10  C   UNL     1       4.626   3.948  16.701  0.00  0.00    +0.000 A 
ATOM     11  C   UNL     1       5.073   5.263  16.541  0.00  0.00    +0.000 A 
ATOM     12  C   UNL     1       4.308   6.304  17.084  0.00  0.00    +0.000 A 
ATOM     13  F   UNL     1       4.721   7.563  16.856  0.00  0.00    +0.000 F 
BRANCH  11  14
ATOM     14  C   UNL     1       6.403   5.576  15.896  0.00  0.00    +0.000 C 
BRANCH  14  15
ATOM     15  N   UNL     1       7.534   5.680  16.834  0.00  0.00    +0.000 NA
ATOM     16  C   UNL     1       7.546   6.982  17.509  0.00  0.00    +0.000 C 
ATOM     17  C   UNL     1       7.423   4.616  17.839  0.00  0.00    +0.000 C 
ENDBRANCH  14  15
ENDBRANCH  11  14
ENDBRANCH   4   7
BRANCH   1  18
ATOM     18  S   UNL     1       0.381  10.640  20.777  0.00  0.00    +0.000 S 
ATOM     19  O   UNL     1       1.412  11.312  21.531  0.00  0.00    +0.000 OA
ATOM     20  O   UNL     1      -0.829  10.152  21.407  0.00  0.00    +0.000 OA
BRANCH  18  21
ATOM     21  N   UNL     1      -0.140  11.599  19.470  0.00  0.00    +0.000 N 
ATOM     22  H   UNL     1       0.335  11.230  18.650  0.00  0.00    +0.000 HD
BRANCH  21  25
ATOM     23  C   UNL     1      -2.073   9.999  17.514  0.00  0.00    +0.000 C 
ATOM     24  C   UNL     1      -2.345  11.111  18.459  0.00  0.00    +0.000 A 
ATOM     25  C   UNL     1      -1.513  11.825  19.294  0.00  0.00    +0.000 A 
ATOM     26  C   UNL     1      -2.365  12.700  20.022  0.00  0.00    +0.000 A 
ATOM     27  N   UNL     1      -3.645  12.545  19.650  0.00  0.00    +0.000 NA
ATOM     28  N   UNL     1      -3.604  11.591  18.706  0.00  0.00    +0.000 N 
ATOM     29  C   UNL     1      -4.844  11.113  18.137  0.00  0.00    +0.000 C 
BRANCH  26  30
ATOM     30  C   UNL     1      -2.048  13.639  21.143  0.00  0.00    +0.000 C 
BRANCH  30  31
ATOM     31  C   UNL     1      -1.892  13.005  22.538  0.00  0.00    +0.000 C 
ATOM     32  C   UNL     1      -1.281  13.953  23.573  0.00  0.00    +0.000 C 
ATOM     33  C   UNL     1      -3.272  12.553  23.035  0.00  0.00    +0.000 C 
ENDBRANCH  30  31
ENDBRANCH  26  30
ENDBRANCH  21  25
ENDBRANCH  18  21
ENDBRANCH   1  18
TORSDOF 8
ENDMDL
MODEL 2
REMARK VINA RESULT:      -8.5      1.717      2.670
REMARK  Name = 
REMARK  14 active torsions:
REMARK  status: ('A' for Active; 'I' for Inactive)
REMARK    1  A    between atoms: C_1  and  C_2
REMARK    2  A    between atoms: C_3  and  N_4
REMARK    3  A    between atoms: N_4  and  S_5
REMARK    4  A    between atoms: S_5  and  C_8
REMARK    5  A    between atoms: C_11  and  C_12
REMARK    6  A    between atoms: C_16  and  C_17
REMARK    7  A    between atoms: C_17  and  N_18
REMARK    8  A    between atoms: N_18  and  C_19
REMARK    9  A    between atoms: N_18  and  C_20
REMARK   10  A    between atoms: C_25  and  C_26
REMARK   11  A    between atoms: C_26  and  C_27
REMARK   12  A    between atoms: C_27  and  C_28
REMARK   13  A    between atoms: C_27  and  C_29
REMARK   14  A    between atoms: N_31  and  C_32
REMARK                            x       y       z     vdW  Elec       q    Type
REMARK                         _______ _______ _______ _____ _____    ______ ____
ROOT
ATOM      1  C   UNL     1       1.013   9.729  19.930  0.00  0.00    +0.000 A 
ATOM      2  C   UNL     1       1.377   9.827  18.590  0.00  0.00    +0.000 A 
ATOM      3  C   UNL     1       2.075   8.776  17.993  0.00  0.00    +0.000 A 
ATOM      4  C   UNL     1       2.422   7.609  18.704  0.00  0.00    +0.000 A 
ATOM      5  C   UNL     1       2.073   7.563  20.068  0.00  0.00    +0.000 A 
ATOM      6  C   UNL     1       1.387   8.618  20.684  0.00  0.00    +0.000 A 
ENDROOT
BRANCH   4   7
ATOM      7  C   UNL     1       3.152   6.500  18.037  0.00  0.00    +0.000 A 
ATOM      8  C   UNL     1       4.307   6.732  17.268  0.00  0.00    +0.000 A 
ATOM      9  C   UNL     1       4.944   5.696  16.574  0.00  0.00    +0.000 A 
ATOM     10  C   UNL     1       4.421   4.405  16.602  0.00  0.00    +0.000 A 
ATOM     11  C   UNL     1       3.277   4.129  17.358  0.00  0.00    +0.000 A 
ATOM     12  C   UNL     1       2.690   5.169  18.092  0.00  0.00    +0.000 A 
ATOM     13  F   UNL     1       1.634   4.862  18.866  0.00  0.00    +0.000 F 
BRANCH  11  14
ATOM     14  C   UNL     1       2.606   2.776  17.315  0.00  0.00    +0.000 C 
BRANCH  14  15
ATOM     15  N   UNL     1       2.891   1.909  18.471  0.00  0.00    +0.000 NA
ATOM     16  C   UNL     1       4.066   2.379  19.211  0.00  0.00    +0.000 C 
ATOM     17  C   UNL     1       1.727   1.906  19.366  0.00  0.00    +0.000 C 
ENDBRANCH  14  15
ENDBRANCH  11  14
ENDBRANCH   4   7
BRANCH   1  18
ATOM     18  S   UNL     1       0.043  11.020  20.663  0.00  0.00    +0.000 S 
ATOM     19  O   UNL     1       0.927  11.897  21.394  0.00  0.00    +0.000 OA
ATOM     20  O   UNL     1      -1.112  10.409  21.288  0.00  0.00    +0.000 OA
BRANCH  18  21
ATOM     21  N   UNL     1      -0.549  11.785  19.260  0.00  0.00    +0.000 N 
ATOM     22  H   UNL     1      -0.018  11.391  18.487  0.00  0.00    +0.000 HD
BRANCH  21  25
ATOM     23  C   UNL     1      -2.182  10.135  17.086  0.00  0.00    +0.000 C 
ATOM     24  C   UNL     1      -2.633  11.106  18.115  0.00  0.00    +0.000 A 
ATOM     25  C   UNL     1      -1.933  11.841  19.047  0.00  0.00    +0.000 A 
ATOM     26  C   UNL     1      -2.919  12.520  19.813  0.00  0.00    +0.000 A 
ATOM     27  N   UNL     1      -4.154  12.232  19.373  0.00  0.00    +0.000 NA
ATOM     28  N   UNL     1      -3.954  11.387  18.349  0.00  0.00    +0.000 N 
ATOM     29  C   UNL     1      -5.098  10.803  17.686  0.00  0.00    +0.000 C 
BRANCH  26  30
ATOM     30  C   UNL     1      -2.768  13.382  21.027  0.00  0.00    +0.000 C 
BRANCH  30  31
ATOM     31  C   UNL     1      -3.703  13.062  22.209  0.00  0.00    +0.000 C 
ATOM     32  C   UNL     1      -2.977  12.454  23.411  0.00  0.00    +0.000 C 
ATOM     33  C   UNL     1      -4.403  14.353  22.653  0.00  0.00    +0.000 C 
ENDBRANCH  30  31
ENDBRANCH  26  30
ENDBRANCH  21  25
ENDBRANCH  18  21
ENDBRANCH   1  18
TORSDOF 8
ENDMDL
MODEL 3
REMARK VINA RESULT:      -8.4      1.770      2.679
REMARK  Name = 
REMARK  14 active torsions:
REMARK  status: ('A' for Active; 'I' for Inactive)
REMARK    1  A    between atoms: C_1  and  C_2
REMARK    2  A    between atoms: C_3  and  N_4
REMARK    3  A    between atoms: N_4  and  S_5
REMARK    4  A    between atoms: S_5  and  C_8
REMARK    5  A    between atoms: C_11  and  C_12
REMARK    6  A    between atoms: C_16  and  C_17
REMARK    7  A    between atoms: C_17  and  N_18
REMARK    8  A    between atoms: N_18  and  C_19
REMARK    9  A    between atoms: N_18  and  C_20
REMARK   10  A    between atoms: C_25  and  C_26
REMARK   11  A    between atoms: C_26  and  C_27
REMARK   12  A    between atoms: C_27  and  C_28
REMARK   13  A    between atoms: C_27  and  C_29
REMARK   14  A    between atoms: N_31  and  C_32
REMARK                            x       y       z     vdW  Elec       q    Type
REMARK                         _______ _______ _______ _____ _____    ______ ____
ROOT
ATOM      1  C   UNL     1       1.053   9.686  19.811  0.00  0.00    +0.000 A 
ATOM      2  C   UNL     1       1.400   8.571  20.569  0.00  0.00    +0.000 A 
ATOM      3  C   UNL     1       2.085   7.518  19.961  0.00  0.00    +0.000 A 
ATOM      4  C   UNL     1       2.447   7.548  18.598  0.00  0.00    +0.000 A 
ATOM      5  C   UNL     1       2.043   8.674  17.854  0.00  0.00    +0.000 A 
ATOM      6  C   UNL     1       1.339   9.729  18.447  0.00  0.00    +0.000 A 
ENDROOT
BRANCH   4   7
ATOM      7  C   UNL     1       3.191   6.419  17.983  0.00  0.00    +0.000 A 
ATOM      8  C   UNL     1       4.363   6.627  17.233  0.00  0.00    +0.000 A 
ATOM      9  C   UNL     1       5.015   5.570  16.587  0.00  0.00    +0.000 A 
ATOM     10  C   UNL     1       4.491   4.280  16.644  0.00  0.00    +0.000 A 
ATOM     11  C   UNL     1       3.330   4.028  17.382  0.00  0.00    +0.000 A 
ATOM     12  C   UNL     1       2.727   5.090  18.069  0.00  0.00    +0.000 A 
ATOM     13  F   UNL     1       1.654   4.808  18.829  0.00  0.00    +0.000 F 
BRANCH  11  14
ATOM     14  C   UNL     1       2.659   2.674  17.368  0.00  0.00    +0.000 C 
BRANCH  14  15
ATOM     15  N   UNL     1       2.905   1.851  18.564  0.00  0.00    +0.000 NA
ATOM     16  C   UNL     1       4.034   2.368  19.343  0.00  0.00    +0.000 C 
ATOM     17  C   UNL     1       1.699   1.852  19.402  0.00  0.00    +0.000 C 
ENDBRANCH  14  15
ENDBRANCH  11  14
ENDBRANCH   4   7
BRANCH   1  18
ATOM     18  S   UNL     1       0.267  11.063  20.604  0.00  0.00    +0.000 S 
ATOM     19  O   UNL     1       1.286  11.874  21.228  0.00  0.00    +0.000 OA
ATOM     20  O   UNL     1      -0.868  10.559  21.351  0.00  0.00    +0.000 OA
BRANCH  18  21
ATOM     21  N   UNL     1      -0.394  11.854  19.248  0.00  0.00    +0.000 N 
ATOM     22  H   UNL     1       0.073  11.453  18.440  0.00  0.00    +0.000 HD
BRANCH  21  25
ATOM     23  C   UNL     1      -2.238  10.107  17.334  0.00  0.00    +0.000 C 
ATOM     24  C   UNL     1      -2.579  11.173  18.309  0.00  0.00    +0.000 A 
ATOM     25  C   UNL     1      -1.788  11.950  19.127  0.00  0.00    +0.000 A 
ATOM     26  C   UNL     1      -2.692  12.728  19.901  0.00  0.00    +0.000 A 
ATOM     27  N   UNL     1      -3.964  12.457  19.573  0.00  0.00    +0.000 NA
ATOM     28  N   UNL     1      -3.868  11.526  18.610  0.00  0.00    +0.000 N 
ATOM     29  C   UNL     1      -5.077  10.940  18.078  0.00  0.00    +0.000 C 
BRANCH  26  30
ATOM     30  C   UNL     1      -2.423  13.676  21.028  0.00  0.00    +0.000 C 
BRANCH  30  31
ATOM     31  C   UNL     1      -1.835  15.045  20.639  0.00  0.00    +0.000 C 
ATOM     32  C   UNL     1      -2.518  16.222  21.340  0.00  0.00    +0.000 C 
ATOM     33  C   UNL     1      -0.341  15.062  20.986  0.00  0.00    +0.000 C 
ENDBRANCH  30  31
ENDBRANCH  26  30
ENDBRANCH  21  25
ENDBRANCH  18  21
ENDBRANCH   1  18
TORSDOF 8
ENDMDL
MODEL 4
REMARK VINA RESULT:      -8.3      3.345      9.569
REMARK  Name = 
REMARK  14 active torsions:
REMARK  status: ('A' for Active; 'I' for Inactive)
REMARK    1  A    between atoms: C_1  and  C_2
REMARK    2  A    between atoms: C_3  and  N_4
REMARK    3  A    between atoms: N_4  and  S_5
REMARK    4  A    between atoms: S_5  and  C_8
REMARK    5  A    between atoms: C_11  and  C_12
REMARK    6  A    between atoms: C_16  and  C_17
REMARK    7  A    between atoms: C_17  and  N_18
REMARK    8  A    between atoms: N_18  and  C_19
REMARK    9  A    between atoms: N_18  and  C_20
REMARK   10  A    between atoms: C_25  and  C_26
REMARK   11  A    between atoms: C_26  and  C_27
REMARK   12  A    between atoms: C_27  and  C_28
REMARK   13  A    between atoms: C_27  and  C_29
REMARK   14  A    between atoms: N_31  and  C_32
REMARK                            x       y       z     vdW  Elec       q    Type
REMARK                         _______ _______ _______ _____ _____    ______ ____
ROOT
ATOM      1  C   UNL     1       3.175   5.399  18.615  0.00  0.00    +0.000 A 
ATOM      2  C   UNL     1       2.629   5.168  19.875  0.00  0.00    +0.000 A 
ATOM      3  C   UNL     1       1.980   6.209  20.539  0.00  0.00    +0.000 A 
ATOM      4  C   UNL     1       1.853   7.494  19.973  0.00  0.00    +0.000 A 
ATOM      5  C   UNL     1       2.453   7.702  18.716  0.00  0.00    +0.000 A 
ATOM      6  C   UNL     1       3.123   6.670  18.046  0.00  0.00    +0.000 A 
ENDROOT
BRANCH   4   7
ATOM      7  C   UNL     1       1.142   8.579  20.699  0.00  0.00    +0.000 A 
ATOM      8  C   UNL     1       1.079   8.610  22.104  0.00  0.00    +0.000 A 
ATOM      9  C   UNL     1       0.340   9.588  22.781  0.00  0.00    +0.000 A 
ATOM     10  C   UNL     1      -0.387  10.539  22.068  0.00  0.00    +0.000 A 
ATOM     11  C   UNL     1      -0.349  10.547  20.670  0.00  0.00    +0.000 A 
ATOM     12  C   UNL     1       0.444   9.596  20.015  0.00  0.00    +0.000 A 
ATOM     13  F   UNL     1       0.520   9.669  18.674  0.00  0.00    +0.000 F 
BRANCH  11  14
ATOM     14  C   UNL     1      -1.219  11.478  19.858  0.00  0.00    +0.000 C 
BRANCH  14  15
ATOM     15  N   UNL     1      -0.687  12.842  19.703  0.00  0.00    +0.000 NA
ATOM     16  C   UNL     1      -0.481  13.175  18.291  0.00  0.00    +0.000 C 
ATOM     17  C   UNL     1      -1.635  13.796  20.292  0.00  0.00    +0.000 C 
ENDBRANCH  14  15
ENDBRANCH  11  14
ENDBRANCH   4   7
BRANCH   1  18
ATOM     18  S   UNL     1       3.916   4.053  17.730  0.00  0.00    +0.000 S 
ATOM     19  O   UNL     1       2.975   2.958  17.693  0.00  0.00    +0.000 OA
ATOM     20  O   UNL     1       5.265   3.881  18.229  0.00  0.00    +0.000 OA
BRANCH  18  21
ATOM     21  N   UNL     1       4.085   4.761  16.190  0.00  0.00    +0.000 N 
ATOM     22  H   UNL     1       3.513   5.602  16.209  0.00  0.00    +0.000 HD
BRANCH  21  25
ATOM     23  C   UNL     1       5.149   3.636  13.412  0.00  0.00    +0.000 C 
ATOM     24  C   UNL     1       5.814   4.468  14.446  0.00  0.00    +0.000 A 
ATOM     25  C   UNL     1       5.370   4.943  15.661  0.00  0.00    +0.000 A 
ATOM     26  C   UNL     1       6.424   5.759  16.157  0.00  0.00    +0.000 A 
ATOM     27  N   UNL     1       7.461   5.777  15.307  0.00  0.00    +0.000 NA
ATOM     28  N   UNL     1       7.072   4.989  14.291  0.00  0.00    +0.000 N 
ATOM     29  C   UNL     1       7.935   4.850  13.140  0.00  0.00    +0.000 C 
BRANCH  26  30
ATOM     30  C   UNL     1       6.479   6.619  17.381  0.00  0.00    +0.000 C 
BRANCH  30  31
ATOM     31  C   UNL     1       7.867   6.799  18.024  0.00  0.00    +0.000 C 
ATOM     32  C   UNL     1       8.225   8.262  18.299  0.00  0.00    +0.000 C 
ATOM     33  C   UNL     1       7.908   6.022  19.346  0.00  0.00    +0.000 C 
ENDBRANCH  30  31
ENDBRANCH  26  30
ENDBRANCH  21  25
ENDBRANCH  18  21
ENDBRANCH   1  18
TORSDOF 8
ENDMDL
MODEL 5
REMARK VINA RESULT:      -8.3      0.871      2.840
REMARK  Name = 
REMARK  14 active torsions:
REMARK  status: ('A' for Active; 'I' for Inactive)
REMARK    1  A    between atoms: C_1  and  C_2
REMARK    2  A    between atoms: C_3  and  N_4
REMARK    3  A    between atoms: N_4  and  S_5
REMARK    4  A    between atoms: S_5  and  C_8
REMARK    5  A    between atoms: C_11  and  C_12
REMARK    6  A    between atoms: C_16  and  C_17
REMARK    7  A    between atoms: C_17  and  N_18
REMARK    8  A    between atoms: N_18  and  C_19
REMARK    9  A    between atoms: N_18  and  C_20
REMARK   10  A    between atoms: C_25  and  C_26
REMARK   11  A    between atoms: C_26  and  C_27
REMARK   12  A    between atoms: C_27  and  C_28
REMARK   13  A    between atoms: C_27  and  C_29
REMARK   14  A    between atoms: N_31  and  C_32
REMARK                            x       y       z     vdW  Elec       q    Type
REMARK                         _______ _______ _______ _____ _____    ______ ____
ROOT
ATOM      1  C   UNL     1       1.104   9.403  19.981  0.00  0.00    +0.000 A 
ATOM      2  C   UNL     1       1.489   8.260  20.676  0.00  0.00    +0.000 A 
ATOM      3  C   UNL     1       2.111   7.218  19.987  0.00  0.00    +0.000 A 
ATOM      4  C   UNL     1       2.370   7.286  18.603  0.00  0.00    +0.000 A 
ATOM      5  C   UNL     1       1.929   8.440  17.925  0.00  0.00    +0.000 A 
ATOM      6  C   UNL     1       1.288   9.485  18.602  0.00  0.00    +0.000 A 
ENDROOT
BRANCH   4   7
ATOM      7  C   UNL     1       3.049   6.166  17.899  0.00  0.00    +0.000 A 
ATOM      8  C   UNL     1       2.595   4.840  18.011  0.00  0.00    +0.000 A 
ATOM      9  C   UNL     1       3.285   3.778  17.413  0.00  0.00    +0.000 A 
ATOM     10  C   UNL     1       4.469   4.012  16.717  0.00  0.00    +0.000 A 
ATOM     11  C   UNL     1       4.954   5.317  16.578  0.00  0.00    +0.000 A 
ATOM     12  C   UNL     1       4.216   6.371  17.134  0.00  0.00    +0.000 A 
ATOM     13  F   UNL     1       4.665   7.621  16.925  0.00  0.00    +0.000 F 
BRANCH  11  14
ATOM     14  C   UNL     1       6.295   5.601  15.943  0.00  0.00    +0.000 C 
BRANCH  14  15
ATOM     15  N   UNL     1       7.424   5.661  16.886  0.00  0.00    +0.000 NA
ATOM     16  C   UNL     1       7.510   6.976  17.529  0.00  0.00    +0.000 C 
ATOM     17  C   UNL     1       7.244   4.630  17.915  0.00  0.00    +0.000 C 
ENDBRANCH  14  15
ENDBRANCH  11  14
ENDBRANCH   4   7
BRANCH   1  18
ATOM     18  S   UNL     1       0.401  10.765  20.872  0.00  0.00    +0.000 S 
ATOM     19  O   UNL     1       1.477  11.559  21.417  0.00  0.00    +0.000 OA
ATOM     20  O   UNL     1      -0.663  10.247  21.709  0.00  0.00    +0.000 OA
BRANCH  18  21
ATOM     21  N   UNL     1      -0.378  11.587  19.600  0.00  0.00    +0.000 N 
ATOM     22  H   UNL     1      -0.203  11.034  18.765  0.00  0.00    +0.000 HD
BRANCH  21  25
ATOM     23  C   UNL     1      -1.409  13.998  21.401  0.00  0.00    +0.000 C 
ATOM     24  C   UNL     1      -2.145  13.048  20.530  0.00  0.00    +0.000 A 
ATOM     25  C   UNL     1      -1.712  11.988  19.763  0.00  0.00    +0.000 A 
ATOM     26  C   UNL     1      -2.867  11.517  19.081  0.00  0.00    +0.000 A 
ATOM     27  N   UNL     1      -3.950  12.234  19.415  0.00  0.00    +0.000 NA
ATOM     28  N   UNL     1      -3.491  13.142  20.291  0.00  0.00    +0.000 N 
ATOM     29  C   UNL     1      -4.396  14.147  20.800  0.00  0.00    +0.000 C 
BRANCH  26  30
ATOM     30  C   UNL     1      -2.999  10.456  18.034  0.00  0.00    +0.000 C 
BRANCH  30  31
ATOM     31  C   UNL     1      -3.035  10.942  16.573  0.00  0.00    +0.000 C 
ATOM     32  C   UNL     1      -2.619   9.869  15.564  0.00  0.00    +0.000 C 
ATOM     33  C   UNL     1      -4.458  11.410  16.239  0.00  0.00    +0.000 C 
ENDBRANCH  30  31
ENDBRANCH  26  30
ENDBRANCH  21  25
ENDBRANCH  18  21
ENDBRANCH   1  18
TORSDOF 8
ENDMDL
MODEL 6
REMARK VINA RESULT:      -8.3      1.065      2.714
REMARK  Name = 
REMARK  14 active torsions:
REMARK  status: ('A' for Active; 'I' for Inactive)
REMARK    1  A    between atoms: C_1  and  C_2
REMARK    2  A    between atoms: C_3  and  N_4
REMARK    3  A    between atoms: N_4  and  S_5
REMARK    4  A    between atoms: S_5  and  C_8
REMARK    5  A    between atoms: C_11  and  C_12
REMARK    6  A    between atoms: C_16  and  C_17
REMARK    7  A    between atoms: C_17  and  N_18
REMARK    8  A    between atoms: N_18  and  C_19
REMARK    9  A    between atoms: N_18  and  C_20
REMARK   10  A    between atoms: C_25  and  C_26
REMARK   11  A    between atoms: C_26  and  C_27
REMARK   12  A    between atoms: C_27  and  C_28
REMARK   13  A    between atoms: C_27  and  C_29
REMARK   14  A    between atoms: N_31  and  C_32
REMARK                            x       y       z     vdW  Elec       q    Type
REMARK                         _______ _______ _______ _____ _____    ______ ____
ROOT
ATOM      1  C   UNL     1       1.214   8.915  20.444  0.00  0.00    +0.000 A 
ATOM      2  C   UNL     1       1.544   7.672  20.976  0.00  0.00    +0.000 A 
ATOM      3  C   UNL     1       2.151   6.719  20.157  0.00  0.00    +0.000 A 
ATOM      4  C   UNL     1       2.449   6.976  18.803  0.00  0.00    +0.000 A 
ATOM      5  C   UNL     1       2.063   8.229  18.290  0.00  0.00    +0.000 A 
ATOM      6  C   UNL     1       1.438   9.189  19.096  0.00  0.00    +0.000 A 
ENDROOT
BRANCH   4   7
ATOM      7  C   UNL     1       3.111   5.946  17.960  0.00  0.00    +0.000 A 
ATOM      8  C   UNL     1       2.669   4.610  17.942  0.00  0.00    +0.000 A 
ATOM      9  C   UNL     1       3.345   3.627  17.210  0.00  0.00    +0.000 A 
ATOM     10  C   UNL     1       4.504   3.946  16.506  0.00  0.00    +0.000 A 
ATOM     11  C   UNL     1       4.976   5.263  16.494  0.00  0.00    +0.000 A 
ATOM     12  C   UNL     1       4.250   6.243  17.185  0.00  0.00    +0.000 A 
ATOM     13  F   UNL     1       4.685   7.512  17.099  0.00  0.00    +0.000 F 
BRANCH  11  14
ATOM     14  C   UNL     1       6.293   5.628  15.850  0.00  0.00    +0.000 C 
BRANCH  14  15
ATOM     15  N   UNL     1       7.446   5.641  16.767  0.00  0.00    +0.000 NA
ATOM     16  C   UNL     1       7.576   6.938  17.437  0.00  0.00    +0.000 C 
ATOM     17  C   UNL     1       7.266   4.591  17.777  0.00  0.00    +0.000 C 
ENDBRANCH  14  15
ENDBRANCH  11  14
ENDBRANCH   4   7
BRANCH   1  18
ATOM     18  S   UNL     1       0.530  10.159  21.508  0.00  0.00    +0.000 S 
ATOM     19  O   UNL     1       1.312  11.365  21.362  0.00  0.00    +0.000 OA
ATOM     20  O   UNL     1       0.296   9.556  22.804  0.00  0.00    +0.000 OA
BRANCH  18  21
ATOM     21  N   UNL     1      -1.010  10.344  20.804  0.00  0.00    +0.000 N 
ATOM     22  H   UNL     1      -1.597   9.635  21.237  0.00  0.00    +0.000 HD
BRANCH  21  25
ATOM     23  C   UNL     1      -2.127  12.014  23.270  0.00  0.00    +0.000 C 
ATOM     24  C   UNL     1      -2.047  12.344  21.825  0.00  0.00    +0.000 A 
ATOM     25  C   UNL     1      -1.585  11.621  20.747  0.00  0.00    +0.000 A 
ATOM     26  C   UNL     1      -1.678  12.500  19.633  0.00  0.00    +0.000 A 
ATOM     27  N   UNL     1      -2.179  13.689  19.998  0.00  0.00    +0.000 NA
ATOM     28  N   UNL     1      -2.398  13.567  21.318  0.00  0.00    +0.000 N 
ATOM     29  C   UNL     1      -2.868  14.714  22.060  0.00  0.00    +0.000 C 
BRANCH  26  30
ATOM     30  C   UNL     1      -1.228  12.310  18.218  0.00  0.00    +0.000 C 
BRANCH  30  31
ATOM     31  C   UNL     1      -2.120  11.416  17.336  0.00  0.00    +0.000 C 
ATOM     32  C   UNL     1      -1.666   9.955  17.296  0.00  0.00    +0.000 C 
ATOM     33  C   UNL     1      -3.559  11.472  17.864  0.00  0.00    +0.000 C 
ENDBRANCH  30  31
ENDBRANCH  26  30
ENDBRANCH  21  25
ENDBRANCH  18  21
ENDBRANCH   1  18
TORSDOF 8
ENDMDL
MODEL 7
REMARK VINA RESULT:      -8.3      1.832      2.648
REMARK  Name = 
REMARK  14 active torsions:
REMARK  status: ('A' for Active; 'I' for Inactive)
REMARK    1  A    between atoms: C_1  and  C_2
REMARK    2  A    between atoms: C_3  and  N_4
REMARK    3  A    between atoms: N_4  and  S_5
REMARK    4  A    between atoms: S_5  and  C_8
REMARK    5  A    between atoms: C_11  and  C_12
REMARK    6  A    between atoms: C_16  and  C_17
REMARK    7  A    between atoms: C_17  and  N_18
REMARK    8  A    between atoms: N_18  and  C_19
REMARK    9  A    between atoms: N_18  and  C_20
REMARK   10  A    between atoms: C_25  and  C_26
REMARK   11  A    between atoms: C_26  and  C_27
REMARK   12  A    between atoms: C_27  and  C_28
REMARK   13  A    between atoms: C_27  and  C_29
REMARK   14  A    between atoms: N_31  and  C_32
REMARK                            x       y       z     vdW  Elec       q    Type
REMARK                         _______ _______ _______ _____ _____    ______ ____
ROOT
ATOM      1  C   UNL     1       1.149   9.961  19.366  0.00  0.00    +0.000 A 
ATOM      2  C   UNL     1       1.312   8.852  20.193  0.00  0.00    +0.000 A 
ATOM      3  C   UNL     1       2.004   7.739  19.713  0.00  0.00    +0.000 A 
ATOM      4  C   UNL     1       2.552   7.701  18.415  0.00  0.00    +0.000 A 
ATOM      5  C   UNL     1       2.331   8.823  17.593  0.00  0.00    +0.000 A 
ATOM      6  C   UNL     1       1.624   9.940  18.056  0.00  0.00    +0.000 A 
ENDROOT
BRANCH   4   7
ATOM      7  C   UNL     1       3.298   6.506  17.938  0.00  0.00    +0.000 A 
ATOM      8  C   UNL     1       4.565   6.617  17.337  0.00  0.00    +0.000 A 
ATOM      9  C   UNL     1       5.227   5.500  16.817  0.00  0.00    +0.000 A 
ATOM     10  C   UNL     1       4.623   4.245  16.850  0.00  0.00    +0.000 A 
ATOM     11  C   UNL     1       3.365   4.089  17.442  0.00  0.00    +0.000 A 
ATOM     12  C   UNL     1       2.746   5.210  18.010  0.00  0.00    +0.000 A 
ATOM     13  F   UNL     1       1.571   5.021  18.635  0.00  0.00    +0.000 F 
BRANCH  11  14
ATOM     14  C   UNL     1       2.621   2.775  17.388  0.00  0.00    +0.000 C 
BRANCH  14  15
ATOM     15  N   UNL     1       2.792   1.919  18.574  0.00  0.00    +0.000 NA
ATOM     16  C   UNL     1       3.942   2.347  19.376  0.00  0.00    +0.000 C 
ATOM     17  C   UNL     1       1.577   1.989  19.395  0.00  0.00    +0.000 C 
ENDBRANCH  14  15
ENDBRANCH  11  14
ENDBRANCH   4   7
BRANCH   1  18
ATOM     18  S   UNL     1       0.354  11.411  20.006  0.00  0.00    +0.000 S 
ATOM     19  O   UNL     1       0.389  12.437  18.992  0.00  0.00    +0.000 OA
ATOM     20  O   UNL     1       0.863  11.643  21.343  0.00  0.00    +0.000 OA
BRANCH  18  21
ATOM     21  N   UNL     1      -1.229  10.818  20.217  0.00  0.00    +0.000 N 
ATOM     22  H   UNL     1      -1.418  10.884  21.214  0.00  0.00    +0.000 HD
BRANCH  21  25
ATOM     23  C   UNL     1      -1.832   9.919  17.227  0.00  0.00    +0.000 C 
ATOM     24  C   UNL     1      -2.520  10.895  18.109  0.00  0.00    +0.000 A 
ATOM     25  C   UNL     1      -2.255  11.307  19.397  0.00  0.00    +0.000 A 
ATOM     26  C   UNL     1      -3.316  12.189  19.738  0.00  0.00    +0.000 A 
ATOM     27  N   UNL     1      -4.178  12.324  18.719  0.00  0.00    +0.000 NA
ATOM     28  N   UNL     1      -3.673  11.542  17.751  0.00  0.00    +0.000 N 
ATOM     29  C   UNL     1      -4.411  11.387  16.518  0.00  0.00    +0.000 C 
BRANCH  26  30
ATOM     30  C   UNL     1      -3.624  12.865  21.038  0.00  0.00    +0.000 C 
BRANCH  30  31
ATOM     31  C   UNL     1      -2.420  13.159  21.953  0.00  0.00    +0.000 C 
ATOM     32  C   UNL     1      -2.331  14.623  22.389  0.00  0.00    +0.000 C 
ATOM     33  C   UNL     1      -2.520  12.275  23.204  0.00  0.00    +0.000 C 
ENDBRANCH  30  31
ENDBRANCH  26  30
ENDBRANCH  21  25
ENDBRANCH  18  21
ENDBRANCH   1  18
TORSDOF 8
ENDMDL
MODEL 8
REMARK VINA RESULT:      -8.2      1.080      1.534
REMARK  Name = 
REMARK  14 active torsions:
REMARK  status: ('A' for Active; 'I' for Inactive)
REMARK    1  A    between atoms: C_1  and  C_2
REMARK    2  A    between atoms: C_3  and  N_4
REMARK    3  A    between atoms: N_4  and  S_5
REMARK    4  A    between atoms: S_5  and  C_8
REMARK    5  A    between atoms: C_11  and  C_12
REMARK    6  A    between atoms: C_16  and  C_17
REMARK    7  A    between atoms: C_17  and  N_18
REMARK    8  A    between atoms: N_18  and  C_19
REMARK    9  A    between atoms: N_18  and  C_20
REMARK   10  A    between atoms: C_25  and  C_26
REMARK   11  A    between atoms: C_26  and  C_27
REMARK   12  A    between atoms: C_27  and  C_28
REMARK   13  A    between atoms: C_27  and  C_29
REMARK   14  A    between atoms: N_31  and  C_32
REMARK                            x       y       z     vdW  Elec       q    Type
REMARK                         _______ _______ _______ _____ _____    ______ ____
ROOT
ATOM      1  C   UNL     1       1.262  10.074  19.377  0.00  0.00    +0.000 A 
ATOM      2  C   UNL     1       1.712   9.959  18.064  0.00  0.00    +0.000 A 
ATOM      3  C   UNL     1       2.222   8.738  17.622  0.00  0.00    +0.000 A 
ATOM      4  C   UNL     1       2.292   7.607  18.462  0.00  0.00    +0.000 A 
ATOM      5  C   UNL     1       1.865   7.772  19.794  0.00  0.00    +0.000 A 
ATOM      6  C   UNL     1       1.367   8.997  20.256  0.00  0.00    +0.000 A 
ENDROOT
BRANCH   4   7
ATOM      7  C   UNL     1       2.825   6.315  17.957  0.00  0.00    +0.000 A 
ATOM      8  C   UNL     1       2.076   5.127  18.030  0.00  0.00    +0.000 A 
ATOM      9  C   UNL     1       2.613   3.898  17.628  0.00  0.00    +0.000 A 
ATOM     10  C   UNL     1       3.929   3.819  17.176  0.00  0.00    +0.000 A 
ATOM     11  C   UNL     1       4.708   4.977  17.084  0.00  0.00    +0.000 A 
ATOM     12  C   UNL     1       4.131   6.205  17.435  0.00  0.00    +0.000 A 
ATOM     13  F   UNL     1       4.877   7.311  17.270  0.00  0.00    +0.000 F 
BRANCH  11  14
ATOM     14  C   UNL     1       6.174   4.920  16.721  0.00  0.00    +0.000 C 
BRANCH  14  15
ATOM     15  N   UNL     1       7.097   5.028  17.864  0.00  0.00    +0.000 NA
ATOM     16  C   UNL     1       7.677   6.371  17.953  0.00  0.00    +0.000 C 
ATOM     17  C   UNL     1       6.363   4.735  19.101  0.00  0.00    +0.000 C 
ENDBRANCH  14  15
ENDBRANCH  11  14
ENDBRANCH   4   7
BRANCH   1  18
ATOM     18  S   UNL     1       0.526  11.596  19.911  0.00  0.00    +0.000 S 
ATOM     19  O   UNL     1       0.496  12.507  18.791  0.00  0.00    +0.000 OA
ATOM     20  O   UNL     1       1.132  11.963  21.175  0.00  0.00    +0.000 OA
BRANCH  18  21
ATOM     21  N   UNL     1      -1.042  11.054  20.297  0.00  0.00    +0.000 N 
ATOM     22  H   UNL     1      -1.143  11.194  21.299  0.00  0.00    +0.000 HD
BRANCH  21  25
ATOM     23  C   UNL     1      -2.000   9.865  17.507  0.00  0.00    +0.000 C 
ATOM     24  C   UNL     1      -2.545  10.970  18.334  0.00  0.00    +0.000 A 
ATOM     25  C   UNL     1      -2.127  11.506  19.533  0.00  0.00    +0.000 A 
ATOM     26  C   UNL     1      -3.105  12.479  19.875  0.00  0.00    +0.000 A 
ATOM     27  N   UNL     1      -4.063  12.549  18.939  0.00  0.00    +0.000 NA
ATOM     28  N   UNL     1      -3.701  11.638  18.022  0.00  0.00    +0.000 N 
ATOM     29  C   UNL     1      -4.571  11.389  16.896  0.00  0.00    +0.000 C 
BRANCH  26  30
ATOM     30  C   UNL     1      -3.241  13.312  21.112  0.00  0.00    +0.000 C 
BRANCH  30  31
ATOM     31  C   UNL     1      -3.901  12.626  22.323  0.00  0.00    +0.000 C 
ATOM     32  C   UNL     1      -2.897  12.163  23.381  0.00  0.00    +0.000 C 
ATOM     33  C   UNL     1      -4.888  13.606  22.972  0.00  0.00    +0.000 C 
ENDBRANCH  30  31
ENDBRANCH  26  30
ENDBRANCH  21  25
ENDBRANCH  18  21
ENDBRANCH   1  18
TORSDOF 8
ENDMDL
MODEL 9
REMARK VINA RESULT:      -8.2      1.887      3.839
REMARK  Name = 
REMARK  14 active torsions:
REMARK  status: ('A' for Active; 'I' for Inactive)
REMARK    1  A    between atoms: C_1  and  C_2
REMARK    2  A    between atoms: C_3  and  N_4
REMARK    3  A    between atoms: N_4  and  S_5
REMARK    4  A    between atoms: S_5  and  C_8
REMARK    5  A    between atoms: C_11  and  C_12
REMARK    6  A    between atoms: C_16  and  C_17
REMARK    7  A    between atoms: C_17  and  N_18
REMARK    8  A    between atoms: N_18  and  C_19
REMARK    9  A    between atoms: N_18  and  C_20
REMARK   10  A    between atoms: C_25  and  C_26
REMARK   11  A    between atoms: C_26  and  C_27
REMARK   12  A    between atoms: C_27  and  C_28
REMARK   13  A    between atoms: C_27  and  C_29
REMARK   14  A    between atoms: N_31  and  C_32
REMARK                            x       y       z     vdW  Elec       q    Type
REMARK                         _______ _______ _______ _____ _____    ______ ____
ROOT
ATOM      1  C   UNL     1       0.859  10.046  20.032  0.00  0.00    +0.000 A 
ATOM      2  C   UNL     1       1.211   8.900  20.741  0.00  0.00    +0.000 A 
ATOM      3  C   UNL     1       1.917   7.886  20.093  0.00  0.00    +0.000 A 
ATOM      4  C   UNL     1       2.296   7.985  18.739  0.00  0.00    +0.000 A 
ATOM      5  C   UNL     1       1.888   9.140  18.043  0.00  0.00    +0.000 A 
ATOM      6  C   UNL     1       1.163  10.157  18.676  0.00  0.00    +0.000 A 
ENDROOT
BRANCH   4   7
ATOM      7  C   UNL     1       3.063   6.895  18.081  0.00  0.00    +0.000 A 
ATOM      8  C   UNL     1       4.196   7.161  17.291  0.00  0.00    +0.000 A 
ATOM      9  C   UNL     1       4.866   6.140  16.607  0.00  0.00    +0.000 A 
ATOM     10  C   UNL     1       4.398   4.828  16.666  0.00  0.00    +0.000 A 
ATOM     11  C   UNL     1       3.277   4.519  17.443  0.00  0.00    +0.000 A 
ATOM     12  C   UNL     1       2.657   5.547  18.167  0.00  0.00    +0.000 A 
ATOM     13  F   UNL     1       1.626   5.211  18.962  0.00  0.00    +0.000 F 
BRANCH  11  14
ATOM     14  C   UNL     1       2.663   3.139  17.435  0.00  0.00    +0.000 C 
BRANCH  14  15
ATOM     15  N   UNL     1       2.798   2.396  18.700  0.00  0.00    +0.000 NA
ATOM     16  C   UNL     1       1.498   1.914  19.175  0.00  0.00    +0.000 C 
ATOM     17  C   UNL     1       3.690   1.249  18.488  0.00  0.00    +0.000 C 
ENDBRANCH  14  15
ENDBRANCH  11  14
ENDBRANCH   4   7
BRANCH   1  18
ATOM     18  S   UNL     1       0.046  11.375  20.878  0.00  0.00    +0.000 S 
ATOM     19  O   UNL     1       1.053  12.253  21.425  0.00  0.00    +0.000 OA
ATOM     20  O   UNL     1      -0.996  10.802  21.707  0.00  0.00    +0.000 OA
BRANCH  18  21
ATOM     21  N   UNL     1      -0.763  12.113  19.574  0.00  0.00    +0.000 N 
ATOM     22  H   UNL     1      -0.294  11.781  18.735  0.00  0.00    +0.000 HD
BRANCH  21  25
ATOM     23  C   UNL     1      -2.782  13.988  21.161  0.00  0.00    +0.000 C 
ATOM     24  C   UNL     1      -3.028  12.888  20.196  0.00  0.00    +0.000 A 
ATOM     25  C   UNL     1      -2.162  12.056  19.519  0.00  0.00    +0.000 A 
ATOM     26  C   UNL     1      -2.983  11.267  18.668  0.00  0.00    +0.000 A 
ATOM     27  N   UNL     1      -4.278  11.582  18.818  0.00  0.00    +0.000 NA
ATOM     28  N   UNL     1      -4.278  12.553  19.746  0.00  0.00    +0.000 N 
ATOM     29  C   UNL     1      -5.527  13.192  20.094  0.00  0.00    +0.000 C 
BRANCH  26  30
ATOM     30  C   UNL     1      -2.601  10.263  17.625  0.00  0.00    +0.000 C 
BRANCH  30  31
ATOM     31  C   UNL     1      -3.518  10.184  16.390  0.00  0.00    +0.000 C 
ATOM     32  C   UNL     1      -4.201  11.511  16.053  0.00  0.00    +0.000 C 
ATOM     33  C   UNL     1      -2.686   9.735  15.181  0.00  0.00    +0.000 C 
ENDBRANCH  30  31
ENDBRANCH  26  30
ENDBRANCH  21  25
ENDBRANCH  18  21
ENDBRANCH   1  18
TORSDOF 8
ENDMDL
