MODEL 1
REMARK VINA RESULT:      -6.9      0.000      0.000
REMARK  Name = 
REMARK  10 active torsions:
REMARK  status: ('A' for Active; 'I' for Inactive)
REMARK    1  A    between atoms: C_1  and  C_2
REMARK    2  A    between atoms: C_4  and  C_5
REMARK    3  A    between atoms: C_6  and  N_7
REMARK    4  A    between atoms: C_8  and  S_9
REMARK    5  A    between atoms: N_10  and  C_11
REMARK    6  A    between atoms: N_10  and  C_19
REMARK    7  A    between atoms: C_11  and  C_12
REMARK    8  A    between atoms: C_12  and  N_13
REMARK    9  A    between atoms: C_19  and  C_20
REMARK   10  A    between atoms: C_25  and  C_26
REMARK                            x       y       z     vdW  Elec       q    Type
REMARK                         _______ _______ _______ _____ _____    ______ ____
ROOT
ATOM      1  N   UNL     1       4.037   5.664  18.643  0.00  0.00    +0.000 NA
ATOM      2  C   UNL     1       3.177   6.646  18.715  0.00  0.00    +0.000 C 
ATOM      3  N   UNL     1       2.528   6.933  19.928  0.00  0.00    +0.000 N 
ENDROOT
BRANCH   1   9
ATOM      4  C   UNL     1       6.813   4.152  13.839  0.00  0.00    +0.000 C 
ATOM      5  C   UNL     1       6.098   4.519  15.107  0.00  0.00    +0.000 A 
ATOM      6  C   UNL     1       4.941   3.858  15.504  0.00  0.00    +0.000 A 
ATOM      7  C   UNL     1       4.255   4.236  16.681  0.00  0.00    +0.000 A 
ATOM      8  C   UNL     1       2.969   3.529  17.010  0.00  0.00    +0.000 C 
ATOM      9  C   UNL     1       4.760   5.276  17.498  0.00  0.00    +0.000 A 
ATOM     10  C   UNL     1       5.895   5.986  17.049  0.00  0.00    +0.000 A 
ATOM     11  C   UNL     1       6.425   7.210  17.745  0.00  0.00    +0.000 C 
ATOM     12  C   UNL     1       6.580   5.562  15.894  0.00  0.00    +0.000 A 
ENDBRANCH   1   9
BRANCH   2  13
ATOM     13  S   UNL     1       2.768   7.688  17.328  0.00  0.00    +0.000 S 
ATOM     14  H   UNL     1       3.255   8.844  17.775  0.00  0.00    +0.000 HD
ENDBRANCH   2  13
BRANCH   3  15
ATOM     15  C   UNL     1       1.568   8.049  20.086  0.00  0.00    +0.000 C 
BRANCH  15  16
ATOM     16  C   UNL     1       0.655   7.982  21.331  0.00  0.00    +0.000 C 
BRANCH  16  17
ATOM     17  N   UNL     1      -0.255   9.146  21.504  0.00  0.00    +0.000 NA
ATOM     18  C   UNL     1      -0.164   9.631  22.894  0.00  0.00    +0.000 C 
ATOM     19  C   UNL     1      -1.134  10.785  23.153  0.00  0.00    +0.000 C 
ATOM     20  C   UNL     1      -0.904  11.933  22.179  0.00  0.00    +0.000 C 
ATOM     21  C   UNL     1      -0.941  11.416  20.750  0.00  0.00    +0.000 C 
ATOM     22  C   UNL     1       0.019  10.241  20.556  0.00  0.00    +0.000 C 
ENDBRANCH  16  17
ENDBRANCH  15  16
ENDBRANCH   3  15
BRANCH   3  23
ATOM     23  C   UNL     1       2.625   5.970  21.044  0.00  0.00    +0.000 C 
BRANCH  23  24
ATOM     24  C   UNL     1       1.921   4.660  20.891  0.00  0.00    +0.000 A 
ATOM     25  C   UNL     1       1.036   4.155  19.958  0.00  0.00    +0.000 A 
ATOM     26  C   UNL     1       0.829   2.786  20.294  0.00  0.00    +0.000 A 
ATOM     27  C   UNL     1       1.590   2.553  21.415  0.00  0.00    +0.000 A 
ATOM     28  O   UNL     1       2.246   3.682  21.789  0.00  0.00    +0.000 OA
ENDBRANCH  23  24
ENDBRANCH   3  23
TORSDOF 7
ENDMDL
MODEL 2
REMARK VINA RESULT:      -6.8      0.343      1.001
REMARK  Name = 
REMARK  10 active torsions:
REMARK  status: ('A' for Active; 'I' for Inactive)
REMARK    1  A    between atoms: C_1  and  C_2
REMARK    2  A    between atoms: C_4  and  C_5
REMARK    3  A    between atoms: C_6  and  N_7
REMARK    4  A    between atoms: C_8  and  S_9
REMARK    5  A    between atoms: N_10  and  C_11
REMARK    6  A    between atoms: N_10  and  C_19
REMARK    7  A    between atoms: C_11  and  C_12
REMARK    8  A    between atoms: C_12  and  N_13
REMARK    9  A    between atoms: C_19  and  C_20
REMARK   10  A    between atoms: C_25  and  C_26
REMARK                            x       y       z     vdW  Elec       q    Type
REMARK                         _______ _______ _______ _____ _____    ______ ____
ROOT
ATOM      1  N   UNL     1       3.971   5.689  18.688  0.00  0.00    +0.000 NA
ATOM      2  C   UNL     1       3.113   6.674  18.754  0.00  0.00    +0.000 C 
ATOM      3  N   UNL     1       2.464   6.970  19.964  0.00  0.00    +0.000 N 
ENDROOT
BRANCH   1   9
ATOM      4  C   UNL     1       6.747   4.136  13.898  0.00  0.00    +0.000 C 
ATOM      5  C   UNL     1       6.033   4.514  15.163  0.00  0.00    +0.000 A 
ATOM      6  C   UNL     1       4.891   3.839  15.580  0.00  0.00    +0.000 A 
ATOM      7  C   UNL     1       4.205   4.228  16.753  0.00  0.00    +0.000 A 
ATOM      8  C   UNL     1       2.934   3.503  17.105  0.00  0.00    +0.000 C 
ATOM      9  C   UNL     1       4.694   5.293  17.547  0.00  0.00    +0.000 A 
ATOM     10  C   UNL     1       5.814   6.015  17.076  0.00  0.00    +0.000 A 
ATOM     11  C   UNL     1       6.324   7.263  17.746  0.00  0.00    +0.000 C 
ATOM     12  C   UNL     1       6.499   5.582  15.926  0.00  0.00    +0.000 A 
ENDBRANCH   1   9
BRANCH   2  13
ATOM     13  S   UNL     1       2.708   7.707  17.360  0.00  0.00    +0.000 S 
ATOM     14  H   UNL     1       3.912   8.222  17.116  0.00  0.00    +0.000 HD
ENDBRANCH   2  13
BRANCH   3  15
ATOM     15  C   UNL     1       1.506   8.089  20.114  0.00  0.00    +0.000 C 
BRANCH  15  16
ATOM     16  C   UNL     1       1.077   8.419  21.562  0.00  0.00    +0.000 C 
BRANCH  16  17
ATOM     17  N   UNL     1       0.530   9.789  21.755  0.00  0.00    +0.000 NA
ATOM     18  C   UNL     1       0.018  10.295  20.467  0.00  0.00    +0.000 C 
ATOM     19  C   UNL     1      -0.491  11.732  20.587  0.00  0.00    +0.000 C 
ATOM     20  C   UNL     1      -1.562  11.853  21.663  0.00  0.00    +0.000 C 
ATOM     21  C   UNL     1      -1.048  11.278  22.973  0.00  0.00    +0.000 C 
ATOM     22  C   UNL     1      -0.517   9.855  22.789  0.00  0.00    +0.000 C 
ENDBRANCH  16  17
ENDBRANCH  15  16
ENDBRANCH   3  15
BRANCH   3  23
ATOM     23  C   UNL     1       2.558   6.014  21.086  0.00  0.00    +0.000 C 
BRANCH  23  24
ATOM     24  C   UNL     1       1.881   4.690  20.927  0.00  0.00    +0.000 A 
ATOM     25  C   UNL     1       0.939   4.200  20.042  0.00  0.00    +0.000 A 
ATOM     26  C   UNL     1       0.799   2.811  20.328  0.00  0.00    +0.000 A 
ATOM     27  C   UNL     1       1.652   2.552  21.373  0.00  0.00    +0.000 A 
ATOM     28  O   UNL     1       2.304   3.683  21.748  0.00  0.00    +0.000 OA
ENDBRANCH  23  24
ENDBRANCH   3  23
TORSDOF 7
ENDMDL
MODEL 3
REMARK VINA RESULT:      -6.8      0.482      1.968
REMARK  Name = 
REMARK  10 active torsions:
REMARK  status: ('A' for Active; 'I' for Inactive)
REMARK    1  A    between atoms: C_1  and  C_2
REMARK    2  A    between atoms: C_4  and  C_5
REMARK    3  A    between atoms: C_6  and  N_7
REMARK    4  A    between atoms: C_8  and  S_9
REMARK    5  A    between atoms: N_10  and  C_11
REMARK    6  A    between atoms: N_10  and  C_19
REMARK    7  A    between atoms: C_11  and  C_12
REMARK    8  A    between atoms: C_12  and  N_13
REMARK    9  A    between atoms: C_19  and  C_20
REMARK   10  A    between atoms: C_25  and  C_26
REMARK                            x       y       z     vdW  Elec       q    Type
REMARK                         _______ _______ _______ _____ _____    ______ ____
ROOT
ATOM      1  N   UNL     1       3.813   5.762  18.677  0.00  0.00    +0.000 NA
ATOM      2  C   UNL     1       2.976   6.755  18.828  0.00  0.00    +0.000 C 
ATOM      3  N   UNL     1       2.393   7.008  20.081  0.00  0.00    +0.000 N 
ENDROOT
BRANCH   1   9
ATOM      4  C   UNL     1       6.684   4.239  13.933  0.00  0.00    +0.000 C 
ATOM      5  C   UNL     1       5.924   4.664  15.156  0.00  0.00    +0.000 A 
ATOM      6  C   UNL     1       6.357   5.723  15.947  0.00  0.00    +0.000 A 
ATOM      7  C   UNL     1       5.655   6.091  17.117  0.00  0.00    +0.000 A 
ATOM      8  C   UNL     1       6.221   7.197  17.966  0.00  0.00    +0.000 C 
ATOM      9  C   UNL     1       4.472   5.405  17.485  0.00  0.00    +0.000 A 
ATOM     10  C   UNL     1       4.082   4.288  16.714  0.00  0.00    +0.000 A 
ATOM     11  C   UNL     1       2.940   3.386  17.098  0.00  0.00    +0.000 C 
ATOM     12  C   UNL     1       4.778   3.969  15.532  0.00  0.00    +0.000 A 
ENDBRANCH   1   9
BRANCH   2  13
ATOM     13  S   UNL     1       2.521   7.855  17.502  0.00  0.00    +0.000 S 
ATOM     14  H   UNL     1       2.528   6.988  16.490  0.00  0.00    +0.000 HD
ENDBRANCH   2  13
BRANCH   3  15
ATOM     15  C   UNL     1       1.463   8.134  20.326  0.00  0.00    +0.000 C 
BRANCH  15  16
ATOM     16  C   UNL     1       1.394   8.646  21.783  0.00  0.00    +0.000 C 
BRANCH  16  17
ATOM     17  N   UNL     1       0.745   9.973  21.950  0.00  0.00    +0.000 NA
ATOM     18  C   UNL     1       0.438  10.535  20.620  0.00  0.00    +0.000 C 
ATOM     19  C   UNL     1      -0.166  11.936  20.726  0.00  0.00    +0.000 C 
ATOM     20  C   UNL     1      -1.413  11.939  21.599  0.00  0.00    +0.000 C 
ATOM     21  C   UNL     1      -1.106  11.306  22.946  0.00  0.00    +0.000 C 
ATOM     22  C   UNL     1      -0.470   9.924  22.782  0.00  0.00    +0.000 C 
ENDBRANCH  16  17
ENDBRANCH  15  16
ENDBRANCH   3  15
BRANCH   3  23
ATOM     23  C   UNL     1       2.525   6.002  21.154  0.00  0.00    +0.000 C 
BRANCH  23  24
ATOM     24  C   UNL     1       1.857   4.680  20.951  0.00  0.00    +0.000 A 
ATOM     25  C   UNL     1       0.941   4.205  20.032  0.00  0.00    +0.000 A 
ATOM     26  C   UNL     1       0.797   2.810  20.287  0.00  0.00    +0.000 A 
ATOM     27  C   UNL     1       1.625   2.532  21.348  0.00  0.00    +0.000 A 
ATOM     28  O   UNL     1       2.263   3.658  21.762  0.00  0.00    +0.000 OA
ENDBRANCH  23  24
ENDBRANCH   3  23
TORSDOF 7
ENDMDL
MODEL 4
REMARK VINA RESULT:      -6.7      0.407      1.716
REMARK  Name = 
REMARK  10 active torsions:
REMARK  status: ('A' for Active; 'I' for Inactive)
REMARK    1  A    between atoms: C_1  and  C_2
REMARK    2  A    between atoms: C_4  and  C_5
REMARK    3  A    between atoms: C_6  and  N_7
REMARK    4  A    between atoms: C_8  and  S_9
REMARK    5  A    between atoms: N_10  and  C_11
REMARK    6  A    between atoms: N_10  and  C_19
REMARK    7  A    between atoms: C_11  and  C_12
REMARK    8  A    between atoms: C_12  and  N_13
REMARK    9  A    between atoms: C_19  and  C_20
REMARK   10  A    between atoms: C_25  and  C_26
REMARK                            x       y       z     vdW  Elec       q    Type
REMARK                         _______ _______ _______ _____ _____    ______ ____
ROOT
ATOM      1  N   UNL     1       3.964   5.787  18.545  0.00  0.00    +0.000 NA
ATOM      2  C   UNL     1       3.066   6.734  18.632  0.00  0.00    +0.000 C 
ATOM      3  N   UNL     1       2.430   6.999  19.856  0.00  0.00    +0.000 N 
ENDROOT
BRANCH   1   9
ATOM      4  C   UNL     1       7.063   4.250  13.952  0.00  0.00    +0.000 C 
ATOM      5  C   UNL     1       6.243   4.678  15.134  0.00  0.00    +0.000 A 
ATOM      6  C   UNL     1       6.613   5.767  15.917  0.00  0.00    +0.000 A 
ATOM      7  C   UNL     1       5.855   6.138  17.050  0.00  0.00    +0.000 A 
ATOM      8  C   UNL     1       6.355   7.279  17.895  0.00  0.00    +0.000 C 
ATOM      9  C   UNL     1       4.680   5.425  17.388  0.00  0.00    +0.000 A 
ATOM     10  C   UNL     1       4.353   4.280  16.628  0.00  0.00    +0.000 A 
ATOM     11  C   UNL     1       3.224   3.352  16.988  0.00  0.00    +0.000 C 
ATOM     12  C   UNL     1       5.104   3.957  15.481  0.00  0.00    +0.000 A 
ENDBRANCH   1   9
BRANCH   2  13
ATOM     13  S   UNL     1       2.589   7.753  17.250  0.00  0.00    +0.000 S 
ATOM     14  H   UNL     1       2.286   6.798  16.372  0.00  0.00    +0.000 HD
ENDBRANCH   2  13
BRANCH   3  15
ATOM     15  C   UNL     1       1.429   8.075  20.029  0.00  0.00    +0.000 C 
BRANCH  15  16
ATOM     16  C   UNL     1       1.262   8.616  21.468  0.00  0.00    +0.000 C 
BRANCH  16  17
ATOM     17  N   UNL     1       0.215   9.661  21.626  0.00  0.00    +0.000 NA
ATOM     18  C   UNL     1      -0.176   9.746  23.046  0.00  0.00    +0.000 C 
ATOM     19  C   UNL     1      -1.305  10.755  23.261  0.00  0.00    +0.000 C 
ATOM     20  C   UNL     1      -0.924  12.133  22.736  0.00  0.00    +0.000 C 
ATOM     21  C   UNL     1      -0.467  12.030  21.290  0.00  0.00    +0.000 C 
ATOM     22  C   UNL     1       0.635  10.981  21.126  0.00  0.00    +0.000 C 
ENDBRANCH  16  17
ENDBRANCH  15  16
ENDBRANCH   3  15
BRANCH   3  23
ATOM     23  C   UNL     1       2.588   6.044  20.973  0.00  0.00    +0.000 C 
BRANCH  23  24
ATOM     24  C   UNL     1       1.913   4.716  20.849  0.00  0.00    +0.000 A 
ATOM     25  C   UNL     1       1.078   4.154  19.902  0.00  0.00    +0.000 A 
ATOM     26  C   UNL     1       0.881   2.797  20.290  0.00  0.00    +0.000 A 
ATOM     27  C   UNL     1       1.597   2.627  21.450  0.00  0.00    +0.000 A 
ATOM     28  O   UNL     1       2.217   3.784  21.801  0.00  0.00    +0.000 OA
ENDBRANCH  23  24
ENDBRANCH   3  23
TORSDOF 7
ENDMDL
MODEL 5
REMARK VINA RESULT:      -6.6      2.148      7.967
REMARK  Name = 
REMARK  10 active torsions:
REMARK  status: ('A' for Active; 'I' for Inactive)
REMARK    1  A    between atoms: C_1  and  C_2
REMARK    2  A    between atoms: C_4  and  C_5
REMARK    3  A    between atoms: C_6  and  N_7
REMARK    4  A    between atoms: C_8  and  S_9
REMARK    5  A    between atoms: N_10  and  C_11
REMARK    6  A    between atoms: N_10  and  C_19
REMARK    7  A    between atoms: C_11  and  C_12
REMARK    8  A    between atoms: C_12  and  N_13
REMARK    9  A    between atoms: C_19  and  C_20
REMARK   10  A    between atoms: C_25  and  C_26
REMARK                            x       y       z     vdW  Elec       q    Type
REMARK                         _______ _______ _______ _____ _____    ______ ____
ROOT
ATOM      1  N   UNL     1       2.903   5.721  18.310  0.00  0.00    +0.000 NA
ATOM      2  C   UNL     1       4.172   5.494  18.088  0.00  0.00    +0.000 C 
ATOM      3  N   UNL     1       4.567   4.534  17.142  0.00  0.00    +0.000 N 
ENDROOT
BRANCH   1   9
ATOM      4  C   UNL     1       0.555   9.558  21.891  0.00  0.00    +0.000 C 
ATOM      5  C   UNL     1       1.197   8.572  20.960  0.00  0.00    +0.000 A 
ATOM      6  C   UNL     1       1.579   8.933  19.672  0.00  0.00    +0.000 A 
ATOM      7  C   UNL     1       2.148   7.987  18.791  0.00  0.00    +0.000 A 
ATOM      8  C   UNL     1       2.469   8.427  17.387  0.00  0.00    +0.000 C 
ATOM      9  C   UNL     1       2.374   6.656  19.219  0.00  0.00    +0.000 A 
ATOM     10  C   UNL     1       1.918   6.284  20.503  0.00  0.00    +0.000 A 
ATOM     11  C   UNL     1       1.954   4.866  21.006  0.00  0.00    +0.000 C 
ATOM     12  C   UNL     1       1.390   7.257  21.374  0.00  0.00    +0.000 A 
ENDBRANCH   1   9
BRANCH   2  13
ATOM     13  S   UNL     1       5.479   6.365  18.932  0.00  0.00    +0.000 S 
ATOM     14  H   UNL     1       5.502   5.670  20.068  0.00  0.00    +0.000 HD
ENDBRANCH   2  13
BRANCH   3  15
ATOM     15  C   UNL     1       5.984   4.251  16.821  0.00  0.00    +0.000 C 
BRANCH  15  16
ATOM     16  C   UNL     1       6.688   5.281  15.909  0.00  0.00    +0.000 C 
BRANCH  16  17
ATOM     17  N   UNL     1       6.501   5.055  14.451  0.00  0.00    +0.000 NA
ATOM     18  C   UNL     1       7.760   5.364  13.745  0.00  0.00    +0.000 C 
ATOM     19  C   UNL     1       7.608   5.221  12.231  0.00  0.00    +0.000 C 
ATOM     20  C   UNL     1       7.120   3.829  11.851  0.00  0.00    +0.000 C 
ATOM     21  C   UNL     1       5.855   3.494  12.624  0.00  0.00    +0.000 C 
ATOM     22  C   UNL     1       6.051   3.690  14.128  0.00  0.00    +0.000 C 
ENDBRANCH  16  17
ENDBRANCH  15  16
ENDBRANCH   3  15
BRANCH   3  23
ATOM     23  C   UNL     1       3.557   3.607  16.591  0.00  0.00    +0.000 C 
BRANCH  23  24
ATOM     24  C   UNL     1       2.724   2.833  17.562  0.00  0.00    +0.000 A 
ATOM     25  C   UNL     1       3.016   1.898  18.536  0.00  0.00    +0.000 A 
ATOM     26  C   UNL     1       1.794   1.632  19.221  0.00  0.00    +0.000 A 
ATOM     27  C   UNL     1       0.841   2.411  18.610  0.00  0.00    +0.000 A 
ATOM     28  O   UNL     1       1.391   3.134  17.601  0.00  0.00    +0.000 OA
ENDBRANCH  23  24
ENDBRANCH   3  23
TORSDOF 7
ENDMDL
MODEL 6
REMARK VINA RESULT:      -6.5      2.143      7.863
REMARK  Name = 
REMARK  10 active torsions:
REMARK  status: ('A' for Active; 'I' for Inactive)
REMARK    1  A    between atoms: C_1  and  C_2
REMARK    2  A    between atoms: C_4  and  C_5
REMARK    3  A    between atoms: C_6  and  N_7
REMARK    4  A    between atoms: C_8  and  S_9
REMARK    5  A    between atoms: N_10  and  C_11
REMARK    6  A    between atoms: N_10  and  C_19
REMARK    7  A    between atoms: C_11  and  C_12
REMARK    8  A    between atoms: C_12  and  N_13
REMARK    9  A    between atoms: C_19  and  C_20
REMARK   10  A    between atoms: C_25  and  C_26
REMARK                            x       y       z     vdW  Elec       q    Type
REMARK                         _______ _______ _______ _____ _____    ______ ____
ROOT
ATOM      1  N   UNL     1       2.763   5.723  18.236  0.00  0.00    +0.000 NA
ATOM      2  C   UNL     1       4.037   5.518  18.025  0.00  0.00    +0.000 C 
ATOM      3  N   UNL     1       4.456   4.532  17.117  0.00  0.00    +0.000 N 
ENDROOT
BRANCH   1   9
ATOM      4  C   UNL     1       0.690   9.615  21.927  0.00  0.00    +0.000 C 
ATOM      5  C   UNL     1       1.201   8.585  20.962  0.00  0.00    +0.000 A 
ATOM      6  C   UNL     1       1.380   7.260  21.343  0.00  0.00    +0.000 A 
ATOM      7  C   UNL     1       1.897   6.307  20.437  0.00  0.00    +0.000 A 
ATOM      8  C   UNL     1       2.136   4.908  20.939  0.00  0.00    +0.000 C 
ATOM      9  C   UNL     1       2.209   6.680  19.108  0.00  0.00    +0.000 A 
ATOM     10  C   UNL     1       2.090   8.042  18.753  0.00  0.00    +0.000 A 
ATOM     11  C   UNL     1       2.545   8.586  17.425  0.00  0.00    +0.000 C 
ATOM     12  C   UNL     1       1.535   8.962  19.664  0.00  0.00    +0.000 A 
ENDBRANCH   1   9
BRANCH   2  13
ATOM     13  S   UNL     1       5.321   6.451  18.836  0.00  0.00    +0.000 S 
ATOM     14  H   UNL     1       6.372   5.701  18.509  0.00  0.00    +0.000 HD
ENDBRANCH   2  13
BRANCH   3  15
ATOM     15  C   UNL     1       5.881   4.270  16.809  0.00  0.00    +0.000 C 
BRANCH  15  16
ATOM     16  C   UNL     1       6.577   5.312  15.904  0.00  0.00    +0.000 C 
BRANCH  16  17
ATOM     17  N   UNL     1       6.432   5.069  14.444  0.00  0.00    +0.000 NA
ATOM     18  C   UNL     1       7.714   5.355  13.773  0.00  0.00    +0.000 C 
ATOM     19  C   UNL     1       7.605   5.193  12.256  0.00  0.00    +0.000 C 
ATOM     20  C   UNL     1       7.114   3.801  11.880  0.00  0.00    +0.000 C 
ATOM     21  C   UNL     1       5.822   3.490  12.619  0.00  0.00    +0.000 C 
ATOM     22  C   UNL     1       5.976   3.704  14.126  0.00  0.00    +0.000 C 
ENDBRANCH  16  17
ENDBRANCH  15  16
ENDBRANCH   3  15
BRANCH   3  23
ATOM     23  C   UNL     1       3.470   3.560  16.601  0.00  0.00    +0.000 C 
BRANCH  23  24
ATOM     24  C   UNL     1       2.658   2.800  17.600  0.00  0.00    +0.000 A 
ATOM     25  C   UNL     1       2.973   1.893  18.594  0.00  0.00    +0.000 A 
ATOM     26  C   UNL     1       1.763   1.629  19.299  0.00  0.00    +0.000 A 
ATOM     27  C   UNL     1       0.793   2.381  18.681  0.00  0.00    +0.000 A 
ATOM     28  O   UNL     1       1.323   3.085  17.648  0.00  0.00    +0.000 OA
ENDBRANCH  23  24
ENDBRANCH   3  23
TORSDOF 7
ENDMDL
MODEL 7
REMARK VINA RESULT:      -6.4      1.909      7.948
REMARK  Name = 
REMARK  10 active torsions:
REMARK  status: ('A' for Active; 'I' for Inactive)
REMARK    1  A    between atoms: C_1  and  C_2
REMARK    2  A    between atoms: C_4  and  C_5
REMARK    3  A    between atoms: C_6  and  N_7
REMARK    4  A    between atoms: C_8  and  S_9
REMARK    5  A    between atoms: N_10  and  C_11
REMARK    6  A    between atoms: N_10  and  C_19
REMARK    7  A    between atoms: C_11  and  C_12
REMARK    8  A    between atoms: C_12  and  N_13
REMARK    9  A    between atoms: C_19  and  C_20
REMARK   10  A    between atoms: C_25  and  C_26
REMARK                            x       y       z     vdW  Elec       q    Type
REMARK                         _______ _______ _______ _____ _____    ______ ____
ROOT
ATOM      1  N   UNL     1       0.873   8.697  19.840  0.00  0.00    +0.000 NA
ATOM      2  C   UNL     1       1.792   8.726  18.910  0.00  0.00    +0.000 C 
ATOM      3  N   UNL     1       2.437   7.542  18.513  0.00  0.00    +0.000 N 
ENDROOT
BRANCH   1   9
ATOM      4  C   UNL     1      -2.283  13.087  21.796  0.00  0.00    +0.000 C 
ATOM      5  C   UNL     1      -1.442  11.963  21.267  0.00  0.00    +0.000 A 
ATOM      6  C   UNL     1      -1.572  11.514  19.957  0.00  0.00    +0.000 A 
ATOM      7  C   UNL     1      -0.802  10.429  19.480  0.00  0.00    +0.000 A 
ATOM      8  C   UNL     1      -1.047   9.947  18.076  0.00  0.00    +0.000 C 
ATOM      9  C   UNL     1       0.147   9.803  20.324  0.00  0.00    +0.000 A 
ATOM     10  C   UNL     1       0.220  10.220  21.671  0.00  0.00    +0.000 A 
ATOM     11  C   UNL     1       1.070   9.524  22.700  0.00  0.00    +0.000 C 
ATOM     12  C   UNL     1      -0.531  11.328  22.107  0.00  0.00    +0.000 A 
ENDBRANCH   1   9
BRANCH   2  13
ATOM     13  S   UNL     1       2.290  10.221  18.078  0.00  0.00    +0.000 S 
ATOM     14  H   UNL     1       3.567   9.923  17.843  0.00  0.00    +0.000 HD
ENDBRANCH   2  13
BRANCH   3  15
ATOM     15  C   UNL     1       3.463   7.501  17.446  0.00  0.00    +0.000 C 
BRANCH  15  16
ATOM     16  C   UNL     1       4.923   7.322  17.922  0.00  0.00    +0.000 C 
BRANCH  16  17
ATOM     17  N   UNL     1       5.778   6.502  17.022  0.00  0.00    +0.000 NA
ATOM     18  C   UNL     1       6.431   5.438  17.808  0.00  0.00    +0.000 C 
ATOM     19  C   UNL     1       7.383   4.605  16.949  0.00  0.00    +0.000 C 
ATOM     20  C   UNL     1       6.666   4.007  15.747  0.00  0.00    +0.000 C 
ATOM     21  C   UNL     1       5.947   5.100  14.973  0.00  0.00    +0.000 C 
ATOM     22  C   UNL     1       5.038   5.925  15.886  0.00  0.00    +0.000 C 
ENDBRANCH  16  17
ENDBRANCH  15  16
ENDBRANCH   3  15
BRANCH   3  23
ATOM     23  C   UNL     1       2.260   6.318  19.320  0.00  0.00    +0.000 C 
BRANCH  23  24
ATOM     24  C   UNL     1       2.417   5.002  18.628  0.00  0.00    +0.000 A 
ATOM     25  C   UNL     1       1.716   4.363  17.623  0.00  0.00    +0.000 A 
ATOM     26  C   UNL     1       2.448   3.183  17.306  0.00  0.00    +0.000 A 
ATOM     27  C   UNL     1       3.536   3.176  18.145  0.00  0.00    +0.000 A 
ATOM     28  O   UNL     1       3.521   4.267  18.954  0.00  0.00    +0.000 OA
ENDBRANCH  23  24
ENDBRANCH   3  23
TORSDOF 7
ENDMDL
MODEL 8
REMARK VINA RESULT:      -6.1      6.582      9.051
REMARK  Name = 
REMARK  10 active torsions:
REMARK  status: ('A' for Active; 'I' for Inactive)
REMARK    1  A    between atoms: C_1  and  C_2
REMARK    2  A    between atoms: C_4  and  C_5
REMARK    3  A    between atoms: C_6  and  N_7
REMARK    4  A    between atoms: C_8  and  S_9
REMARK    5  A    between atoms: N_10  and  C_11
REMARK    6  A    between atoms: N_10  and  C_19
REMARK    7  A    between atoms: C_11  and  C_12
REMARK    8  A    between atoms: C_12  and  N_13
REMARK    9  A    between atoms: C_19  and  C_20
REMARK   10  A    between atoms: C_25  and  C_26
REMARK                            x       y       z     vdW  Elec       q    Type
REMARK                         _______ _______ _______ _____ _____    ______ ____
ROOT
ATOM      1  N   UNL     1      -2.117  11.438  19.771  0.00  0.00    +0.000 NA
ATOM      2  C   UNL     1      -1.343  12.418  20.158  0.00  0.00    +0.000 C 
ATOM      3  N   UNL     1      -1.031  12.582  21.518  0.00  0.00    +0.000 N 
ENDROOT
BRANCH   1   9
ATOM      4  C   UNL     1      -3.689  10.068  14.412  0.00  0.00    +0.000 C 
ATOM      5  C   UNL     1      -3.257  10.447  15.799  0.00  0.00    +0.000 A 
ATOM      6  C   UNL     1      -2.029  10.042  16.311  0.00  0.00    +0.000 A 
ATOM      7  C   UNL     1      -1.648  10.373  17.631  0.00  0.00    +0.000 A 
ATOM      8  C   UNL     1      -0.338   9.839  18.146  0.00  0.00    +0.000 C 
ATOM      9  C   UNL     1      -2.500  11.157  18.445  0.00  0.00    +0.000 A 
ATOM     10  C   UNL     1      -3.772  11.502  17.939  0.00  0.00    +0.000 A 
ATOM     11  C   UNL     1      -4.824  12.191  18.767  0.00  0.00    +0.000 C 
ATOM     12  C   UNL     1      -4.110  11.193  16.607  0.00  0.00    +0.000 A 
ENDBRANCH   1   9
BRANCH   2  13
ATOM     13  S   UNL     1      -0.623  13.595  19.029  0.00  0.00    +0.000 S 
ATOM     14  H   UNL     1      -0.150  12.753  18.112  0.00  0.00    +0.000 HD
ENDBRANCH   2  13
BRANCH   3  15
ATOM     15  C   UNL     1      -0.138  13.650  22.019  0.00  0.00    +0.000 C 
BRANCH  15  16
ATOM     16  C   UNL     1      -0.750  15.068  22.078  0.00  0.00    +0.000 C 
BRANCH  16  17
ATOM     17  N   UNL     1      -1.866  15.228  23.048  0.00  0.00    +0.000 NA
ATOM     18  C   UNL     1      -1.313  15.355  24.410  0.00  0.00    +0.000 C 
ATOM     19  C   UNL     1      -2.420  15.448  25.461  0.00  0.00    +0.000 C 
ATOM     20  C   UNL     1      -3.367  16.604  25.168  0.00  0.00    +0.000 C 
ATOM     21  C   UNL     1      -3.889  16.500  23.744  0.00  0.00    +0.000 C 
ATOM     22  C   UNL     1      -2.743  16.371  22.738  0.00  0.00    +0.000 C 
ENDBRANCH  16  17
ENDBRANCH  15  16
ENDBRANCH   3  15
BRANCH   3  23
ATOM     23  C   UNL     1      -1.782  11.807  22.528  0.00  0.00    +0.000 C 
BRANCH  23  24
ATOM     24  C   UNL     1      -3.114  12.335  22.956  0.00  0.00    +0.000 A 
ATOM     25  C   UNL     1      -4.206  12.835  22.275  0.00  0.00    +0.000 A 
ATOM     26  C   UNL     1      -5.228  13.045  23.245  0.00  0.00    +0.000 A 
ATOM     27  C   UNL     1      -4.686  12.671  24.452  0.00  0.00    +0.000 A 
ATOM     28  O   UNL     1      -3.406  12.249  24.289  0.00  0.00    +0.000 OA
ENDBRANCH  23  24
ENDBRANCH   3  23
TORSDOF 7
ENDMDL
MODEL 9
REMARK VINA RESULT:      -6.1      4.623      8.767
REMARK  Name = 
REMARK  10 active torsions:
REMARK  status: ('A' for Active; 'I' for Inactive)
REMARK    1  A    between atoms: C_1  and  C_2
REMARK    2  A    between atoms: C_4  and  C_5
REMARK    3  A    between atoms: C_6  and  N_7
REMARK    4  A    between atoms: C_8  and  S_9
REMARK    5  A    between atoms: N_10  and  C_11
REMARK    6  A    between atoms: N_10  and  C_19
REMARK    7  A    between atoms: C_11  and  C_12
REMARK    8  A    between atoms: C_12  and  N_13
REMARK    9  A    between atoms: C_19  and  C_20
REMARK   10  A    between atoms: C_25  and  C_26
REMARK                            x       y       z     vdW  Elec       q    Type
REMARK                         _______ _______ _______ _____ _____    ______ ____
ROOT
ATOM      1  N   UNL     1      -1.691  11.159  19.137  0.00  0.00    +0.000 NA
ATOM      2  C   UNL     1      -0.594  11.855  18.986  0.00  0.00    +0.000 C 
ATOM      3  N   UNL     1       0.637  11.344  19.429  0.00  0.00    +0.000 N 
ENDROOT
BRANCH   1   9
ATOM      4  C   UNL     1      -7.031  12.527  17.500  0.00  0.00    +0.000 C 
ATOM      5  C   UNL     1      -5.625  12.190  17.904  0.00  0.00    +0.000 A 
ATOM      6  C   UNL     1      -4.810  11.399  17.102  0.00  0.00    +0.000 A 
ATOM      7  C   UNL     1      -3.501  11.058  17.510  0.00  0.00    +0.000 A 
ATOM      8  C   UNL     1      -2.701  10.137  16.628  0.00  0.00    +0.000 C 
ATOM      9  C   UNL     1      -2.983  11.548  18.732  0.00  0.00    +0.000 A 
ATOM     10  C   UNL     1      -3.843  12.291  19.570  0.00  0.00    +0.000 A 
ATOM     11  C   UNL     1      -3.460  12.725  20.960  0.00  0.00    +0.000 C 
ATOM     12  C   UNL     1      -5.128  12.649  19.121  0.00  0.00    +0.000 A 
ENDBRANCH   1   9
BRANCH   2  13
ATOM     13  S   UNL     1      -0.558  13.462  18.216  0.00  0.00    +0.000 S 
ATOM     14  H   UNL     1      -1.656  13.368  17.468  0.00  0.00    +0.000 HD
ENDBRANCH   2  13
BRANCH   3  15
ATOM     15  C   UNL     1       1.919  12.066  19.261  0.00  0.00    +0.000 C 
BRANCH  15  16
ATOM     16  C   UNL     1       2.202  13.186  20.289  0.00  0.00    +0.000 C 
BRANCH  16  17
ATOM     17  N   UNL     1       2.885  14.385  19.735  0.00  0.00    +0.000 NA
ATOM     18  C   UNL     1       3.216  14.145  18.318  0.00  0.00    +0.000 C 
ATOM     19  C   UNL     1       3.988  15.318  17.712  0.00  0.00    +0.000 C 
ATOM     20  C   UNL     1       3.220  16.624  17.860  0.00  0.00    +0.000 C 
ATOM     21  C   UNL     1       2.832  16.837  19.314  0.00  0.00    +0.000 C 
ATOM     22  C   UNL     1       2.096  15.621  19.880  0.00  0.00    +0.000 C 
ENDBRANCH  16  17
ENDBRANCH  15  16
ENDBRANCH   3  15
BRANCH   3  23
ATOM     23  C   UNL     1       0.652  10.145  20.291  0.00  0.00    +0.000 C 
BRANCH  23  24
ATOM     24  C   UNL     1       1.412   8.952  19.806  0.00  0.00    +0.000 A 
ATOM     25  C   UNL     1       1.821   7.774  20.401  0.00  0.00    +0.000 A 
ATOM     26  C   UNL     1       2.393   6.975  19.369  0.00  0.00    +0.000 A 
ATOM     27  C   UNL     1       2.305   7.724  18.219  0.00  0.00    +0.000 A 
ATOM     28  O   UNL     1       1.722   8.924  18.475  0.00  0.00    +0.000 OA
ENDBRANCH  23  24
ENDBRANCH   3  23
TORSDOF 7
ENDMDL
