MODEL 1
REMARK VINA RESULT:      -8.0      0.000      0.000
REMARK  Name = 
REMARK  13 active torsions:
REMARK  status: ('A' for Active; 'I' for Inactive)
REMARK    1  A    between atoms: C_1  and  C_2
REMARK    2  A    between atoms: C_5  and  C_6
REMARK    3  A    between atoms: C_7  and  C_8
REMARK    4  A    between atoms: C_8  and  C_9
REMARK    5  A    between atoms: C_9  and  C_10
REMARK    6  A    between atoms: C_10  and  O_12
REMARK    7  A    between atoms: C_13  and  C_14
REMARK    8  A    between atoms: C_16  and  C_17
REMARK    9  A    between atoms: C_17  and  C_18
REMARK   10  A    between atoms: C_18  and  C_19
REMARK   11  A    between atoms: C_18  and  C_20
REMARK   12  A    between atoms: C_21  and  C_22
REMARK   13  A    between atoms: C_22  and  N_23
REMARK                            x       y       z     vdW  Elec       q    Type
REMARK                         _______ _______ _______ _____ _____    ______ ____
ROOT
ATOM      1  C   UNL     1       3.253   5.614  17.940  0.00  0.00    +0.000 A 
ATOM      2  C   UNL     1       2.656   4.338  18.273  0.00  0.00    +0.000 A 
ATOM      3  C   UNL     1       3.286   3.158  17.798  0.00  0.00    +0.000 A 
ATOM      4  C   UNL     1       2.739   1.761  17.965  0.00  0.00    +0.000 C 
ATOM      5  N   UNL     1       4.414   3.253  17.075  0.00  0.00    +0.000 NA
ATOM      6  C   UNL     1       5.018   4.403  16.708  0.00  0.00    +0.000 A 
ATOM      7  C   UNL     1       4.449   5.652  17.116  0.00  0.00    +0.000 A 
ENDROOT
BRANCH   1  12
ATOM      8  C   UNL     1       0.564  10.460  19.832  0.00  0.00    +0.000 C 
ATOM      9  C   UNL     1       1.294   9.234  19.371  0.00  0.00    +0.000 A 
ATOM     10  C   UNL     1       1.714   8.254  20.277  0.00  0.00    +0.000 A 
ATOM     11  C   UNL     1       2.367   7.110  19.815  0.00  0.00    +0.000 A 
ATOM     12  C   UNL     1       2.592   6.889  18.434  0.00  0.00    +0.000 A 
ATOM     13  C   UNL     1       2.164   7.896  17.547  0.00  0.00    +0.000 A 
ATOM     14  C   UNL     1       1.541   9.052  18.010  0.00  0.00    +0.000 A 
ENDBRANCH   1  12
BRANCH   2  15
ATOM     15  C   UNL     1       1.313   4.220  19.022  0.00  0.00    +0.000 C 
BRANCH  15  16
ATOM     16  C   UNL     1       1.292   3.131  20.129  0.00  0.00    +0.000 C 
BRANCH  16  17
ATOM     17  C   UNL     1       2.179   3.461  21.307  0.00  0.00    +0.000 C 
ATOM     18  O   UNL     1       2.665   2.577  22.003  0.00  0.00    +0.000 OA
BRANCH  17  19
ATOM     19  O   UNL     1       2.436   4.749  21.628  0.00  0.00    +0.000 OA
ATOM     20  H   UNL     1       2.364   5.455  20.971  0.00  0.00    +0.000 HD
ENDBRANCH  17  19
ENDBRANCH  16  17
ENDBRANCH  15  16
ENDBRANCH   2  15
BRANCH   6  21
ATOM     21  C   UNL     1       6.278   4.190  15.872  0.00  0.00    +0.000 C 
BRANCH  21  22
ATOM     22  C   UNL     1       6.144   4.720  14.426  0.00  0.00    +0.000 C 
ATOM     23  C   UNL     1       7.502   5.181  13.881  0.00  0.00    +0.000 C 
ATOM     24  C   UNL     1       5.570   3.617  13.519  0.00  0.00    +0.000 C 
ENDBRANCH  21  22
ENDBRANCH   6  21
BRANCH   7  25
ATOM     25  C   UNL     1       5.028   7.013  16.670  0.00  0.00    +0.000 C 
BRANCH  25  26
ATOM     26  N   UNL     1       6.383   7.325  17.111  0.00  0.00    +0.000 NA
ATOM     27  H   UNL     1       7.067   6.649  16.704  0.00  0.00    +0.000 HD
ATOM     28  H   UNL     1       6.424   7.227  18.155  0.00  0.00    +0.000 HD
ENDBRANCH  25  26
ENDBRANCH   7  25
TORSDOF 9
ENDMDL
MODEL 2
REMARK VINA RESULT:      -8.0      0.565      1.172
REMARK  Name = 
REMARK  13 active torsions:
REMARK  status: ('A' for Active; 'I' for Inactive)
REMARK    1  A    between atoms: C_1  and  C_2
REMARK    2  A    between atoms: C_5  and  C_6
REMARK    3  A    between atoms: C_7  and  C_8
REMARK    4  A    between atoms: C_8  and  C_9
REMARK    5  A    between atoms: C_9  and  C_10
REMARK    6  A    between atoms: C_10  and  O_12
REMARK    7  A    between atoms: C_13  and  C_14
REMARK    8  A    between atoms: C_16  and  C_17
REMARK    9  A    between atoms: C_17  and  C_18
REMARK   10  A    between atoms: C_18  and  C_19
REMARK   11  A    between atoms: C_18  and  C_20
REMARK   12  A    between atoms: C_21  and  C_22
REMARK   13  A    between atoms: C_22  and  N_23
REMARK                            x       y       z     vdW  Elec       q    Type
REMARK                         _______ _______ _______ _____ _____    ______ ____
ROOT
ATOM      1  C   UNL     1       3.289   5.541  18.041  0.00  0.00    +0.000 A 
ATOM      2  C   UNL     1       2.772   4.254  18.456  0.00  0.00    +0.000 A 
ATOM      3  C   UNL     1       3.442   3.086  18.007  0.00  0.00    +0.000 A 
ATOM      4  C   UNL     1       2.974   1.673  18.259  0.00  0.00    +0.000 C 
ATOM      5  N   UNL     1       4.534   3.203  17.234  0.00  0.00    +0.000 NA
ATOM      6  C   UNL     1       5.063   4.363  16.790  0.00  0.00    +0.000 A 
ATOM      7  C   UNL     1       4.447   5.600  17.166  0.00  0.00    +0.000 A 
ENDROOT
BRANCH   1  12
ATOM      8  C   UNL     1       0.707  10.482  19.835  0.00  0.00    +0.000 C 
ATOM      9  C   UNL     1       1.325   9.203  19.356  0.00  0.00    +0.000 A 
ATOM     10  C   UNL     1       1.495   8.944  17.991  0.00  0.00    +0.000 A 
ATOM     11  C   UNL     1       2.099   7.756  17.576  0.00  0.00    +0.000 A 
ATOM     12  C   UNL     1       2.583   6.804  18.505  0.00  0.00    +0.000 A 
ATOM     13  C   UNL     1       2.392   7.088  19.871  0.00  0.00    +0.000 A 
ATOM     14  C   UNL     1       1.761   8.259  20.285  0.00  0.00    +0.000 A 
ENDBRANCH   1  12
BRANCH   2  15
ATOM     15  C   UNL     1       1.468   4.105  19.264  0.00  0.00    +0.000 C 
BRANCH  15  16
ATOM     16  C   UNL     1       1.635   4.322  20.793  0.00  0.00    +0.000 C 
BRANCH  16  17
ATOM     17  C   UNL     1       2.020   3.063  21.535  0.00  0.00    +0.000 C 
ATOM     18  O   UNL     1       3.174   2.651  21.531  0.00  0.00    +0.000 OA
BRANCH  17  19
ATOM     19  O   UNL     1       1.084   2.351  22.203  0.00  0.00    +0.000 OA
ATOM     20  H   UNL     1       1.239   2.039  23.106  0.00  0.00    +0.000 HD
ENDBRANCH  17  19
ENDBRANCH  16  17
ENDBRANCH  15  16
ENDBRANCH   2  15
BRANCH   6  21
ATOM     21  C   UNL     1       6.298   4.174  15.913  0.00  0.00    +0.000 C 
BRANCH  21  22
ATOM     22  C   UNL     1       6.113   4.722  14.479  0.00  0.00    +0.000 C 
ATOM     23  C   UNL     1       7.456   5.160  13.880  0.00  0.00    +0.000 C 
ATOM     24  C   UNL     1       5.477   3.641  13.586  0.00  0.00    +0.000 C 
ENDBRANCH  21  22
ENDBRANCH   6  21
BRANCH   7  25
ATOM     25  C   UNL     1       4.937   6.966  16.636  0.00  0.00    +0.000 C 
BRANCH  25  26
ATOM     26  N   UNL     1       6.289   7.366  17.009  0.00  0.00    +0.000 NA
ATOM     27  H   UNL     1       6.385   7.418  18.047  0.00  0.00    +0.000 HD
ATOM     28  H   UNL     1       6.470   8.326  16.625  0.00  0.00    +0.000 HD
ENDBRANCH  25  26
ENDBRANCH   7  25
TORSDOF 9
ENDMDL
MODEL 3
REMARK VINA RESULT:      -7.7      2.159      6.001
REMARK  Name = 
REMARK  13 active torsions:
REMARK  status: ('A' for Active; 'I' for Inactive)
REMARK    1  A    between atoms: C_1  and  C_2
REMARK    2  A    between atoms: C_5  and  C_6
REMARK    3  A    between atoms: C_7  and  C_8
REMARK    4  A    between atoms: C_8  and  C_9
REMARK    5  A    between atoms: C_9  and  C_10
REMARK    6  A    between atoms: C_10  and  O_12
REMARK    7  A    between atoms: C_13  and  C_14
REMARK    8  A    between atoms: C_16  and  C_17
REMARK    9  A    between atoms: C_17  and  C_18
REMARK   10  A    between atoms: C_18  and  C_19
REMARK   11  A    between atoms: C_18  and  C_20
REMARK   12  A    between atoms: C_21  and  C_22
REMARK   13  A    between atoms: C_22  and  N_23
REMARK                            x       y       z     vdW  Elec       q    Type
REMARK                         _______ _______ _______ _____ _____    ______ ____
ROOT
ATOM      1  C   UNL     1       3.740   5.564  18.515  0.00  0.00    +0.000 A 
ATOM      2  C   UNL     1       3.491   4.490  19.453  0.00  0.00    +0.000 A 
ATOM      3  C   UNL     1       2.573   4.722  20.510  0.00  0.00    +0.000 A 
ATOM      4  C   UNL     1       2.281   3.750  21.629  0.00  0.00    +0.000 C 
ATOM      5  N   UNL     1       1.955   5.911  20.604  0.00  0.00    +0.000 NA
ATOM      6  C   UNL     1       2.149   6.965  19.783  0.00  0.00    +0.000 A 
ATOM      7  C   UNL     1       3.074   6.842  18.697  0.00  0.00    +0.000 A 
ENDROOT
BRANCH   1  12
ATOM      8  C   UNL     1       7.489   4.832  14.076  0.00  0.00    +0.000 C 
ATOM      9  C   UNL     1       6.556   4.987  15.240  0.00  0.00    +0.000 A 
ATOM     10  C   UNL     1       6.967   5.613  16.422  0.00  0.00    +0.000 A 
ATOM     11  C   UNL     1       6.069   5.769  17.478  0.00  0.00    +0.000 A 
ATOM     12  C   UNL     1       4.723   5.338  17.380  0.00  0.00    +0.000 A 
ATOM     13  C   UNL     1       4.341   4.706  16.181  0.00  0.00    +0.000 A 
ATOM     14  C   UNL     1       5.245   4.522  15.138  0.00  0.00    +0.000 A 
ENDBRANCH   1  12
BRANCH   2  15
ATOM     15  C   UNL     1       4.263   3.156  19.412  0.00  0.00    +0.000 C 
BRANCH  15  16
ATOM     16  C   UNL     1       3.719   2.134  18.375  0.00  0.00    +0.000 C 
BRANCH  16  17
ATOM     17  C   UNL     1       2.222   2.217  18.187  0.00  0.00    +0.000 C 
ATOM     18  O   UNL     1       1.730   2.915  17.308  0.00  0.00    +0.000 OA
BRANCH  17  19
ATOM     19  O   UNL     1       1.392   1.534  19.007  0.00  0.00    +0.000 OA
ATOM     20  H   UNL     1       1.614   0.646  19.322  0.00  0.00    +0.000 HD
ENDBRANCH  17  19
ENDBRANCH  16  17
ENDBRANCH  15  16
ENDBRANCH   2  15
BRANCH   6  21
ATOM     21  C   UNL     1       1.313   8.187  20.152  0.00  0.00    +0.000 C 
BRANCH  21  22
ATOM     22  C   UNL     1       0.881   8.201  21.637  0.00  0.00    +0.000 C 
ATOM     23  C   UNL     1       1.623   9.295  22.416  0.00  0.00    +0.000 C 
ATOM     24  C   UNL     1      -0.637   8.435  21.736  0.00  0.00    +0.000 C 
ENDBRANCH  21  22
ENDBRANCH   6  21
BRANCH   7  25
ATOM     25  C   UNL     1       3.418   8.023  17.762  0.00  0.00    +0.000 C 
BRANCH  25  26
ATOM     26  N   UNL     1       2.304   8.858  17.326  0.00  0.00    +0.000 NA
ATOM     27  H   UNL     1       2.241   8.872  16.283  0.00  0.00    +0.000 HD
ATOM     28  H   UNL     1       2.480   9.842  17.645  0.00  0.00    +0.000 HD
ENDBRANCH  25  26
ENDBRANCH   7  25
TORSDOF 9
ENDMDL
MODEL 4
REMARK VINA RESULT:      -7.5      1.711      2.291
REMARK  Name = 
REMARK  13 active torsions:
REMARK  status: ('A' for Active; 'I' for Inactive)
REMARK    1  A    between atoms: C_1  and  C_2
REMARK    2  A    between atoms: C_5  and  C_6
REMARK    3  A    between atoms: C_7  and  C_8
REMARK    4  A    between atoms: C_8  and  C_9
REMARK    5  A    between atoms: C_9  and  C_10
REMARK    6  A    between atoms: C_10  and  O_12
REMARK    7  A    between atoms: C_13  and  C_14
REMARK    8  A    between atoms: C_16  and  C_17
REMARK    9  A    between atoms: C_17  and  C_18
REMARK   10  A    between atoms: C_18  and  C_19
REMARK   11  A    between atoms: C_18  and  C_20
REMARK   12  A    between atoms: C_21  and  C_22
REMARK   13  A    between atoms: C_22  and  N_23
REMARK                            x       y       z     vdW  Elec       q    Type
REMARK                         _______ _______ _______ _____ _____    ______ ____
ROOT
ATOM      1  C   UNL     1       3.779   5.860  18.888  0.00  0.00    +0.000 A 
ATOM      2  C   UNL     1       3.550   4.644  19.638  0.00  0.00    +0.000 A 
ATOM      3  C   UNL     1       4.494   3.591  19.514  0.00  0.00    +0.000 A 
ATOM      4  C   UNL     1       4.350   2.225  20.141  0.00  0.00    +0.000 C 
ATOM      5  N   UNL     1       5.570   3.754  18.728  0.00  0.00    +0.000 NA
ATOM      6  C   UNL     1       5.843   4.847  17.984  0.00  0.00    +0.000 A 
ATOM      7  C   UNL     1       4.940   5.958  18.019  0.00  0.00    +0.000 A 
ENDROOT
BRANCH   1  12
ATOM      8  C   UNL     1       0.040  10.344  19.342  0.00  0.00    +0.000 C 
ATOM      9  C   UNL     1       0.962   9.170  19.202  0.00  0.00    +0.000 A 
ATOM     10  C   UNL     1       1.443   8.770  17.951  0.00  0.00    +0.000 A 
ATOM     11  C   UNL     1       2.323   7.690  17.854  0.00  0.00    +0.000 A 
ATOM     12  C   UNL     1       2.779   6.997  19.002  0.00  0.00    +0.000 A 
ATOM     13  C   UNL     1       2.271   7.418  20.247  0.00  0.00    +0.000 A 
ATOM     14  C   UNL     1       1.370   8.475  20.341  0.00  0.00    +0.000 A 
ENDBRANCH   1  12
BRANCH   2  15
ATOM     15  C   UNL     1       2.272   4.409  20.469  0.00  0.00    +0.000 C 
BRANCH  15  16
ATOM     16  C   UNL     1       1.013   4.074  19.624  0.00  0.00    +0.000 C 
BRANCH  16  17
ATOM     17  C   UNL     1       1.310   3.180  18.441  0.00  0.00    +0.000 C 
ATOM     18  O   UNL     1       1.518   3.649  17.328  0.00  0.00    +0.000 OA
BRANCH  17  19
ATOM     19  O   UNL     1       1.329   1.837  18.589  0.00  0.00    +0.000 OA
ATOM     20  H   UNL     1       1.759   1.265  17.938  0.00  0.00    +0.000 HD
ENDBRANCH  17  19
ENDBRANCH  16  17
ENDBRANCH  15  16
ENDBRANCH   2  15
BRANCH   6  21
ATOM     21  C   UNL     1       7.134   4.730  17.179  0.00  0.00    +0.000 C 
BRANCH  21  22
ATOM     22  C   UNL     1       6.937   4.030  15.814  0.00  0.00    +0.000 C 
ATOM     23  C   UNL     1       5.478   3.595  15.625  0.00  0.00    +0.000 C 
ATOM     24  C   UNL     1       7.344   4.983  14.676  0.00  0.00    +0.000 C 
ENDBRANCH  21  22
ENDBRANCH   6  21
BRANCH   7  25
ATOM     25  C   UNL     1       5.131   7.211  17.136  0.00  0.00    +0.000 C 
BRANCH  25  26
ATOM     26  N   UNL     1       4.941   7.036  15.701  0.00  0.00    +0.000 NA
ATOM     27  H   UNL     1       3.925   6.955  15.472  0.00  0.00    +0.000 HD
ATOM     28  H   UNL     1       5.404   6.141  15.410  0.00  0.00    +0.000 HD
ENDBRANCH  25  26
ENDBRANCH   7  25
TORSDOF 9
ENDMDL
MODEL 5
REMARK VINA RESULT:      -7.5      1.651      2.032
REMARK  Name = 
REMARK  13 active torsions:
REMARK  status: ('A' for Active; 'I' for Inactive)
REMARK    1  A    between atoms: C_1  and  C_2
REMARK    2  A    between atoms: C_5  and  C_6
REMARK    3  A    between atoms: C_7  and  C_8
REMARK    4  A    between atoms: C_8  and  C_9
REMARK    5  A    between atoms: C_9  and  C_10
REMARK    6  A    between atoms: C_10  and  O_12
REMARK    7  A    between atoms: C_13  and  C_14
REMARK    8  A    between atoms: C_16  and  C_17
REMARK    9  A    between atoms: C_17  and  C_18
REMARK   10  A    between atoms: C_18  and  C_19
REMARK   11  A    between atoms: C_18  and  C_20
REMARK   12  A    between atoms: C_21  and  C_22
REMARK   13  A    between atoms: C_22  and  N_23
REMARK                            x       y       z     vdW  Elec       q    Type
REMARK                         _______ _______ _______ _____ _____    ______ ____
ROOT
ATOM      1  C   UNL     1       3.822   5.812  18.862  0.00  0.00    +0.000 A 
ATOM      2  C   UNL     1       3.564   4.617  19.637  0.00  0.00    +0.000 A 
ATOM      3  C   UNL     1       4.475   3.534  19.524  0.00  0.00    +0.000 A 
ATOM      4  C   UNL     1       4.296   2.185  20.179  0.00  0.00    +0.000 C 
ATOM      5  N   UNL     1       5.548   3.650  18.725  0.00  0.00    +0.000 NA
ATOM      6  C   UNL     1       5.845   4.720  17.958  0.00  0.00    +0.000 A 
ATOM      7  C   UNL     1       4.976   5.858  17.980  0.00  0.00    +0.000 A 
ENDROOT
BRANCH   1  12
ATOM      8  C   UNL     1      -0.019  10.216  19.237  0.00  0.00    +0.000 C 
ATOM      9  C   UNL     1       0.997   9.116  19.167  0.00  0.00    +0.000 A 
ATOM     10  C   UNL     1       1.407   8.430  20.315  0.00  0.00    +0.000 A 
ATOM     11  C   UNL     1       2.334   7.392  20.214  0.00  0.00    +0.000 A 
ATOM     12  C   UNL     1       2.857   6.980  18.964  0.00  0.00    +0.000 A 
ATOM     13  C   UNL     1       2.431   7.694  17.827  0.00  0.00    +0.000 A 
ATOM     14  C   UNL     1       1.530   8.750  17.931  0.00  0.00    +0.000 A 
ENDBRANCH   1  12
BRANCH   2  15
ATOM     15  C   UNL     1       2.288   4.437  20.485  0.00  0.00    +0.000 C 
BRANCH  15  16
ATOM     16  C   UNL     1       1.013   4.114  19.659  0.00  0.00    +0.000 C 
BRANCH  16  17
ATOM     17  C   UNL     1       1.286   3.231  18.463  0.00  0.00    +0.000 C 
ATOM     18  O   UNL     1       1.462   3.709  17.348  0.00  0.00    +0.000 OA
BRANCH  17  19
ATOM     19  O   UNL     1       1.317   1.886  18.599  0.00  0.00    +0.000 OA
ATOM     20  H   UNL     1       0.817   1.309  18.007  0.00  0.00    +0.000 HD
ENDBRANCH  17  19
ENDBRANCH  16  17
ENDBRANCH  15  16
ENDBRANCH   2  15
BRANCH   6  21
ATOM     21  C   UNL     1       7.124   4.550  17.142  0.00  0.00    +0.000 C 
BRANCH  21  22
ATOM     22  C   UNL     1       6.864   4.046  15.704  0.00  0.00    +0.000 C 
ATOM     23  C   UNL     1       5.380   3.714  15.497  0.00  0.00    +0.000 C 
ATOM     24  C   UNL     1       7.301   5.118  14.689  0.00  0.00    +0.000 C 
ENDBRANCH  21  22
ENDBRANCH   6  21
BRANCH   7  25
ATOM     25  C   UNL     1       5.196   7.089  17.072  0.00  0.00    +0.000 C 
BRANCH  25  26
ATOM     26  N   UNL     1       6.512   7.715  17.126  0.00  0.00    +0.000 NA
ATOM     27  H   UNL     1       7.077   7.456  16.286  0.00  0.00    +0.000 HD
ATOM     28  H   UNL     1       7.018   7.355  17.971  0.00  0.00    +0.000 HD
ENDBRANCH  25  26
ENDBRANCH   7  25
TORSDOF 9
ENDMDL
MODEL 6
REMARK VINA RESULT:      -7.3      2.188      5.940
REMARK  Name = 
REMARK  13 active torsions:
REMARK  status: ('A' for Active; 'I' for Inactive)
REMARK    1  A    between atoms: C_1  and  C_2
REMARK    2  A    between atoms: C_5  and  C_6
REMARK    3  A    between atoms: C_7  and  C_8
REMARK    4  A    between atoms: C_8  and  C_9
REMARK    5  A    between atoms: C_9  and  C_10
REMARK    6  A    between atoms: C_10  and  O_12
REMARK    7  A    between atoms: C_13  and  C_14
REMARK    8  A    between atoms: C_16  and  C_17
REMARK    9  A    between atoms: C_17  and  C_18
REMARK   10  A    between atoms: C_18  and  C_19
REMARK   11  A    between atoms: C_18  and  C_20
REMARK   12  A    between atoms: C_21  and  C_22
REMARK   13  A    between atoms: C_22  and  N_23
REMARK                            x       y       z     vdW  Elec       q    Type
REMARK                         _______ _______ _______ _____ _____    ______ ____
ROOT
ATOM      1  C   UNL     1       3.492   5.440  18.888  0.00  0.00    +0.000 A 
ATOM      2  C   UNL     1       3.307   4.277  19.730  0.00  0.00    +0.000 A 
ATOM      3  C   UNL     1       2.324   4.339  20.752  0.00  0.00    +0.000 A 
ATOM      4  C   UNL     1       2.079   3.260  21.780  0.00  0.00    +0.000 C 
ATOM      5  N   UNL     1       1.587   5.452  20.899  0.00  0.00    +0.000 NA
ATOM      6  C   UNL     1       1.714   6.580  20.167  0.00  0.00    +0.000 A 
ATOM      7  C   UNL     1       2.695   6.631  19.126  0.00  0.00    +0.000 A 
ENDROOT
BRANCH   1  12
ATOM      8  C   UNL     1       7.584   5.131  14.710  0.00  0.00    +0.000 C 
ATOM      9  C   UNL     1       6.512   5.244  15.752  0.00  0.00    +0.000 A 
ATOM     10  C   UNL     1       5.205   4.814  15.500  0.00  0.00    +0.000 A 
ATOM     11  C   UNL     1       4.235   4.906  16.500  0.00  0.00    +0.000 A 
ATOM     12  C   UNL     1       4.543   5.397  17.792  0.00  0.00    +0.000 A 
ATOM     13  C   UNL     1       5.865   5.829  18.014  0.00  0.00    +0.000 A 
ATOM     14  C   UNL     1       6.826   5.766  17.007  0.00  0.00    +0.000 A 
ENDBRANCH   1  12
BRANCH   2  15
ATOM     15  C   UNL     1       4.209   3.030  19.633  0.00  0.00    +0.000 C 
BRANCH  15  16
ATOM     16  C   UNL     1       3.807   2.037  18.508  0.00  0.00    +0.000 C 
BRANCH  16  17
ATOM     17  C   UNL     1       2.330   2.068  18.186  0.00  0.00    +0.000 C 
ATOM     18  O   UNL     1       1.899   2.727  17.248  0.00  0.00    +0.000 OA
BRANCH  17  19
ATOM     19  O   UNL     1       1.451   1.381  18.950  0.00  0.00    +0.000 OA
ATOM     20  H   UNL     1       1.278   0.441  18.797  0.00  0.00    +0.000 HD
ENDBRANCH  17  19
ENDBRANCH  16  17
ENDBRANCH  15  16
ENDBRANCH   2  15
BRANCH   6  21
ATOM     21  C   UNL     1       0.745   7.686  20.580  0.00  0.00    +0.000 C 
BRANCH  21  22
ATOM     22  C   UNL     1       1.457   8.941  21.134  0.00  0.00    +0.000 C 
ATOM     23  C   UNL     1       0.984  10.207  20.409  0.00  0.00    +0.000 C 
ATOM     24  C   UNL     1       1.180   9.074  22.642  0.00  0.00    +0.000 C 
ENDBRANCH  21  22
ENDBRANCH   6  21
BRANCH   7  25
ATOM     25  C   UNL     1       2.962   7.908  18.299  0.00  0.00    +0.000 C 
BRANCH  25  26
ATOM     26  N   UNL     1       1.873   8.379  17.450  0.00  0.00    +0.000 NA
ATOM     27  H   UNL     1       1.818   7.813  16.574  0.00  0.00    +0.000 HD
ATOM     28  H   UNL     1       2.070   9.372  17.174  0.00  0.00    +0.000 HD
ENDBRANCH  25  26
ENDBRANCH   7  25
TORSDOF 9
ENDMDL
MODEL 7
REMARK VINA RESULT:      -7.0      0.885      1.178
REMARK  Name = 
REMARK  13 active torsions:
REMARK  status: ('A' for Active; 'I' for Inactive)
REMARK    1  A    between atoms: C_1  and  C_2
REMARK    2  A    between atoms: C_5  and  C_6
REMARK    3  A    between atoms: C_7  and  C_8
REMARK    4  A    between atoms: C_8  and  C_9
REMARK    5  A    between atoms: C_9  and  C_10
REMARK    6  A    between atoms: C_10  and  O_12
REMARK    7  A    between atoms: C_13  and  C_14
REMARK    8  A    between atoms: C_16  and  C_17
REMARK    9  A    between atoms: C_17  and  C_18
REMARK   10  A    between atoms: C_18  and  C_19
REMARK   11  A    between atoms: C_18  and  C_20
REMARK   12  A    between atoms: C_21  and  C_22
REMARK   13  A    between atoms: C_22  and  N_23
REMARK                            x       y       z     vdW  Elec       q    Type
REMARK                         _______ _______ _______ _____ _____    ______ ____
ROOT
ATOM      1  C   UNL     1       2.969   5.487  18.132  0.00  0.00    +0.000 A 
ATOM      2  C   UNL     1       2.420   4.241  18.624  0.00  0.00    +0.000 A 
ATOM      3  C   UNL     1       2.962   3.027  18.127  0.00  0.00    +0.000 A 
ATOM      4  C   UNL     1       2.435   1.650  18.454  0.00  0.00    +0.000 C 
ATOM      5  N   UNL     1       3.968   3.063  17.238  0.00  0.00    +0.000 NA
ATOM      6  C   UNL     1       4.518   4.181  16.719  0.00  0.00    +0.000 A 
ATOM      7  C   UNL     1       4.027   5.460  17.136  0.00  0.00    +0.000 A 
ENDROOT
BRANCH   1  12
ATOM      8  C   UNL     1       0.631  10.477  20.112  0.00  0.00    +0.000 C 
ATOM      9  C   UNL     1       1.273   9.213  19.625  0.00  0.00    +0.000 A 
ATOM     10  C   UNL     1       1.710   8.229  20.518  0.00  0.00    +0.000 A 
ATOM     11  C   UNL     1       2.278   7.050  20.034  0.00  0.00    +0.000 A 
ATOM     12  C   UNL     1       2.400   6.798  18.646  0.00  0.00    +0.000 A 
ATOM     13  C   UNL     1       1.958   7.810  17.772  0.00  0.00    +0.000 A 
ATOM     14  C   UNL     1       1.419   8.999  18.255  0.00  0.00    +0.000 A 
ENDBRANCH   1  12
BRANCH   2  15
ATOM     15  C   UNL     1       1.204   4.186  19.571  0.00  0.00    +0.000 C 
BRANCH  15  16
ATOM     16  C   UNL     1       1.563   4.299  21.078  0.00  0.00    +0.000 C 
BRANCH  16  17
ATOM     17  C   UNL     1       1.937   2.974  21.702  0.00  0.00    +0.000 C 
ATOM     18  O   UNL     1       1.107   2.296  22.296  0.00  0.00    +0.000 OA
BRANCH  17  19
ATOM     19  O   UNL     1       3.209   2.523  21.635  0.00  0.00    +0.000 OA
ATOM     20  H   UNL     1       3.427   1.697  21.179  0.00  0.00    +0.000 HD
ENDBRANCH  17  19
ENDBRANCH  16  17
ENDBRANCH  15  16
ENDBRANCH   2  15
BRANCH   6  21
ATOM     21  C   UNL     1       5.636   3.902  15.717  0.00  0.00    +0.000 C 
BRANCH  21  22
ATOM     22  C   UNL     1       6.819   4.889  15.838  0.00  0.00    +0.000 C 
ATOM     23  C   UNL     1       7.725   4.521  17.020  0.00  0.00    +0.000 C 
ATOM     24  C   UNL     1       7.639   4.880  14.535  0.00  0.00    +0.000 C 
ENDBRANCH  21  22
ENDBRANCH   6  21
BRANCH   7  25
ATOM     25  C   UNL     1       4.542   6.785  16.531  0.00  0.00    +0.000 C 
BRANCH  25  26
ATOM     26  N   UNL     1       5.606   7.466  17.258  0.00  0.00    +0.000 NA
ATOM     27  H   UNL     1       6.056   6.820  17.944  0.00  0.00    +0.000 HD
ATOM     28  H   UNL     1       5.184   8.259  17.801  0.00  0.00    +0.000 HD
ENDBRANCH  25  26
ENDBRANCH   7  25
TORSDOF 9
ENDMDL
MODEL 8
REMARK VINA RESULT:      -6.9      2.160      2.844
REMARK  Name = 
REMARK  13 active torsions:
REMARK  status: ('A' for Active; 'I' for Inactive)
REMARK    1  A    between atoms: C_1  and  C_2
REMARK    2  A    between atoms: C_5  and  C_6
REMARK    3  A    between atoms: C_7  and  C_8
REMARK    4  A    between atoms: C_8  and  C_9
REMARK    5  A    between atoms: C_9  and  C_10
REMARK    6  A    between atoms: C_10  and  O_12
REMARK    7  A    between atoms: C_13  and  C_14
REMARK    8  A    between atoms: C_16  and  C_17
REMARK    9  A    between atoms: C_17  and  C_18
REMARK   10  A    between atoms: C_18  and  C_19
REMARK   11  A    between atoms: C_18  and  C_20
REMARK   12  A    between atoms: C_21  and  C_22
REMARK   13  A    between atoms: C_22  and  N_23
REMARK                            x       y       z     vdW  Elec       q    Type
REMARK                         _______ _______ _______ _____ _____    ______ ____
ROOT
ATOM      1  C   UNL     1       3.465   5.929  19.117  0.00  0.00    +0.000 A 
ATOM      2  C   UNL     1       3.189   4.739  19.894  0.00  0.00    +0.000 A 
ATOM      3  C   UNL     1       4.128   3.676  19.850  0.00  0.00    +0.000 A 
ATOM      4  C   UNL     1       3.942   2.332  20.513  0.00  0.00    +0.000 C 
ATOM      5  N   UNL     1       5.243   3.806  19.112  0.00  0.00    +0.000 NA
ATOM      6  C   UNL     1       5.560   4.872  18.348  0.00  0.00    +0.000 A 
ATOM      7  C   UNL     1       4.666   5.990  18.303  0.00  0.00    +0.000 A 
ENDROOT
BRANCH   1  12
ATOM      8  C   UNL     1      -0.253  10.452  19.234  0.00  0.00    +0.000 C 
ATOM      9  C   UNL     1       0.663   9.266  19.182  0.00  0.00    +0.000 A 
ATOM     10  C   UNL     1       1.133   8.764  17.964  0.00  0.00    +0.000 A 
ATOM     11  C   UNL     1       2.008   7.676  17.949  0.00  0.00    +0.000 A 
ATOM     12  C   UNL     1       2.469   7.076  19.146  0.00  0.00    +0.000 A 
ATOM     13  C   UNL     1       1.973   7.599  20.356  0.00  0.00    +0.000 A 
ATOM     14  C   UNL     1       1.076   8.664  20.370  0.00  0.00    +0.000 A 
ENDBRANCH   1  12
BRANCH   2  15
ATOM     15  C   UNL     1       1.870   4.541  20.669  0.00  0.00    +0.000 C 
BRANCH  15  16
ATOM     16  C   UNL     1       0.667   4.113  19.785  0.00  0.00    +0.000 C 
BRANCH  16  17
ATOM     17  C   UNL     1       1.071   3.270  18.597  0.00  0.00    +0.000 C 
ATOM     18  O   UNL     1       1.274   3.777  17.499  0.00  0.00    +0.000 OA
BRANCH  17  19
ATOM     19  O   UNL     1       1.194   1.930  18.721  0.00  0.00    +0.000 OA
ATOM     20  H   UNL     1       2.056   1.495  18.649  0.00  0.00    +0.000 HD
ENDBRANCH  17  19
ENDBRANCH  16  17
ENDBRANCH  15  16
ENDBRANCH   2  15
BRANCH   6  21
ATOM     21  C   UNL     1       6.888   4.720  17.610  0.00  0.00    +0.000 C 
BRANCH  21  22
ATOM     22  C   UNL     1       8.029   5.555  18.236  0.00  0.00    +0.000 C 
ATOM     23  C   UNL     1       7.943   7.022  17.797  0.00  0.00    +0.000 C 
ATOM     24  C   UNL     1       7.955   5.470  19.771  0.00  0.00    +0.000 C 
ENDBRANCH  21  22
ENDBRANCH   6  21
BRANCH   7  25
ATOM     25  C   UNL     1       4.911   7.213  17.391  0.00  0.00    +0.000 C 
BRANCH  25  26
ATOM     26  N   UNL     1       4.968   6.958  15.956  0.00  0.00    +0.000 NA
ATOM     27  H   UNL     1       5.929   7.137  15.588  0.00  0.00    +0.000 HD
ATOM     28  H   UNL     1       4.315   7.623  15.473  0.00  0.00    +0.000 HD
ENDBRANCH  25  26
ENDBRANCH   7  25
TORSDOF 9
ENDMDL
MODEL 9
REMARK VINA RESULT:      -6.8      5.707      8.475
REMARK  Name = 
REMARK  13 active torsions:
REMARK  status: ('A' for Active; 'I' for Inactive)
REMARK    1  A    between atoms: C_1  and  C_2
REMARK    2  A    between atoms: C_5  and  C_6
REMARK    3  A    between atoms: C_7  and  C_8
REMARK    4  A    between atoms: C_8  and  C_9
REMARK    5  A    between atoms: C_9  and  C_10
REMARK    6  A    between atoms: C_10  and  O_12
REMARK    7  A    between atoms: C_13  and  C_14
REMARK    8  A    between atoms: C_16  and  C_17
REMARK    9  A    between atoms: C_17  and  C_18
REMARK   10  A    between atoms: C_18  and  C_19
REMARK   11  A    between atoms: C_18  and  C_20
REMARK   12  A    between atoms: C_21  and  C_22
REMARK   13  A    between atoms: C_22  and  N_23
REMARK                            x       y       z     vdW  Elec       q    Type
REMARK                         _______ _______ _______ _____ _____    ______ ____
ROOT
ATOM      1  C   UNL     1      -0.058  12.349  20.159  0.00  0.00    +0.000 A 
ATOM      2  C   UNL     1       0.316  11.014  19.743  0.00  0.00    +0.000 A 
ATOM      3  C   UNL     1       1.381  10.874  18.814  0.00  0.00    +0.000 A 
ATOM      4  C   UNL     1       1.824   9.568  18.200  0.00  0.00    +0.000 C 
ATOM      5  N   UNL     1       2.016  11.968  18.364  0.00  0.00    +0.000 NA
ATOM      6  C   UNL     1       1.714  13.243  18.689  0.00  0.00    +0.000 A 
ATOM      7  C   UNL     1       0.639  13.495  19.601  0.00  0.00    +0.000 A 
ENDROOT
BRANCH   1  12
ATOM      8  C   UNL     1      -4.462  12.855  23.985  0.00  0.00    +0.000 C 
ATOM      9  C   UNL     1      -3.320  12.771  23.018  0.00  0.00    +0.000 A 
ATOM     10  C   UNL     1      -1.993  12.738  23.461  0.00  0.00    +0.000 A 
ATOM     11  C   UNL     1      -0.952  12.631  22.538  0.00  0.00    +0.000 A 
ATOM     12  C   UNL     1      -1.198  12.520  21.148  0.00  0.00    +0.000 A 
ATOM     13  C   UNL     1      -2.543  12.564  20.731  0.00  0.00    +0.000 A 
ATOM     14  C   UNL     1      -3.581  12.701  21.649  0.00  0.00    +0.000 A 
ENDBRANCH   1  12
BRANCH   2  15
ATOM     15  C   UNL     1      -0.465   9.758  20.180  0.00  0.00    +0.000 C 
BRANCH  15  16
ATOM     16  C   UNL     1       0.300   8.844  21.176  0.00  0.00    +0.000 C 
BRANCH  16  17
ATOM     17  C   UNL     1       0.198   9.309  22.610  0.00  0.00    +0.000 C 
ATOM     18  O   UNL     1       1.179   9.731  23.212  0.00  0.00    +0.000 OA
BRANCH  17  19
ATOM     19  O   UNL     1      -0.982   9.245  23.267  0.00  0.00    +0.000 OA
ATOM     20  H   UNL     1      -1.739   9.783  22.995  0.00  0.00    +0.000 HD
ENDBRANCH  17  19
ENDBRANCH  16  17
ENDBRANCH  15  16
ENDBRANCH   2  15
BRANCH   6  21
ATOM     21  C   UNL     1       2.605  14.275  18.002  0.00  0.00    +0.000 C 
BRANCH  21  22
ATOM     22  C   UNL     1       4.022  14.355  18.615  0.00  0.00    +0.000 C 
ATOM     23  C   UNL     1       4.969  15.154  17.709  0.00  0.00    +0.000 C 
ATOM     24  C   UNL     1       3.953  15.017  20.003  0.00  0.00    +0.000 C 
ENDBRANCH  21  22
ENDBRANCH   6  21
BRANCH   7  25
ATOM     25  C   UNL     1       0.173  14.923  19.961  0.00  0.00    +0.000 C 
BRANCH  25  26
ATOM     26  N   UNL     1      -0.804  15.537  19.068  0.00  0.00    +0.000 NA
ATOM     27  H   UNL     1      -0.604  15.285  18.074  0.00  0.00    +0.000 HD
ATOM     28  H   UNL     1      -0.722  16.580  19.152  0.00  0.00    +0.000 HD
ENDBRANCH  25  26
ENDBRANCH   7  25
TORSDOF 9
ENDMDL
