MODEL 1
REMARK VINA RESULT:      -8.1      0.000      0.000
REMARK  Name = 
REMARK  4 active torsions:
REMARK  status: ('A' for Active; 'I' for Inactive)
REMARK    1  A    between atoms: C_1  and  N_2
REMARK    2  A    between atoms: C_9  and  N_10
REMARK    3  A    between atoms: N_10  and  C_11
REMARK    4  A    between atoms: C_14  and  C_15
REMARK                            x       y       z     vdW  Elec       q    Type
REMARK                         _______ _______ _______ _____ _____    ______ ____
ROOT
ATOM      1  C   UNL     1       1.422   3.269  21.277  0.00  0.00    +0.000 C 
ATOM      2  N   UNL     1       2.232   3.572  20.109  0.00  0.00    +0.000 N 
ATOM      3  C   UNL     1       2.886   2.527  19.478  0.00  0.00    +0.000 A 
ATOM      4  O   UNL     1       2.815   1.348  19.821  0.00  0.00    +0.000 OA
ATOM      5  C   UNL     1       3.722   2.859  18.303  0.00  0.00    +0.000 A 
ATOM      6  C   UNL     1       3.910   4.109  17.851  0.00  0.00    +0.000 A 
ATOM      7  C   UNL     1       3.219   5.198  18.581  0.00  0.00    +0.000 A 
ATOM      8  C   UNL     1       3.407   6.533  18.171  0.00  0.00    +0.000 A 
ATOM      9  C   UNL     1       2.614   7.577  18.701  0.00  0.00    +0.000 A 
ATOM     10  C   UNL     1       1.803   7.282  19.801  0.00  0.00    +0.000 A 
ATOM     11  C   UNL     1       1.690   5.974  20.284  0.00  0.00    +0.000 A 
ATOM     12  C   UNL     1       2.367   4.919  19.662  0.00  0.00    +0.000 A 
ATOM     13  C   UNL     1       4.550   6.789  17.254  0.00  0.00    +0.000 C 
ATOM     14  O   UNL     1       5.206   7.821  17.328  0.00  0.00    +0.000 OA
ATOM     15  C   UNL     1       4.992   5.725  16.329  0.00  0.00    +0.000 A 
ATOM     16  C   UNL     1       5.726   6.085  15.190  0.00  0.00    +0.000 A 
ATOM     17  C   UNL     1       6.245   5.097  14.359  0.00  0.00    +0.000 A 
ATOM     18  C   UNL     1       6.035   3.758  14.673  0.00  0.00    +0.000 A 
ATOM     19  C   UNL     1       5.278   3.402  15.797  0.00  0.00    +0.000 A 
ATOM     20  C   UNL     1       4.736   4.383  16.645  0.00  0.00    +0.000 A 
ENDROOT
BRANCH   9  21
ATOM     21  N   UNL     1       2.575   8.919  18.226  0.00  0.00    +0.000 N 
ATOM     22  H   UNL     1       3.055   8.981  17.330  0.00  0.00    +0.000 HD
BRANCH  21  23
ATOM     23  C   UNL     1       1.429   9.756  18.255  0.00  0.00    +0.000 A 
ATOM     24  C   UNL     1       1.435  10.962  18.971  0.00  0.00    +0.000 A 
ATOM     25  C   UNL     1       0.246  11.645  19.216  0.00  0.00    +0.000 A 
ATOM     26  C   UNL     1      -0.951  11.152  18.690  0.00  0.00    +0.000 A 
ATOM     27  C   UNL     1      -0.945  10.045  17.842  0.00  0.00    +0.000 A 
ATOM     28  C   UNL     1       0.249   9.354  17.614  0.00  0.00    +0.000 A 
BRANCH  26  29
ATOM     29  C   UNL     1      -2.234  11.759  19.090  0.00  0.00    +0.000 C 
ATOM     30  O   UNL     1      -3.275  11.540  18.484  0.00  0.00    +0.000 OA
ENDBRANCH  26  29
ENDBRANCH  21  23
ENDBRANCH   9  21
TORSDOF 3
ENDMDL
MODEL 2
REMARK VINA RESULT:      -8.0      0.604      1.019
REMARK  Name = 
REMARK  4 active torsions:
REMARK  status: ('A' for Active; 'I' for Inactive)
REMARK    1  A    between atoms: C_1  and  N_2
REMARK    2  A    between atoms: C_9  and  N_10
REMARK    3  A    between atoms: N_10  and  C_11
REMARK    4  A    between atoms: C_14  and  C_15
REMARK                            x       y       z     vdW  Elec       q    Type
REMARK                         _______ _______ _______ _____ _____    ______ ____
ROOT
ATOM      1  C   UNL     1       1.892   2.571  21.235  0.00  0.00    +0.000 C 
ATOM      2  N   UNL     1       2.608   3.039  20.059  0.00  0.00    +0.000 N 
ATOM      3  C   UNL     1       3.330   2.115  19.323  0.00  0.00    +0.000 A 
ATOM      4  O   UNL     1       3.393   0.914  19.577  0.00  0.00    +0.000 OA
ATOM      5  C   UNL     1       4.068   2.615  18.141  0.00  0.00    +0.000 A 
ATOM      6  C   UNL     1       4.108   3.907  17.779  0.00  0.00    +0.000 A 
ATOM      7  C   UNL     1       3.350   4.864  18.620  0.00  0.00    +0.000 A 
ATOM      8  C   UNL     1       3.384   6.237  18.307  0.00  0.00    +0.000 A 
ATOM      9  C   UNL     1       2.520   7.154  18.949  0.00  0.00    +0.000 A 
ATOM     10  C   UNL     1       1.799   6.698  20.057  0.00  0.00    +0.000 A 
ATOM     11  C   UNL     1       1.840   5.354  20.441  0.00  0.00    +0.000 A 
ATOM     12  C   UNL     1       2.586   4.421  19.712  0.00  0.00    +0.000 A 
ATOM     13  C   UNL     1       4.449   6.674  17.363  0.00  0.00    +0.000 C 
ATOM     14  O   UNL     1       5.002   7.760  17.488  0.00  0.00    +0.000 OA
ATOM     15  C   UNL     1       4.946   5.732  16.342  0.00  0.00    +0.000 A 
ATOM     16  C   UNL     1       5.583   6.246  15.203  0.00  0.00    +0.000 A 
ATOM     17  C   UNL     1       6.154   5.379  14.277  0.00  0.00    +0.000 A 
ATOM     18  C   UNL     1       6.094   4.006  14.495  0.00  0.00    +0.000 A 
ATOM     19  C   UNL     1       5.434   3.495  15.621  0.00  0.00    +0.000 A 
ATOM     20  C   UNL     1       4.842   4.351  16.564  0.00  0.00    +0.000 A 
ENDROOT
BRANCH   9  21
ATOM     21  N   UNL     1       2.324   8.515  18.580  0.00  0.00    +0.000 N 
ATOM     22  H   UNL     1       2.675   8.670  17.637  0.00  0.00    +0.000 HD
BRANCH  21  23
ATOM     23  C   UNL     1       1.136   9.255  18.815  0.00  0.00    +0.000 A 
ATOM     24  C   UNL     1       0.150   9.370  17.825  0.00  0.00    +0.000 A 
ATOM     25  C   UNL     1      -0.879  10.300  17.956  0.00  0.00    +0.000 A 
ATOM     26  C   UNL     1      -0.959  11.079  19.112  0.00  0.00    +0.000 A 
ATOM     27  C   UNL     1      -0.079  10.860  20.173  0.00  0.00    +0.000 A 
ATOM     28  C   UNL     1       0.962   9.937  20.028  0.00  0.00    +0.000 A 
BRANCH  26  29
ATOM     29  C   UNL     1      -1.928  12.188  19.186  0.00  0.00    +0.000 C 
ATOM     30  O   UNL     1      -3.119  12.028  18.950  0.00  0.00    +0.000 OA
ENDBRANCH  26  29
ENDBRANCH  21  23
ENDBRANCH   9  21
TORSDOF 3
ENDMDL
MODEL 3
REMARK VINA RESULT:      -7.8      3.984     10.208
REMARK  Name = 
REMARK  4 active torsions:
REMARK  status: ('A' for Active; 'I' for Inactive)
REMARK    1  A    between atoms: C_1  and  N_2
REMARK    2  A    between atoms: C_9  and  N_10
REMARK    3  A    between atoms: N_10  and  C_11
REMARK    4  A    between atoms: C_14  and  C_15
REMARK                            x       y       z     vdW  Elec       q    Type
REMARK                         _______ _______ _______ _____ _____    ______ ____
ROOT
ATOM      1  C   UNL     1      -6.752  11.142  18.201  0.00  0.00    +0.000 C 
ATOM      2  N   UNL     1      -5.841  11.704  19.185  0.00  0.00    +0.000 N 
ATOM      3  C   UNL     1      -6.379  12.244  20.341  0.00  0.00    +0.000 A 
ATOM      4  O   UNL     1      -7.578  12.265  20.611  0.00  0.00    +0.000 OA
ATOM      5  C   UNL     1      -5.437  12.828  21.321  0.00  0.00    +0.000 A 
ATOM      6  C   UNL     1      -4.110  12.900  21.128  0.00  0.00    +0.000 A 
ATOM      7  C   UNL     1      -3.585  12.342  19.859  0.00  0.00    +0.000 A 
ATOM      8  C   UNL     1      -2.204  12.420  19.589  0.00  0.00    +0.000 A 
ATOM      9  C   UNL     1      -1.634  11.724  18.498  0.00  0.00    +0.000 A 
ATOM     10  C   UNL     1      -2.506  11.148  17.569  0.00  0.00    +0.000 A 
ATOM     11  C   UNL     1      -3.889  11.157  17.775  0.00  0.00    +0.000 A 
ATOM     12  C   UNL     1      -4.438  11.722  18.932  0.00  0.00    +0.000 A 
ATOM     13  C   UNL     1      -1.416  13.357  20.434  0.00  0.00    +0.000 C 
ATOM     14  O   UNL     1      -0.477  13.994  19.971  0.00  0.00    +0.000 OA
ATOM     15  C   UNL     1      -1.854  13.633  21.817  0.00  0.00    +0.000 A 
ATOM     16  C   UNL     1      -0.916  14.124  22.736  0.00  0.00    +0.000 A 
ATOM     17  C   UNL     1      -1.325  14.491  24.014  0.00  0.00    +0.000 A 
ATOM     18  C   UNL     1      -2.666  14.374  24.366  0.00  0.00    +0.000 A 
ATOM     19  C   UNL     1      -3.596  13.857  23.453  0.00  0.00    +0.000 A 
ATOM     20  C   UNL     1      -3.204  13.471  22.161  0.00  0.00    +0.000 A 
ENDROOT
BRANCH   9  21
ATOM     21  N   UNL     1      -0.242  11.566  18.244  0.00  0.00    +0.000 N 
ATOM     22  H   UNL     1       0.230  12.463  18.341  0.00  0.00    +0.000 HD
BRANCH  21  23
ATOM     23  C   UNL     1       0.558  10.507  18.746  0.00  0.00    +0.000 A 
ATOM     24  C   UNL     1       1.409   9.782  17.899  0.00  0.00    +0.000 A 
ATOM     25  C   UNL     1       1.988   8.590  18.329  0.00  0.00    +0.000 A 
ATOM     26  C   UNL     1       1.763   8.148  19.635  0.00  0.00    +0.000 A 
ATOM     27  C   UNL     1       1.052   8.943  20.535  0.00  0.00    +0.000 A 
ATOM     28  C   UNL     1       0.460  10.129  20.093  0.00  0.00    +0.000 A 
BRANCH  26  29
ATOM     29  C   UNL     1       2.216   6.806  20.045  0.00  0.00    +0.000 C 
ATOM     30  O   UNL     1       3.132   6.226  19.477  0.00  0.00    +0.000 OA
ENDBRANCH  26  29
ENDBRANCH  21  23
ENDBRANCH   9  21
TORSDOF 3
ENDMDL
MODEL 4
REMARK VINA RESULT:      -7.8      2.977      9.655
REMARK  Name = 
REMARK  4 active torsions:
REMARK  status: ('A' for Active; 'I' for Inactive)
REMARK    1  A    between atoms: C_1  and  N_2
REMARK    2  A    between atoms: C_9  and  N_10
REMARK    3  A    between atoms: N_10  and  C_11
REMARK    4  A    between atoms: C_14  and  C_15
REMARK                            x       y       z     vdW  Elec       q    Type
REMARK                         _______ _______ _______ _____ _____    ______ ____
ROOT
ATOM      1  C   UNL     1      -3.902  10.726  15.661  0.00  0.00    +0.000 C 
ATOM      2  N   UNL     1      -3.741  11.181  17.032  0.00  0.00    +0.000 N 
ATOM      3  C   UNL     1      -4.766  11.916  17.602  0.00  0.00    +0.000 A 
ATOM      4  O   UNL     1      -5.822  12.198  17.038  0.00  0.00    +0.000 OA
ATOM      5  C   UNL     1      -4.575  12.387  18.991  0.00  0.00    +0.000 A 
ATOM      6  C   UNL     1      -3.455  12.177  19.702  0.00  0.00    +0.000 A 
ATOM      7  C   UNL     1      -2.370  11.417  19.036  0.00  0.00    +0.000 A 
ATOM      8  C   UNL     1      -1.160  11.196  19.723  0.00  0.00    +0.000 A 
ATOM      9  C   UNL     1      -0.184  10.308  19.214  0.00  0.00    +0.000 A 
ATOM     10  C   UNL     1      -0.355   9.836  17.909  0.00  0.00    +0.000 A 
ATOM     11  C   UNL     1      -1.508  10.137  17.178  0.00  0.00    +0.000 A 
ATOM     12  C   UNL     1      -2.537  10.898  17.742  0.00  0.00    +0.000 A 
ATOM     13  C   UNL     1      -0.923  12.030  20.932  0.00  0.00    +0.000 C 
ATOM     14  O   UNL     1       0.200  12.425  21.222  0.00  0.00    +0.000 OA
ATOM     15  C   UNL     1      -2.074  12.507  21.723  0.00  0.00    +0.000 A 
ATOM     16  C   UNL     1      -1.867  12.883  23.058  0.00  0.00    +0.000 A 
ATOM     17  C   UNL     1      -2.910  13.435  23.793  0.00  0.00    +0.000 A 
ATOM     18  C   UNL     1      -4.152  13.616  23.192  0.00  0.00    +0.000 A 
ATOM     19  C   UNL     1      -4.363  13.216  21.866  0.00  0.00    +0.000 A 
ATOM     20  C   UNL     1      -3.327  12.647  21.107  0.00  0.00    +0.000 A 
ENDROOT
BRANCH   9  21
ATOM     21  N   UNL     1       0.976   9.856  19.906  0.00  0.00    +0.000 N 
ATOM     22  H   UNL     1       0.906  10.102  20.891  0.00  0.00    +0.000 HD
BRANCH  21  23
ATOM     23  C   UNL     1       1.576   8.581  19.735  0.00  0.00    +0.000 A 
ATOM     24  C   UNL     1       2.278   8.266  18.562  0.00  0.00    +0.000 A 
ATOM     25  C   UNL     1       2.636   6.949  18.285  0.00  0.00    +0.000 A 
ATOM     26  C   UNL     1       2.344   5.946  19.213  0.00  0.00    +0.000 A 
ATOM     27  C   UNL     1       1.791   6.272  20.452  0.00  0.00    +0.000 A 
ATOM     28  C   UNL     1       1.419   7.593  20.717  0.00  0.00    +0.000 A 
BRANCH  26  29
ATOM     29  C   UNL     1       2.551   4.531  18.855  0.00  0.00    +0.000 C 
ATOM     30  O   UNL     1       1.620   3.742  18.753  0.00  0.00    +0.000 OA
ENDBRANCH  26  29
ENDBRANCH  21  23
ENDBRANCH   9  21
TORSDOF 3
ENDMDL
MODEL 5
REMARK VINA RESULT:      -7.8      1.035      1.368
REMARK  Name = 
REMARK  4 active torsions:
REMARK  status: ('A' for Active; 'I' for Inactive)
REMARK    1  A    between atoms: C_1  and  N_2
REMARK    2  A    between atoms: C_9  and  N_10
REMARK    3  A    between atoms: N_10  and  C_11
REMARK    4  A    between atoms: C_14  and  C_15
REMARK                            x       y       z     vdW  Elec       q    Type
REMARK                         _______ _______ _______ _____ _____    ______ ____
ROOT
ATOM      1  C   UNL     1       2.178   3.650  21.767  0.00  0.00    +0.000 C 
ATOM      2  N   UNL     1       2.869   3.862  20.506  0.00  0.00    +0.000 N 
ATOM      3  C   UNL     1       3.653   2.835  20.009  0.00  0.00    +0.000 A 
ATOM      4  O   UNL     1       3.793   1.738  20.548  0.00  0.00    +0.000 OA
ATOM      5  C   UNL     1       4.365   3.078  18.735  0.00  0.00    +0.000 A 
ATOM      6  C   UNL     1       4.323   4.243  18.069  0.00  0.00    +0.000 A 
ATOM      7  C   UNL     1       3.500   5.326  18.660  0.00  0.00    +0.000 A 
ATOM      8  C   UNL     1       3.448   6.580  18.021  0.00  0.00    +0.000 A 
ATOM      9  C   UNL     1       2.522   7.568  18.430  0.00  0.00    +0.000 A 
ATOM     10  C   UNL     1       1.825   7.350  19.622  0.00  0.00    +0.000 A 
ATOM     11  C   UNL     1       1.951   6.147  20.322  0.00  0.00    +0.000 A 
ATOM     12  C   UNL     1       2.760   5.114  19.834  0.00  0.00    +0.000 A 
ATOM     13  C   UNL     1       4.487   6.842  16.989  0.00  0.00    +0.000 C 
ATOM     14  O   UNL     1       4.968   7.959  16.840  0.00  0.00    +0.000 OA
ATOM     15  C   UNL     1       5.051   5.713  16.222  0.00  0.00    +0.000 A 
ATOM     16  C   UNL     1       5.660   5.974  14.986  0.00  0.00    +0.000 A 
ATOM     17  C   UNL     1       6.291   4.946  14.294  0.00  0.00    +0.000 A 
ATOM     18  C   UNL     1       6.318   3.667  14.840  0.00  0.00    +0.000 A 
ATOM     19  C   UNL     1       5.686   3.404  16.062  0.00  0.00    +0.000 A 
ATOM     20  C   UNL     1       5.034   4.424  16.775  0.00  0.00    +0.000 A 
ENDROOT
BRANCH   9  21
ATOM     21  N   UNL     1       2.241   8.784  17.743  0.00  0.00    +0.000 N 
ATOM     22  H   UNL     1       2.008   8.584  16.772  0.00  0.00    +0.000 HD
BRANCH  21  23
ATOM     23  C   UNL     1       1.445   9.840  18.257  0.00  0.00    +0.000 A 
ATOM     24  C   UNL     1       0.045   9.793  18.176  0.00  0.00    +0.000 A 
ATOM     25  C   UNL     1      -0.717  10.929  18.437  0.00  0.00    +0.000 A 
ATOM     26  C   UNL     1      -0.081  12.106  18.842  0.00  0.00    +0.000 A 
ATOM     27  C   UNL     1       1.294  12.118  19.082  0.00  0.00    +0.000 A 
ATOM     28  C   UNL     1       2.054  10.979  18.802  0.00  0.00    +0.000 A 
BRANCH  26  29
ATOM     29  C   UNL     1      -0.851  13.359  18.945  0.00  0.00    +0.000 C 
ATOM     30  O   UNL     1      -0.364  14.447  18.664  0.00  0.00    +0.000 OA
ENDBRANCH  26  29
ENDBRANCH  21  23
ENDBRANCH   9  21
TORSDOF 3
ENDMDL
MODEL 6
REMARK VINA RESULT:      -7.7      2.948      9.725
REMARK  Name = 
REMARK  4 active torsions:
REMARK  status: ('A' for Active; 'I' for Inactive)
REMARK    1  A    between atoms: C_1  and  N_2
REMARK    2  A    between atoms: C_9  and  N_10
REMARK    3  A    between atoms: N_10  and  C_11
REMARK    4  A    between atoms: C_14  and  C_15
REMARK                            x       y       z     vdW  Elec       q    Type
REMARK                         _______ _______ _______ _____ _____    ______ ____
ROOT
ATOM      1  C   UNL     1      -4.095  10.742  15.712  0.00  0.00    +0.000 C 
ATOM      2  N   UNL     1      -3.878  11.195  17.076  0.00  0.00    +0.000 N 
ATOM      3  C   UNL     1      -4.874  11.939  17.685  0.00  0.00    +0.000 A 
ATOM      4  O   UNL     1      -5.949  12.229  17.162  0.00  0.00    +0.000 OA
ATOM      5  C   UNL     1      -4.625  12.408  19.066  0.00  0.00    +0.000 A 
ATOM      6  C   UNL     1      -3.480  12.189  19.732  0.00  0.00    +0.000 A 
ATOM      7  C   UNL     1      -2.428  11.420  19.025  0.00  0.00    +0.000 A 
ATOM      8  C   UNL     1      -1.194  11.190  19.664  0.00  0.00    +0.000 A 
ATOM      9  C   UNL     1      -0.246  10.294  19.117  0.00  0.00    +0.000 A 
ATOM     10  C   UNL     1      -0.471   9.823  17.820  0.00  0.00    +0.000 A 
ATOM     11  C   UNL     1      -1.649  10.133  17.134  0.00  0.00    +0.000 A 
ATOM     12  C   UNL     1      -2.650  10.903  17.739  0.00  0.00    +0.000 A 
ATOM     13  C   UNL     1      -0.903  12.022  20.863  0.00  0.00    +0.000 C 
ATOM     14  O   UNL     1       0.234  12.408  21.108  0.00  0.00    +0.000 OA
ATOM     15  C   UNL     1      -2.019  12.508  21.698  0.00  0.00    +0.000 A 
ATOM     16  C   UNL     1      -1.757  12.882  23.024  0.00  0.00    +0.000 A 
ATOM     17  C   UNL     1      -2.766  13.442  23.799  0.00  0.00    +0.000 A 
ATOM     18  C   UNL     1      -4.029  13.633  23.247  0.00  0.00    +0.000 A 
ATOM     19  C   UNL     1      -4.295  13.234  21.930  0.00  0.00    +0.000 A 
ATOM     20  C   UNL     1      -3.294  12.657  21.132  0.00  0.00    +0.000 A 
ENDROOT
BRANCH   9  21
ATOM     21  N   UNL     1       0.936   9.833  19.764  0.00  0.00    +0.000 N 
ATOM     22  H   UNL     1       0.924  10.110  20.743  0.00  0.00    +0.000 HD
BRANCH  21  23
ATOM     23  C   UNL     1       1.496   8.538  19.602  0.00  0.00    +0.000 A 
ATOM     24  C   UNL     1       1.388   7.575  20.616  0.00  0.00    +0.000 A 
ATOM     25  C   UNL     1       2.151   6.411  20.569  0.00  0.00    +0.000 A 
ATOM     26  C   UNL     1       2.985   6.178  19.472  0.00  0.00    +0.000 A 
ATOM     27  C   UNL     1       2.978   7.051  18.384  0.00  0.00    +0.000 A 
ATOM     28  C   UNL     1       2.222   8.226  18.445  0.00  0.00    +0.000 A 
BRANCH  26  29
ATOM     29  C   UNL     1       3.930   5.047  19.495  0.00  0.00    +0.000 C 
ATOM     30  O   UNL     1       5.129   5.195  19.293  0.00  0.00    +0.000 OA
ENDBRANCH  26  29
ENDBRANCH  21  23
ENDBRANCH   9  21
TORSDOF 3
ENDMDL
MODEL 7
REMARK VINA RESULT:      -7.6      2.628      7.778
REMARK  Name = 
REMARK  4 active torsions:
REMARK  status: ('A' for Active; 'I' for Inactive)
REMARK    1  A    between atoms: C_1  and  N_2
REMARK    2  A    between atoms: C_9  and  N_10
REMARK    3  A    between atoms: N_10  and  C_11
REMARK    4  A    between atoms: C_14  and  C_15
REMARK                            x       y       z     vdW  Elec       q    Type
REMARK                         _______ _______ _______ _____ _____    ______ ____
ROOT
ATOM      1  C   UNL     1       2.336   9.873  17.756  0.00  0.00    +0.000 C 
ATOM      2  N   UNL     1       2.399   8.558  18.372  0.00  0.00    +0.000 N 
ATOM      3  C   UNL     1       1.539   8.285  19.422  0.00  0.00    +0.000 A 
ATOM      4  O   UNL     1       0.702   9.071  19.862  0.00  0.00    +0.000 OA
ATOM      5  C   UNL     1       1.633   6.948  20.048  0.00  0.00    +0.000 A 
ATOM      6  C   UNL     1       2.527   6.015  19.683  0.00  0.00    +0.000 A 
ATOM      7  C   UNL     1       3.452   6.367  18.578  0.00  0.00    +0.000 A 
ATOM      8  C   UNL     1       4.433   5.439  18.177  0.00  0.00    +0.000 A 
ATOM      9  C   UNL     1       5.195   5.646  17.003  0.00  0.00    +0.000 A 
ATOM     10  C   UNL     1       5.107   6.897  16.385  0.00  0.00    +0.000 A 
ATOM     11  C   UNL     1       4.209   7.866  16.841  0.00  0.00    +0.000 A 
ATOM     12  C   UNL     1       3.353   7.602  17.916  0.00  0.00    +0.000 A 
ATOM     13  C   UNL     1       4.698   4.311  19.109  0.00  0.00    +0.000 C 
ATOM     14  O   UNL     1       5.827   3.857  19.253  0.00  0.00    +0.000 OA
ATOM     15  C   UNL     1       3.613   3.817  19.980  0.00  0.00    +0.000 A 
ATOM     16  C   UNL     1       3.705   2.519  20.502  0.00  0.00    +0.000 A 
ATOM     17  C   UNL     1       2.751   2.067  21.408  0.00  0.00    +0.000 A 
ATOM     18  C   UNL     1       1.716   2.913  21.794  0.00  0.00    +0.000 A 
ATOM     19  C   UNL     1       1.612   4.200  21.250  0.00  0.00    +0.000 A 
ATOM     20  C   UNL     1       2.558   4.674  20.326  0.00  0.00    +0.000 A 
ENDROOT
BRANCH   9  21
ATOM     21  N   UNL     1       6.063   4.696  16.394  0.00  0.00    +0.000 N 
ATOM     22  H   UNL     1       6.007   3.810  16.892  0.00  0.00    +0.000 HD
BRANCH  21  23
ATOM     23  C   UNL     1       6.190   4.494  14.995  0.00  0.00    +0.000 A 
ATOM     24  C   UNL     1       5.269   3.700  14.295  0.00  0.00    +0.000 A 
ATOM     25  C   UNL     1       5.536   3.290  12.991  0.00  0.00    +0.000 A 
ATOM     26  C   UNL     1       6.704   3.726  12.359  0.00  0.00    +0.000 A 
ATOM     27  C   UNL     1       7.545   4.644  12.987  0.00  0.00    +0.000 A 
ATOM     28  C   UNL     1       7.280   5.038  14.302  0.00  0.00    +0.000 A 
BRANCH  26  29
ATOM     29  C   UNL     1       7.088   3.158  11.053  0.00  0.00    +0.000 C 
ATOM     30  O   UNL     1       7.571   2.037  10.947  0.00  0.00    +0.000 OA
ENDBRANCH  26  29
ENDBRANCH  21  23
ENDBRANCH   9  21
TORSDOF 3
ENDMDL
MODEL 8
REMARK VINA RESULT:      -7.6      6.838      9.292
REMARK  Name = 
REMARK  4 active torsions:
REMARK  status: ('A' for Active; 'I' for Inactive)
REMARK    1  A    between atoms: C_1  and  N_2
REMARK    2  A    between atoms: C_9  and  N_10
REMARK    3  A    between atoms: N_10  and  C_11
REMARK    4  A    between atoms: C_14  and  C_15
REMARK                            x       y       z     vdW  Elec       q    Type
REMARK                         _______ _______ _______ _____ _____    ______ ____
ROOT
ATOM      1  C   UNL     1      -4.695  14.292  23.176  0.00  0.00    +0.000 C 
ATOM      2  N   UNL     1      -4.368  13.609  21.936  0.00  0.00    +0.000 N 
ATOM      3  C   UNL     1      -5.381  13.402  21.016  0.00  0.00    +0.000 A 
ATOM      4  O   UNL     1      -6.544  13.777  21.159  0.00  0.00    +0.000 OA
ATOM      5  C   UNL     1      -5.032  12.687  19.768  0.00  0.00    +0.000 A 
ATOM      6  C   UNL     1      -3.809  12.197  19.508  0.00  0.00    +0.000 A 
ATOM      7  C   UNL     1      -2.766  12.410  20.540  0.00  0.00    +0.000 A 
ATOM      8  C   UNL     1      -1.474  11.888  20.334  0.00  0.00    +0.000 A 
ATOM      9  C   UNL     1      -0.401  12.239  21.186  0.00  0.00    +0.000 A 
ATOM     10  C   UNL     1      -0.707  12.932  22.362  0.00  0.00    +0.000 A 
ATOM     11  C   UNL     1      -2.010  13.364  22.626  0.00  0.00    +0.000 A 
ATOM     12  C   UNL     1      -3.041  13.139  21.708  0.00  0.00    +0.000 A 
ATOM     13  C   UNL     1      -1.335  10.868  19.259  0.00  0.00    +0.000 C 
ATOM     14  O   UNL     1      -0.559   9.927  19.372  0.00  0.00    +0.000 OA
ATOM     15  C   UNL     1      -2.244  10.910  18.096  0.00  0.00    +0.000 A 
ATOM     16  C   UNL     1      -1.849  10.277  16.909  0.00  0.00    +0.000 A 
ATOM     17  C   UNL     1      -2.728  10.210  15.833  0.00  0.00    +0.000 A 
ATOM     18  C   UNL     1      -3.997  10.768  15.949  0.00  0.00    +0.000 A 
ATOM     19  C   UNL     1      -4.379  11.424  17.128  0.00  0.00    +0.000 A 
ATOM     20  C   UNL     1      -3.504  11.512  18.223  0.00  0.00    +0.000 A 
ENDROOT
BRANCH   9  21
ATOM     21  N   UNL     1       0.973  11.939  20.965  0.00  0.00    +0.000 N 
ATOM     22  H   UNL     1       1.076  10.954  20.730  0.00  0.00    +0.000 HD
BRANCH  21  23
ATOM     23  C   UNL     1       1.868  12.744  20.214  0.00  0.00    +0.000 A 
ATOM     24  C   UNL     1       2.668  13.710  20.841  0.00  0.00    +0.000 A 
ATOM     25  C   UNL     1       3.342  14.668  20.086  0.00  0.00    +0.000 A 
ATOM     26  C   UNL     1       3.266  14.624  18.692  0.00  0.00    +0.000 A 
ATOM     27  C   UNL     1       2.606  13.572  18.055  0.00  0.00    +0.000 A 
ATOM     28  C   UNL     1       1.918  12.625  18.818  0.00  0.00    +0.000 A 
BRANCH  26  29
ATOM     29  C   UNL     1       3.820  15.730  17.890  0.00  0.00    +0.000 C 
ATOM     30  O   UNL     1       3.193  16.251  16.977  0.00  0.00    +0.000 OA
ENDBRANCH  26  29
ENDBRANCH  21  23
ENDBRANCH   9  21
TORSDOF 3
ENDMDL
MODEL 9
REMARK VINA RESULT:      -7.5      1.357      1.522
REMARK  Name = 
REMARK  4 active torsions:
REMARK  status: ('A' for Active; 'I' for Inactive)
REMARK    1  A    between atoms: C_1  and  N_2
REMARK    2  A    between atoms: C_9  and  N_10
REMARK    3  A    between atoms: N_10  and  C_11
REMARK    4  A    between atoms: C_14  and  C_15
REMARK                            x       y       z     vdW  Elec       q    Type
REMARK                         _______ _______ _______ _____ _____    ______ ____
ROOT
ATOM      1  C   UNL     1       2.216   3.638  21.809  0.00  0.00    +0.000 C 
ATOM      2  N   UNL     1       2.897   3.857  20.544  0.00  0.00    +0.000 N 
ATOM      3  C   UNL     1       3.713   2.850  20.058  0.00  0.00    +0.000 A 
ATOM      4  O   UNL     1       3.889   1.765  20.608  0.00  0.00    +0.000 OA
ATOM      5  C   UNL     1       4.414   3.101  18.779  0.00  0.00    +0.000 A 
ATOM      6  C   UNL     1       4.334   4.256  18.099  0.00  0.00    +0.000 A 
ATOM      7  C   UNL     1       3.478   5.318  18.679  0.00  0.00    +0.000 A 
ATOM      8  C   UNL     1       3.383   6.563  18.026  0.00  0.00    +0.000 A 
ATOM      9  C   UNL     1       2.427   7.526  18.425  0.00  0.00    +0.000 A 
ATOM     10  C   UNL     1       1.740   7.300  19.622  0.00  0.00    +0.000 A 
ATOM     11  C   UNL     1       1.906   6.109  20.335  0.00  0.00    +0.000 A 
ATOM     12  C   UNL     1       2.747   5.097  19.857  0.00  0.00    +0.000 A 
ATOM     13  C   UNL     1       4.412   6.846  16.988  0.00  0.00    +0.000 C 
ATOM     14  O   UNL     1       4.856   7.976  16.825  0.00  0.00    +0.000 OA
ATOM     15  C   UNL     1       5.010   5.726  16.234  0.00  0.00    +0.000 A 
ATOM     16  C   UNL     1       5.608   5.992  14.993  0.00  0.00    +0.000 A 
ATOM     17  C   UNL     1       6.270   4.977  14.311  0.00  0.00    +0.000 A 
ATOM     18  C   UNL     1       6.340   3.706  14.872  0.00  0.00    +0.000 A 
ATOM     19  C   UNL     1       5.719   3.437  16.099  0.00  0.00    +0.000 A 
ATOM     20  C   UNL     1       5.035   4.444  16.801  0.00  0.00    +0.000 A 
ENDROOT
BRANCH   9  21
ATOM     21  N   UNL     1       2.106   8.723  17.725  0.00  0.00    +0.000 N 
ATOM     22  H   UNL     1       1.603   8.497  16.869  0.00  0.00    +0.000 HD
BRANCH  21  23
ATOM     23  C   UNL     1       1.593   9.901  18.327  0.00  0.00    +0.000 A 
ATOM     24  C   UNL     1       2.240  11.135  18.165  0.00  0.00    +0.000 A 
ATOM     25  C   UNL     1       1.893  12.226  18.958  0.00  0.00    +0.000 A 
ATOM     26  C   UNL     1       0.851  12.101  19.880  0.00  0.00    +0.000 A 
ATOM     27  C   UNL     1       0.095  10.930  19.936  0.00  0.00    +0.000 A 
ATOM     28  C   UNL     1       0.459   9.834  19.149  0.00  0.00    +0.000 A 
BRANCH  26  29
ATOM     29  C   UNL     1       0.594  13.183  20.849  0.00  0.00    +0.000 C 
ATOM     30  O   UNL     1       0.284  12.956  22.012  0.00  0.00    +0.000 OA
ENDBRANCH  26  29
ENDBRANCH  21  23
ENDBRANCH   9  21
TORSDOF 3
ENDMDL
