MODEL 1
REMARK VINA RESULT:      -6.2      0.000      0.000
REMARK  Name = 
REMARK  7 active torsions:
REMARK  status: ('A' for Active; 'I' for Inactive)
REMARK    1  A    between atoms: C_1  and  C_2
REMARK    2  A    between atoms: C_5  and  N_6
REMARK    3  A    between atoms: C_13  and  C_14
REMARK    4  A    between atoms: C_14  and  C_15
REMARK    5  A    between atoms: C_14  and  C_16
REMARK    6  A    between atoms: C_14  and  C_17
REMARK    7  A    between atoms: C_20  and  C_21
REMARK                            x       y       z     vdW  Elec       q    Type
REMARK                         _______ _______ _______ _____ _____    ______ ____
ROOT
ATOM      1  C   UNL     1       0.161  15.842  18.522  0.00  0.00    +0.000 C 
ATOM      2  C   UNL     1       0.178  14.418  18.950  0.00  0.00    +0.000 A 
ATOM      3  N   UNL     1      -0.643  13.564  18.343  0.00  0.00    +0.000 NA
ATOM      4  N   UNL     1      -0.456  12.369  18.969  0.00  0.00    +0.000 N 
ATOM      5  C   UNL     1      -1.114  11.129  18.711  0.00  0.00    +0.000 A 
ATOM      6  C   UNL     1      -0.729  10.057  19.428  0.00  0.00    +0.000 A 
ATOM      7  C   UNL     1       0.325  10.243  20.471  0.00  0.00    +0.000 A 
ATOM      8  N   UNL     1       0.913  11.382  20.708  0.00  0.00    +0.000 NA
ATOM      9  C   UNL     1       0.535  12.468  19.960  0.00  0.00    +0.000 A 
ATOM     10  C   UNL     1       0.949  13.796  19.975  0.00  0.00    +0.000 A 
ENDROOT
BRANCH  10  11
ATOM     11  C   UNL     1       1.926  14.373  20.900  0.00  0.00    +0.000 A 
ATOM     12  C   UNL     1       3.280  14.004  20.833  0.00  0.00    +0.000 A 
ATOM     13  C   UNL     1       4.242  14.629  21.632  0.00  0.00    +0.000 A 
ATOM     14  C   UNL     1       3.856  15.610  22.539  0.00  0.00    +0.000 A 
ATOM     15 CL   UNL     1       5.041  16.390  23.509  0.00  0.00    +0.000 Cl
ATOM     16  C   UNL     1       2.516  15.962  22.656  0.00  0.00    +0.000 A 
ATOM     17  C   UNL     1       1.557  15.350  21.837  0.00  0.00    +0.000 A 
ENDBRANCH  10  11
BRANCH   5  18
ATOM     18  N   UNL     1      -2.164  11.024  17.771  0.00  0.00    +0.000 N 
ATOM     19  C   UNL     1      -2.081  10.108  16.608  0.00  0.00    +0.000 C 
ATOM     20  C   UNL     1      -2.949  10.656  15.464  0.00  0.00    +0.000 C 
ATOM     21  O   UNL     1      -4.318  10.812  15.871  0.00  0.00    +0.000 OA
ATOM     22  C   UNL     1      -4.404  11.719  16.981  0.00  0.00    +0.000 C 
ATOM     23  C   UNL     1      -3.572  11.237  18.181  0.00  0.00    +0.000 C 
ENDBRANCH   5  18
BRANCH   7  24
ATOM     24  C   UNL     1       0.722   9.004  21.321  0.00  0.00    +0.000 C 
ATOM     25  C   UNL     1      -0.546   8.266  21.777  0.00  0.00    +0.000 C 
ATOM     26  C   UNL     1       1.584   8.028  20.495  0.00  0.00    +0.000 C 
ATOM     27  C   UNL     1       1.542   9.437  22.548  0.00  0.00    +0.000 C 
ENDBRANCH   7  24
TORSDOF 3
ENDMDL
MODEL 2
REMARK VINA RESULT:      -6.1      4.181      8.068
REMARK  Name = 
REMARK  7 active torsions:
REMARK  status: ('A' for Active; 'I' for Inactive)
REMARK    1  A    between atoms: C_1  and  C_2
REMARK    2  A    between atoms: C_5  and  N_6
REMARK    3  A    between atoms: C_13  and  C_14
REMARK    4  A    between atoms: C_14  and  C_15
REMARK    5  A    between atoms: C_14  and  C_16
REMARK    6  A    between atoms: C_14  and  C_17
REMARK    7  A    between atoms: C_20  and  C_21
REMARK                            x       y       z     vdW  Elec       q    Type
REMARK                         _______ _______ _______ _____ _____    ______ ____
ROOT
ATOM      1  C   UNL     1       1.258  10.359  18.726  0.00  0.00    +0.000 C 
ATOM      2  C   UNL     1       1.097  11.837  18.705  0.00  0.00    +0.000 A 
ATOM      3  N   UNL     1       2.186  12.595  18.816  0.00  0.00    +0.000 NA
ATOM      4  N   UNL     1       1.737  13.880  18.827  0.00  0.00    +0.000 N 
ATOM      5  C   UNL     1       2.504  15.078  18.948  0.00  0.00    +0.000 A 
ATOM      6  C   UNL     1       1.845  16.250  18.884  0.00  0.00    +0.000 A 
ATOM      7  C   UNL     1       0.359  16.221  18.733  0.00  0.00    +0.000 A 
ATOM      8  N   UNL     1      -0.335  15.121  18.632  0.00  0.00    +0.000 NA
ATOM      9  C   UNL     1       0.341  13.929  18.676  0.00  0.00    +0.000 A 
ATOM     10  C   UNL     1      -0.097  12.611  18.612  0.00  0.00    +0.000 A 
ENDROOT
BRANCH  10  11
ATOM     11  C   UNL     1      -1.493  12.180  18.523  0.00  0.00    +0.000 A 
ATOM     12  C   UNL     1      -2.390  12.440  19.572  0.00  0.00    +0.000 A 
ATOM     13  C   UNL     1      -3.750  12.137  19.455  0.00  0.00    +0.000 A 
ATOM     14  C   UNL     1      -4.227  11.535  18.296  0.00  0.00    +0.000 A 
ATOM     15 CL   UNL     1      -5.901  11.177  18.145  0.00  0.00    +0.000 Cl
ATOM     16  C   UNL     1      -3.351  11.226  17.260  0.00  0.00    +0.000 A 
ATOM     17  C   UNL     1      -1.993  11.553  17.372  0.00  0.00    +0.000 A 
ENDBRANCH  10  11
BRANCH   5  18
ATOM     18  N   UNL     1       3.898  15.050  19.174  0.00  0.00    +0.000 N 
ATOM     19  C   UNL     1       4.467  14.767  20.514  0.00  0.00    +0.000 C 
ATOM     20  C   UNL     1       5.843  15.438  20.637  0.00  0.00    +0.000 C 
ATOM     21  O   UNL     1       6.744  14.983  19.615  0.00  0.00    +0.000 OA
ATOM     22  C   UNL     1       6.209  15.279  18.316  0.00  0.00    +0.000 C 
ATOM     23  C   UNL     1       4.832  14.630  18.102  0.00  0.00    +0.000 C 
ENDBRANCH   5  18
BRANCH   7  24
ATOM     24  C   UNL     1      -0.388  17.584  18.707  0.00  0.00    +0.000 C 
ATOM     25  C   UNL     1      -1.804  17.403  19.277  0.00  0.00    +0.000 C 
ATOM     26  C   UNL     1       0.352  18.630  19.563  0.00  0.00    +0.000 C 
ATOM     27  C   UNL     1      -0.471  18.121  17.269  0.00  0.00    +0.000 C 
ENDBRANCH   7  24
TORSDOF 3
ENDMDL
MODEL 3
REMARK VINA RESULT:      -6.1      4.240      6.903
REMARK  Name = 
REMARK  7 active torsions:
REMARK  status: ('A' for Active; 'I' for Inactive)
REMARK    1  A    between atoms: C_1  and  C_2
REMARK    2  A    between atoms: C_5  and  N_6
REMARK    3  A    between atoms: C_13  and  C_14
REMARK    4  A    between atoms: C_14  and  C_15
REMARK    5  A    between atoms: C_14  and  C_16
REMARK    6  A    between atoms: C_14  and  C_17
REMARK    7  A    between atoms: C_20  and  C_21
REMARK                            x       y       z     vdW  Elec       q    Type
REMARK                         _______ _______ _______ _____ _____    ______ ____
ROOT
ATOM      1  C   UNL     1       2.076   9.323  23.105  0.00  0.00    +0.000 C 
ATOM      2  C   UNL     1       1.052   9.801  22.140  0.00  0.00    +0.000 A 
ATOM      3  N   UNL     1       0.224  10.771  22.522  0.00  0.00    +0.000 NA
ATOM      4  N   UNL     1      -0.628  10.959  21.476  0.00  0.00    +0.000 N 
ATOM      5  C   UNL     1      -1.719  11.873  21.384  0.00  0.00    +0.000 A 
ATOM      6  C   UNL     1      -2.399  11.920  20.224  0.00  0.00    +0.000 A 
ATOM      7  C   UNL     1      -1.997  10.987  19.128  0.00  0.00    +0.000 A 
ATOM      8  N   UNL     1      -1.004  10.147  19.224  0.00  0.00    +0.000 NA
ATOM      9  C   UNL     1      -0.298  10.117  20.400  0.00  0.00    +0.000 A 
ATOM     10  C   UNL     1       0.780   9.344  20.816  0.00  0.00    +0.000 A 
ENDROOT
BRANCH  10  11
ATOM     11  C   UNL     1       1.414   8.279  20.040  0.00  0.00    +0.000 A 
ATOM     12  C   UNL     1       1.936   8.539  18.761  0.00  0.00    +0.000 A 
ATOM     13  C   UNL     1       2.645   7.562  18.055  0.00  0.00    +0.000 A 
ATOM     14  C   UNL     1       2.811   6.296  18.604  0.00  0.00    +0.000 A 
ATOM     15 CL   UNL     1       3.696   5.100  17.743  0.00  0.00    +0.000 Cl
ATOM     16  C   UNL     1       2.265   5.999  19.849  0.00  0.00    +0.000 A 
ATOM     17  C   UNL     1       1.576   6.988  20.564  0.00  0.00    +0.000 A 
ENDBRANCH  10  11
BRANCH   5  18
ATOM     18  N   UNL     1      -2.113  12.675  22.479  0.00  0.00    +0.000 N 
ATOM     19  C   UNL     1      -3.015  12.162  23.538  0.00  0.00    +0.000 C 
ATOM     20  C   UNL     1      -3.786  13.334  24.164  0.00  0.00    +0.000 C 
ATOM     21  O   UNL     1      -2.895  14.318  24.712  0.00  0.00    +0.000 OA
ATOM     22  C   UNL     1      -2.037  14.837  23.683  0.00  0.00    +0.000 C 
ATOM     23  C   UNL     1      -1.213  13.726  23.011  0.00  0.00    +0.000 C 
ENDBRANCH   5  18
BRANCH   7  24
ATOM     24  C   UNL     1      -2.824  11.023  17.813  0.00  0.00    +0.000 C 
ATOM     25  C   UNL     1      -3.148   9.588  17.371  0.00  0.00    +0.000 C 
ATOM     26  C   UNL     1      -4.150  11.781  18.020  0.00  0.00    +0.000 C 
ATOM     27  C   UNL     1      -2.036  11.742  16.706  0.00  0.00    +0.000 C 
ENDBRANCH   7  24
TORSDOF 3
ENDMDL
MODEL 4
REMARK VINA RESULT:      -6.1      4.253      8.034
REMARK  Name = 
REMARK  7 active torsions:
REMARK  status: ('A' for Active; 'I' for Inactive)
REMARK    1  A    between atoms: C_1  and  C_2
REMARK    2  A    between atoms: C_5  and  N_6
REMARK    3  A    between atoms: C_13  and  C_14
REMARK    4  A    between atoms: C_14  and  C_15
REMARK    5  A    between atoms: C_14  and  C_16
REMARK    6  A    between atoms: C_14  and  C_17
REMARK    7  A    between atoms: C_20  and  C_21
REMARK                            x       y       z     vdW  Elec       q    Type
REMARK                         _______ _______ _______ _____ _____    ______ ____
ROOT
ATOM      1  C   UNL     1       1.414  10.422  18.682  0.00  0.00    +0.000 C 
ATOM      2  C   UNL     1       1.252  11.900  18.631  0.00  0.00    +0.000 A 
ATOM      3  N   UNL     1       2.345  12.659  18.662  0.00  0.00    +0.000 NA
ATOM      4  N   UNL     1       1.897  13.945  18.663  0.00  0.00    +0.000 N 
ATOM      5  C   UNL     1       2.668  15.145  18.710  0.00  0.00    +0.000 A 
ATOM      6  C   UNL     1       2.007  16.315  18.650  0.00  0.00    +0.000 A 
ATOM      7  C   UNL     1       0.515  16.284  18.582  0.00  0.00    +0.000 A 
ATOM      8  N   UNL     1      -0.184  15.183  18.550  0.00  0.00    +0.000 NA
ATOM      9  C   UNL     1       0.494  13.991  18.588  0.00  0.00    +0.000 A 
ATOM     10  C   UNL     1       0.054  12.672  18.583  0.00  0.00    +0.000 A 
ENDROOT
BRANCH  10  11
ATOM     11  C   UNL     1      -1.345  12.241  18.582  0.00  0.00    +0.000 A 
ATOM     12  C   UNL     1      -2.187  12.542  19.666  0.00  0.00    +0.000 A 
ATOM     13  C   UNL     1      -3.551  12.237  19.630  0.00  0.00    +0.000 A 
ATOM     14  C   UNL     1      -4.086  11.592  18.521  0.00  0.00    +0.000 A 
ATOM     15 CL   UNL     1      -5.767  11.232  18.470  0.00  0.00    +0.000 Cl
ATOM     16  C   UNL     1      -3.265  11.243  17.454  0.00  0.00    +0.000 A 
ATOM     17  C   UNL     1      -1.903  11.571  17.483  0.00  0.00    +0.000 A 
ENDBRANCH  10  11
BRANCH   5  18
ATOM     18  N   UNL     1       4.073  15.121  18.859  0.00  0.00    +0.000 N 
ATOM     19  C   UNL     1       4.983  15.173  17.689  0.00  0.00    +0.000 C 
ATOM     20  C   UNL     1       6.307  14.476  18.041  0.00  0.00    +0.000 C 
ATOM     21  O   UNL     1       6.935  15.085  19.180  0.00  0.00    +0.000 OA
ATOM     22  C   UNL     1       6.067  15.013  20.322  0.00  0.00    +0.000 C 
ATOM     23  C   UNL     1       4.718  15.703  20.060  0.00  0.00    +0.000 C 
ENDBRANCH   5  18
BRANCH   7  24
ATOM     24  C   UNL     1      -0.234  17.646  18.561  0.00  0.00    +0.000 C 
ATOM     25  C   UNL     1       0.464  18.629  19.514  0.00  0.00    +0.000 C 
ATOM     26  C   UNL     1      -0.226  18.253  17.144  0.00  0.00    +0.000 C 
ATOM     27  C   UNL     1      -1.698  17.458  18.988  0.00  0.00    +0.000 C 
ENDBRANCH   7  24
TORSDOF 3
ENDMDL
MODEL 5
REMARK VINA RESULT:      -6.1      4.059      7.054
REMARK  Name = 
REMARK  7 active torsions:
REMARK  status: ('A' for Active; 'I' for Inactive)
REMARK    1  A    between atoms: C_1  and  C_2
REMARK    2  A    between atoms: C_5  and  N_6
REMARK    3  A    between atoms: C_13  and  C_14
REMARK    4  A    between atoms: C_14  and  C_15
REMARK    5  A    between atoms: C_14  and  C_16
REMARK    6  A    between atoms: C_14  and  C_17
REMARK    7  A    between atoms: C_20  and  C_21
REMARK                            x       y       z     vdW  Elec       q    Type
REMARK                         _______ _______ _______ _____ _____    ______ ____
ROOT
ATOM      1  C   UNL     1      -0.739   8.989  23.039  0.00  0.00    +0.000 C 
ATOM      2  C   UNL     1      -0.324  10.278  22.425  0.00  0.00    +0.000 A 
ATOM      3  N   UNL     1      -0.731  11.411  22.993  0.00  0.00    +0.000 NA
ATOM      4  N   UNL     1      -0.259  12.410  22.197  0.00  0.00    +0.000 N 
ATOM      5  C   UNL     1      -0.437  13.817  22.353  0.00  0.00    +0.000 A 
ATOM      6  C   UNL     1       0.167  14.626  21.463  0.00  0.00    +0.000 A 
ATOM      7  C   UNL     1       0.944  14.000  20.351  0.00  0.00    +0.000 A 
ATOM      8  N   UNL     1       1.093  12.712  20.209  0.00  0.00    +0.000 NA
ATOM      9  C   UNL     1       0.495  11.891  21.131  0.00  0.00    +0.000 A 
ATOM     10  C   UNL     1       0.452  10.507  21.251  0.00  0.00    +0.000 A 
ENDROOT
BRANCH  10  11
ATOM     11  C   UNL     1       1.047   9.552  20.315  0.00  0.00    +0.000 A 
ATOM     12  C   UNL     1       1.197   9.879  18.957  0.00  0.00    +0.000 A 
ATOM     13  C   UNL     1       1.865   9.025  18.074  0.00  0.00    +0.000 A 
ATOM     14  C   UNL     1       2.364   7.810  18.532  0.00  0.00    +0.000 A 
ATOM     15 CL   UNL     1       3.200   6.767  17.452  0.00  0.00    +0.000 Cl
ATOM     16  C   UNL     1       2.189   7.443  19.862  0.00  0.00    +0.000 A 
ATOM     17  C   UNL     1       1.540   8.312  20.749  0.00  0.00    +0.000 A 
ENDBRANCH  10  11
BRANCH   5  18
ATOM     18  N   UNL     1      -1.252  14.355  23.374  0.00  0.00    +0.000 N 
ATOM     19  C   UNL     1      -0.832  15.538  24.166  0.00  0.00    +0.000 C 
ATOM     20  C   UNL     1      -1.497  15.488  25.550  0.00  0.00    +0.000 C 
ATOM     21  O   UNL     1      -2.929  15.450  25.444  0.00  0.00    +0.000 OA
ATOM     22  C   UNL     1      -3.340  14.291  24.701  0.00  0.00    +0.000 C 
ATOM     23  C   UNL     1      -2.729  14.269  23.291  0.00  0.00    +0.000 C 
ENDBRANCH   5  18
BRANCH   7  24
ATOM     24  C   UNL     1       1.595  14.949  19.306  0.00  0.00    +0.000 C 
ATOM     25  C   UNL     1       0.521  15.874  18.713  0.00  0.00    +0.000 C 
ATOM     26  C   UNL     1       2.682  15.823  19.963  0.00  0.00    +0.000 C 
ATOM     27  C   UNL     1       2.258  14.134  18.183  0.00  0.00    +0.000 C 
ENDBRANCH   7  24
TORSDOF 3
ENDMDL
MODEL 6
REMARK VINA RESULT:      -6.1      4.210      6.786
REMARK  Name = 
REMARK  7 active torsions:
REMARK  status: ('A' for Active; 'I' for Inactive)
REMARK    1  A    between atoms: C_1  and  C_2
REMARK    2  A    between atoms: C_5  and  N_6
REMARK    3  A    between atoms: C_13  and  C_14
REMARK    4  A    between atoms: C_14  and  C_15
REMARK    5  A    between atoms: C_14  and  C_16
REMARK    6  A    between atoms: C_14  and  C_17
REMARK    7  A    between atoms: C_20  and  C_21
REMARK                            x       y       z     vdW  Elec       q    Type
REMARK                         _______ _______ _______ _____ _____    ______ ____
ROOT
ATOM      1  C   UNL     1       2.054   9.549  22.866  0.00  0.00    +0.000 C 
ATOM      2  C   UNL     1       1.002   9.971  21.904  0.00  0.00    +0.000 A 
ATOM      3  N   UNL     1       0.139  10.912  22.281  0.00  0.00    +0.000 NA
ATOM      4  N   UNL     1      -0.730  11.049  21.240  0.00  0.00    +0.000 N 
ATOM      5  C   UNL     1      -1.859  11.917  21.147  0.00  0.00    +0.000 A 
ATOM      6  C   UNL     1      -2.550  11.920  19.992  0.00  0.00    +0.000 A 
ATOM      7  C   UNL     1      -2.120  10.989  18.906  0.00  0.00    +0.000 A 
ATOM      8  N   UNL     1      -1.092  10.191  19.003  0.00  0.00    +0.000 NA
ATOM      9  C   UNL     1      -0.376  10.207  20.173  0.00  0.00    +0.000 A 
ATOM     10  C   UNL     1       0.737   9.485  20.589  0.00  0.00    +0.000 A 
ENDROOT
BRANCH  10  11
ATOM     11  C   UNL     1       1.408   8.436  19.821  0.00  0.00    +0.000 A 
ATOM     12  C   UNL     1       1.888   8.693  18.526  0.00  0.00    +0.000 A 
ATOM     13  C   UNL     1       2.630   7.738  17.824  0.00  0.00    +0.000 A 
ATOM     14  C   UNL     1       2.872   6.494  18.397  0.00  0.00    +0.000 A 
ATOM     15 CL   UNL     1       3.798   5.325  17.541  0.00  0.00    +0.000 Cl
ATOM     16  C   UNL     1       2.369   6.198  19.659  0.00  0.00    +0.000 A 
ATOM     17  C   UNL     1       1.647   7.167  20.369  0.00  0.00    +0.000 A 
ENDBRANCH  10  11
BRANCH   5  18
ATOM     18  N   UNL     1      -2.275  12.718  22.234  0.00  0.00    +0.000 N 
ATOM     19  C   UNL     1      -1.674  14.047  22.500  0.00  0.00    +0.000 C 
ATOM     20  C   UNL     1      -1.779  14.365  23.999  0.00  0.00    +0.000 C 
ATOM     21  O   UNL     1      -3.143  14.343  24.448  0.00  0.00    +0.000 OA
ATOM     22  C   UNL     1      -3.720  13.049  24.216  0.00  0.00    +0.000 C 
ATOM     23  C   UNL     1      -3.670  12.657  22.731  0.00  0.00    +0.000 C 
ENDBRANCH   5  18
BRANCH   7  24
ATOM     24  C   UNL     1      -2.959  10.972  17.598  0.00  0.00    +0.000 C 
ATOM     25  C   UNL     1      -4.271  11.741  17.820  0.00  0.00    +0.000 C 
ATOM     26  C   UNL     1      -2.189  11.646  16.445  0.00  0.00    +0.000 C 
ATOM     27  C   UNL     1      -3.268   9.526  17.179  0.00  0.00    +0.000 C 
ENDBRANCH   7  24
TORSDOF 3
ENDMDL
MODEL 7
REMARK VINA RESULT:      -6.0      5.759      8.113
REMARK  Name = 
REMARK  7 active torsions:
REMARK  status: ('A' for Active; 'I' for Inactive)
REMARK    1  A    between atoms: C_1  and  C_2
REMARK    2  A    between atoms: C_5  and  N_6
REMARK    3  A    between atoms: C_13  and  C_14
REMARK    4  A    between atoms: C_14  and  C_15
REMARK    5  A    between atoms: C_14  and  C_16
REMARK    6  A    between atoms: C_14  and  C_17
REMARK    7  A    between atoms: C_20  and  C_21
REMARK                            x       y       z     vdW  Elec       q    Type
REMARK                         _______ _______ _______ _____ _____    ______ ____
ROOT
ATOM      1  C   UNL     1       3.074   9.728  17.464  0.00  0.00    +0.000 C 
ATOM      2  C   UNL     1       3.111   8.337  17.988  0.00  0.00    +0.000 A 
ATOM      3  N   UNL     1       3.870   7.443  17.360  0.00  0.00    +0.000 NA
ATOM      4  N   UNL     1       3.665   6.265  18.012  0.00  0.00    +0.000 N 
ATOM      5  C   UNL     1       4.231   4.988  17.720  0.00  0.00    +0.000 A 
ATOM      6  C   UNL     1       3.920   3.965  18.538  0.00  0.00    +0.000 A 
ATOM      7  C   UNL     1       2.976   4.222  19.667  0.00  0.00    +0.000 A 
ATOM      8  N   UNL     1       2.456   5.391  19.922  0.00  0.00    +0.000 NA
ATOM      9  C   UNL     1       2.792   6.436  19.099  0.00  0.00    +0.000 A 
ATOM     10  C   UNL     1       2.406   7.772  19.092  0.00  0.00    +0.000 A 
ENDROOT
BRANCH  10  11
ATOM     11  C   UNL     1       1.445   8.387  20.009  0.00  0.00    +0.000 A 
ATOM     12  C   UNL     1       1.514   8.137  21.390  0.00  0.00    +0.000 A 
ATOM     13  C   UNL     1       0.677   8.804  22.290  0.00  0.00    +0.000 A 
ATOM     14  C   UNL     1      -0.269   9.706  21.815  0.00  0.00    +0.000 A 
ATOM     15 CL   UNL     1      -1.287  10.538  22.922  0.00  0.00    +0.000 Cl
ATOM     16  C   UNL     1      -0.388   9.937  20.449  0.00  0.00    +0.000 A 
ATOM     17  C   UNL     1       0.469   9.285  19.552  0.00  0.00    +0.000 A 
ENDBRANCH  10  11
BRANCH   5  18
ATOM     18  N   UNL     1       5.053   4.778  16.590  0.00  0.00    +0.000 N 
ATOM     19  C   UNL     1       6.532   4.764  16.693  0.00  0.00    +0.000 C 
ATOM     20  C   UNL     1       7.141   5.194  15.349  0.00  0.00    +0.000 C 
ATOM     21  O   UNL     1       6.714   4.337  14.279  0.00  0.00    +0.000 OA
ATOM     22  C   UNL     1       5.283   4.369  14.160  0.00  0.00    +0.000 C 
ATOM     23  C   UNL     1       4.591   3.936  15.462  0.00  0.00    +0.000 C 
ENDBRANCH   5  18
BRANCH   7  24
ATOM     24  C   UNL     1       2.593   3.019  20.573  0.00  0.00    +0.000 C 
ATOM     25  C   UNL     1       1.564   2.138  19.849  0.00  0.00    +0.000 C 
ATOM     26  C   UNL     1       3.832   2.158  20.893  0.00  0.00    +0.000 C 
ATOM     27  C   UNL     1       2.007   3.517  21.904  0.00  0.00    +0.000 C 
ENDBRANCH   7  24
TORSDOF 3
ENDMDL
MODEL 8
REMARK VINA RESULT:      -6.0      4.283      6.968
REMARK  Name = 
REMARK  7 active torsions:
REMARK  status: ('A' for Active; 'I' for Inactive)
REMARK    1  A    between atoms: C_1  and  C_2
REMARK    2  A    between atoms: C_5  and  N_6
REMARK    3  A    between atoms: C_13  and  C_14
REMARK    4  A    between atoms: C_14  and  C_15
REMARK    5  A    between atoms: C_14  and  C_16
REMARK    6  A    between atoms: C_14  and  C_17
REMARK    7  A    between atoms: C_20  and  C_21
REMARK                            x       y       z     vdW  Elec       q    Type
REMARK                         _______ _______ _______ _____ _____    ______ ____
ROOT
ATOM      1  C   UNL     1       2.061   9.232  23.241  0.00  0.00    +0.000 C 
ATOM      2  C   UNL     1       1.067   9.730  22.254  0.00  0.00    +0.000 A 
ATOM      3  N   UNL     1       0.239  10.703  22.624  0.00  0.00    +0.000 NA
ATOM      4  N   UNL     1      -0.583  10.910  21.558  0.00  0.00    +0.000 N 
ATOM      5  C   UNL     1      -1.663  11.836  21.448  0.00  0.00    +0.000 A 
ATOM      6  C   UNL     1      -2.312  11.901  20.270  0.00  0.00    +0.000 A 
ATOM      7  C   UNL     1      -1.889  10.976  19.176  0.00  0.00    +0.000 A 
ATOM      8  N   UNL     1      -0.907  10.125  19.289  0.00  0.00    +0.000 NA
ATOM      9  C   UNL     1      -0.233  10.077  20.482  0.00  0.00    +0.000 A 
ATOM     10  C   UNL     1       0.827   9.289  20.919  0.00  0.00    +0.000 A 
ENDROOT
BRANCH  10  11
ATOM     11  C   UNL     1       1.472   8.226  20.148  0.00  0.00    +0.000 A 
ATOM     12  C   UNL     1       1.582   6.927  20.673  0.00  0.00    +0.000 A 
ATOM     13  C   UNL     1       2.092   5.876  19.905  0.00  0.00    +0.000 A 
ATOM     14  C   UNL     1       2.535   6.118  18.609  0.00  0.00    +0.000 A 
ATOM     15 CL   UNL     1       3.147   4.822  17.660  0.00  0.00    +0.000 Cl
ATOM     16  C   UNL     1       2.478   7.403  18.082  0.00  0.00    +0.000 A 
ATOM     17  C   UNL     1       1.944   8.450  18.846  0.00  0.00    +0.000 A 
ENDBRANCH  10  11
BRANCH   5  18
ATOM     18  N   UNL     1      -2.078  12.630  22.540  0.00  0.00    +0.000 N 
ATOM     19  C   UNL     1      -2.990  12.105  23.585  0.00  0.00    +0.000 C 
ATOM     20  C   UNL     1      -3.780  13.268  24.205  0.00  0.00    +0.000 C 
ATOM     21  O   UNL     1      -2.905  14.257  24.769  0.00  0.00    +0.000 OA
ATOM     22  C   UNL     1      -2.037  14.787  23.754  0.00  0.00    +0.000 C 
ATOM     23  C   UNL     1      -1.195  13.686  23.089  0.00  0.00    +0.000 C 
ENDBRANCH   5  18
BRANCH   7  24
ATOM     24  C   UNL     1      -2.680  11.034  17.839  0.00  0.00    +0.000 C 
ATOM     25  C   UNL     1      -1.875  11.829  16.800  0.00  0.00    +0.000 C 
ATOM     26  C   UNL     1      -2.924   9.616  17.286  0.00  0.00    +0.000 C 
ATOM     27  C   UNL     1      -4.049  11.699  18.056  0.00  0.00    +0.000 C 
ENDBRANCH   7  24
TORSDOF 3
ENDMDL
MODEL 9
REMARK VINA RESULT:      -6.0      4.261      6.865
REMARK  Name = 
REMARK  7 active torsions:
REMARK  status: ('A' for Active; 'I' for Inactive)
REMARK    1  A    between atoms: C_1  and  C_2
REMARK    2  A    between atoms: C_5  and  N_6
REMARK    3  A    between atoms: C_13  and  C_14
REMARK    4  A    between atoms: C_14  and  C_15
REMARK    5  A    between atoms: C_14  and  C_16
REMARK    6  A    between atoms: C_14  and  C_17
REMARK    7  A    between atoms: C_20  and  C_21
REMARK                            x       y       z     vdW  Elec       q    Type
REMARK                         _______ _______ _______ _____ _____    ______ ____
ROOT
ATOM      1  C   UNL     1       1.994   9.464  23.070  0.00  0.00    +0.000 C 
ATOM      2  C   UNL     1       0.985   9.903  22.070  0.00  0.00    +0.000 A 
ATOM      3  N   UNL     1       0.127  10.860  22.414  0.00  0.00    +0.000 NA
ATOM      4  N   UNL     1      -0.702  11.012  21.344  0.00  0.00    +0.000 N 
ATOM      5  C   UNL     1      -1.810  11.900  21.208  0.00  0.00    +0.000 A 
ATOM      6  C   UNL     1      -2.460  11.913  20.030  0.00  0.00    +0.000 A 
ATOM      7  C   UNL     1      -2.009  10.971  18.961  0.00  0.00    +0.000 A 
ATOM      8  N   UNL     1      -1.000  10.155  19.097  0.00  0.00    +0.000 NA
ATOM      9  C   UNL     1      -0.325  10.161  20.291  0.00  0.00    +0.000 A 
ATOM     10  C   UNL     1       0.758   9.419  20.748  0.00  0.00    +0.000 A 
ENDROOT
BRANCH  10  11
ATOM     11  C   UNL     1       1.436   8.356  20.006  0.00  0.00    +0.000 A 
ATOM     12  C   UNL     1       1.608   7.083  20.575  0.00  0.00    +0.000 A 
ATOM     13  C   UNL     1       2.151   6.025  19.839  0.00  0.00    +0.000 A 
ATOM     14  C   UNL     1       2.565   6.238  18.528  0.00  0.00    +0.000 A 
ATOM     15 CL   UNL     1       3.218   4.934  17.617  0.00  0.00    +0.000 Cl
ATOM     16  C   UNL     1       2.448   7.500  17.956  0.00  0.00    +0.000 A 
ATOM     17  C   UNL     1       1.881   8.551  18.690  0.00  0.00    +0.000 A 
ENDBRANCH  10  11
BRANCH   5  18
ATOM     18  N   UNL     1      -2.250  12.711  22.279  0.00  0.00    +0.000 N 
ATOM     19  C   UNL     1      -1.656  14.044  22.544  0.00  0.00    +0.000 C 
ATOM     20  C   UNL     1      -1.792  14.376  24.038  0.00  0.00    +0.000 C 
ATOM     21  O   UNL     1      -3.165  14.357  24.458  0.00  0.00    +0.000 OA
ATOM     22  C   UNL     1      -3.736  13.059  24.227  0.00  0.00    +0.000 C 
ATOM     23  C   UNL     1      -3.655  12.653  22.747  0.00  0.00    +0.000 C 
ENDBRANCH   5  18
BRANCH   7  24
ATOM     24  C   UNL     1      -2.801  10.968  17.624  0.00  0.00    +0.000 C 
ATOM     25  C   UNL     1      -3.008   9.520  17.154  0.00  0.00    +0.000 C 
ATOM     26  C   UNL     1      -4.184  11.624  17.806  0.00  0.00    +0.000 C 
ATOM     27  C   UNL     1      -2.039  11.760  16.549  0.00  0.00    +0.000 C 
ENDBRANCH   7  24
TORSDOF 3
ENDMDL
