MODEL 1
REMARK VINA RESULT:      -7.2      0.000      0.000
REMARK  Name = 
REMARK  10 active torsions:
REMARK  status: ('A' for Active; 'I' for Inactive)
REMARK    1  A    between atoms: C_1  and  O_2
REMARK    2  A    between atoms: O_2  and  C_3
REMARK    3  A    between atoms: C_5  and  N_6
REMARK    4  A    between atoms: N_10  and  C_11
REMARK    5  A    between atoms: C_11  and  C_12
REMARK    6  A    between atoms: C_12  and  O_13
REMARK    7  A    between atoms: O_13  and  C_14
REMARK    8  A    between atoms: C_14  and  C_15
REMARK    9  A    between atoms: C_18  and  O_19
REMARK   10  A    between atoms: O_19  and  C_20
REMARK                            x       y       z     vdW  Elec       q    Type
REMARK                         _______ _______ _______ _____ _____    ______ ____
ROOT
ATOM      1  O   UNL     1       3.083   5.263  17.878  0.00  0.00    +0.000 OA
ENDROOT
BRANCH   1   2
ATOM      2  C   UNL     1       3.550   3.918  17.906  0.00  0.00    +0.000 C 
BRANCH   2   3
ATOM      3  C   UNL     1       5.034   3.933  18.239  0.00  0.00    +0.000 C 
BRANCH   3   8
ATOM      4  C   UNL     1       6.629   5.610  17.277  0.00  0.00    +0.000 A 
ATOM      5  N   UNL     1       7.215   5.891  16.138  0.00  0.00    +0.000 NA
ATOM      6  C   UNL     1       6.764   4.919  15.260  0.00  0.00    +0.000 A 
ATOM      7  C   UNL     1       5.897   4.046  15.889  0.00  0.00    +0.000 A 
ATOM      8  N   UNL     1       5.816   4.510  17.172  0.00  0.00    +0.000 N 
BRANCH   6   9
ATOM      9  N   UNL     1       7.198   4.880  13.883  0.00  0.00    +0.000 N 
ATOM     10  O   UNL     1       8.122   5.647  13.574  0.00  0.00    +0.000 OA
ATOM     11  O   UNL     1       6.623   4.098  13.117  0.00  0.00    +0.000 OA
ENDBRANCH   6   9
BRANCH   4  13
ATOM     12  C   UNL     1       7.999   5.965  19.113  0.00  0.00    +0.000 C 
ATOM     13  O   UNL     1       6.785   6.255  18.429  0.00  0.00    +0.000 OA
ENDBRANCH   4  13
ENDBRANCH   3   8
ENDBRANCH   2   3
ENDBRANCH   1   2
BRANCH   1  14
ATOM     14  C   UNL     1       3.135   5.869  19.167  0.00  0.00    +0.000 C 
BRANCH  14  15
ATOM     15  C   UNL     1       2.441   7.200  19.075  0.00  0.00    +0.000 A 
ATOM     16  C   UNL     1       2.452   7.941  17.890  0.00  0.00    +0.000 A 
ATOM     17  C   UNL     1       1.813   9.182  17.832  0.00  0.00    +0.000 A 
ATOM     18  C   UNL     1       1.145   9.697  18.948  0.00  0.00    +0.000 A 
ATOM     19  C   UNL     1       1.165   8.980  20.140  0.00  0.00    +0.000 A 
ATOM     20  C   UNL     1       1.786   7.728  20.196  0.00  0.00    +0.000 A 
BRANCH  18  21
ATOM     21  O   UNL     1       0.583  10.921  18.761  0.00  0.00    +0.000 OA
BRANCH  21  22
ATOM     22  C   UNL     1      -0.810  11.022  18.497  0.00  0.00    +0.000 C 
ATOM     23  F   UNL     1      -1.298  10.073  17.671  0.00  0.00    +0.000 F 
ATOM     24  F   UNL     1      -1.487  10.969  19.664  0.00  0.00    +0.000 F 
ATOM     25  F   UNL     1      -1.050  12.224  17.928  0.00  0.00    +0.000 F 
ENDBRANCH  21  22
ENDBRANCH  18  21
ENDBRANCH  14  15
ENDBRANCH   1  14
TORSDOF 9
ENDMDL
MODEL 2
REMARK VINA RESULT:      -7.0      1.224      1.663
REMARK  Name = 
REMARK  10 active torsions:
REMARK  status: ('A' for Active; 'I' for Inactive)
REMARK    1  A    between atoms: C_1  and  O_2
REMARK    2  A    between atoms: O_2  and  C_3
REMARK    3  A    between atoms: C_5  and  N_6
REMARK    4  A    between atoms: N_10  and  C_11
REMARK    5  A    between atoms: C_11  and  C_12
REMARK    6  A    between atoms: C_12  and  O_13
REMARK    7  A    between atoms: O_13  and  C_14
REMARK    8  A    between atoms: C_14  and  C_15
REMARK    9  A    between atoms: C_18  and  O_19
REMARK   10  A    between atoms: O_19  and  C_20
REMARK                            x       y       z     vdW  Elec       q    Type
REMARK                         _______ _______ _______ _____ _____    ______ ____
ROOT
ATOM      1  O   UNL     1       3.342   5.765  17.891  0.00  0.00    +0.000 OA
ENDROOT
BRANCH   1   2
ATOM      2  C   UNL     1       3.070   4.381  17.695  0.00  0.00    +0.000 C 
BRANCH   2   3
ATOM      3  C   UNL     1       4.358   3.604  17.921  0.00  0.00    +0.000 C 
BRANCH   3   8
ATOM      4  C   UNL     1       6.626   4.573  17.476  0.00  0.00    +0.000 A 
ATOM      5  N   UNL     1       7.389   4.904  16.463  0.00  0.00    +0.000 NA
ATOM      6  C   UNL     1       6.640   4.587  15.341  0.00  0.00    +0.000 A 
ATOM      7  C   UNL     1       5.415   4.059  15.694  0.00  0.00    +0.000 A 
ATOM      8  N   UNL     1       5.420   4.067  17.061  0.00  0.00    +0.000 N 
BRANCH   6   9
ATOM      9  N   UNL     1       7.149   4.800  14.005  0.00  0.00    +0.000 N 
ATOM     10  O   UNL     1       8.071   5.621  13.890  0.00  0.00    +0.000 OA
ATOM     11  O   UNL     1       6.634   4.158  13.082  0.00  0.00    +0.000 OA
ENDBRANCH   6   9
BRANCH   4  13
ATOM     12  C   UNL     1       7.707   5.811  19.111  0.00  0.00    +0.000 C 
ATOM     13  O   UNL     1       6.938   4.665  18.766  0.00  0.00    +0.000 OA
ENDBRANCH   4  13
ENDBRANCH   3   8
ENDBRANCH   2   3
ENDBRANCH   1   2
BRANCH   1  14
ATOM     14  C   UNL     1       3.110   6.165  19.240  0.00  0.00    +0.000 C 
BRANCH  14  15
ATOM     15  C   UNL     1       2.338   7.455  19.208  0.00  0.00    +0.000 A 
ATOM     16  C   UNL     1       1.662   7.923  20.338  0.00  0.00    +0.000 A 
ATOM     17  C   UNL     1       0.939   9.116  20.281  0.00  0.00    +0.000 A 
ATOM     18  C   UNL     1       0.888   9.867  19.102  0.00  0.00    +0.000 A 
ATOM     19  C   UNL     1       1.527   9.386  17.964  0.00  0.00    +0.000 A 
ATOM     20  C   UNL     1       2.268   8.202  18.023  0.00  0.00    +0.000 A 
BRANCH  18  21
ATOM     21  O   UNL     1       0.135  10.997  19.179  0.00  0.00    +0.000 OA
BRANCH  21  22
ATOM     22  C   UNL     1       0.774  12.263  19.263  0.00  0.00    +0.000 C 
ATOM     23  F   UNL     1       0.905  12.908  18.085  0.00  0.00    +0.000 F 
ATOM     24  F   UNL     1       0.085  13.052  20.115  0.00  0.00    +0.000 F 
ATOM     25  F   UNL     1       2.014  12.081  19.769  0.00  0.00    +0.000 F 
ENDBRANCH  21  22
ENDBRANCH  18  21
ENDBRANCH  14  15
ENDBRANCH   1  14
TORSDOF 9
ENDMDL
MODEL 3
REMARK VINA RESULT:      -6.9      1.512      2.003
REMARK  Name = 
REMARK  10 active torsions:
REMARK  status: ('A' for Active; 'I' for Inactive)
REMARK    1  A    between atoms: C_1  and  O_2
REMARK    2  A    between atoms: O_2  and  C_3
REMARK    3  A    between atoms: C_5  and  N_6
REMARK    4  A    between atoms: N_10  and  C_11
REMARK    5  A    between atoms: C_11  and  C_12
REMARK    6  A    between atoms: C_12  and  O_13
REMARK    7  A    between atoms: O_13  and  C_14
REMARK    8  A    between atoms: C_14  and  C_15
REMARK    9  A    between atoms: C_18  and  O_19
REMARK   10  A    between atoms: O_19  and  C_20
REMARK                            x       y       z     vdW  Elec       q    Type
REMARK                         _______ _______ _______ _____ _____    ______ ____
ROOT
ATOM      1  O   UNL     1       3.077   5.678  18.949  0.00  0.00    +0.000 OA
ENDROOT
BRANCH   1   2
ATOM      2  C   UNL     1       4.318   5.156  19.409  0.00  0.00    +0.000 C 
BRANCH   2   3
ATOM      3  C   UNL     1       4.652   3.920  18.588  0.00  0.00    +0.000 C 
BRANCH   3   8
ATOM      4  C   UNL     1       6.926   4.565  17.754  0.00  0.00    +0.000 A 
ATOM      5  N   UNL     1       7.556   4.758  16.620  0.00  0.00    +0.000 NA
ATOM      6  C   UNL     1       6.607   4.505  15.643  0.00  0.00    +0.000 A 
ATOM      7  C   UNL     1       5.396   4.156  16.206  0.00  0.00    +0.000 A 
ATOM      8  N   UNL     1       5.617   4.209  17.554  0.00  0.00    +0.000 N 
BRANCH   6   9
ATOM      9  N   UNL     1       6.923   4.603  14.237  0.00  0.00    +0.000 N 
ATOM     10  O   UNL     1       7.700   5.511  13.907  0.00  0.00    +0.000 OA
ATOM     11  O   UNL     1       6.399   3.787  13.469  0.00  0.00    +0.000 OA
ENDBRANCH   6   9
BRANCH   4  13
ATOM     12  C   UNL     1       8.049   5.914  19.269  0.00  0.00    +0.000 C 
ATOM     13  O   UNL     1       7.445   4.659  18.975  0.00  0.00    +0.000 OA
ENDBRANCH   4  13
ENDBRANCH   3   8
ENDBRANCH   2   3
ENDBRANCH   1   2
BRANCH   1  14
ATOM     14  C   UNL     1       3.249   6.896  18.226  0.00  0.00    +0.000 C 
BRANCH  14  15
ATOM     15  C   UNL     1       2.264   7.893  18.769  0.00  0.00    +0.000 A 
ATOM     16  C   UNL     1       1.873   7.868  20.111  0.00  0.00    +0.000 A 
ATOM     17  C   UNL     1       0.946   8.796  20.590  0.00  0.00    +0.000 A 
ATOM     18  C   UNL     1       0.402   9.767  19.745  0.00  0.00    +0.000 A 
ATOM     19  C   UNL     1       0.758   9.772  18.399  0.00  0.00    +0.000 A 
ATOM     20  C   UNL     1       1.702   8.858  17.921  0.00  0.00    +0.000 A 
BRANCH  18  21
ATOM     21  O   UNL     1      -0.502  10.595  20.334  0.00  0.00    +0.000 OA
BRANCH  21  22
ATOM     22  C   UNL     1      -0.053  11.603  21.229  0.00  0.00    +0.000 C 
ATOM     23  F   UNL     1      -0.170  11.290  22.537  0.00  0.00    +0.000 F 
ATOM     24  F   UNL     1       1.241  11.885  20.966  0.00  0.00    +0.000 F 
ATOM     25  F   UNL     1      -0.779  12.722  21.010  0.00  0.00    +0.000 F 
ENDBRANCH  21  22
ENDBRANCH  18  21
ENDBRANCH  14  15
ENDBRANCH   1  14
TORSDOF 9
ENDMDL
MODEL 4
REMARK VINA RESULT:      -6.9      1.107      1.436
REMARK  Name = 
REMARK  10 active torsions:
REMARK  status: ('A' for Active; 'I' for Inactive)
REMARK    1  A    between atoms: C_1  and  O_2
REMARK    2  A    between atoms: O_2  and  C_3
REMARK    3  A    between atoms: C_5  and  N_6
REMARK    4  A    between atoms: N_10  and  C_11
REMARK    5  A    between atoms: C_11  and  C_12
REMARK    6  A    between atoms: C_12  and  O_13
REMARK    7  A    between atoms: O_13  and  C_14
REMARK    8  A    between atoms: C_14  and  C_15
REMARK    9  A    between atoms: C_18  and  O_19
REMARK   10  A    between atoms: O_19  and  C_20
REMARK                            x       y       z     vdW  Elec       q    Type
REMARK                         _______ _______ _______ _____ _____    ______ ____
ROOT
ATOM      1  O   UNL     1       3.814   5.017  19.537  0.00  0.00    +0.000 OA
ENDROOT
BRANCH   1   2
ATOM      2  C   UNL     1       5.120   5.530  19.298  0.00  0.00    +0.000 C 
BRANCH   2   3
ATOM      3  C   UNL     1       5.957   4.432  18.659  0.00  0.00    +0.000 C 
BRANCH   3   8
ATOM      4  C   UNL     1       7.263   5.890  17.094  0.00  0.00    +0.000 A 
ATOM      5  N   UNL     1       7.542   5.985  15.816  0.00  0.00    +0.000 NA
ATOM      6  C   UNL     1       6.880   4.918  15.231  0.00  0.00    +0.000 A 
ATOM      7  C   UNL     1       6.197   4.179  16.177  0.00  0.00    +0.000 A 
ATOM      8  N   UNL     1       6.446   4.821  17.358  0.00  0.00    +0.000 N 
BRANCH   6   9
ATOM      9  N   UNL     1       6.951   4.669  13.810  0.00  0.00    +0.000 N 
ATOM     10  O   UNL     1       7.665   5.438  13.150  0.00  0.00    +0.000 OA
ATOM     11  O   UNL     1       6.300   3.720  13.357  0.00  0.00    +0.000 OA
ENDBRANCH   6   9
BRANCH   4  13
ATOM     12  C   UNL     1       7.810   8.058  17.707  0.00  0.00    +0.000 C 
ATOM     13  O   UNL     1       7.709   6.684  18.063  0.00  0.00    +0.000 OA
ENDBRANCH   4  13
ENDBRANCH   3   8
ENDBRANCH   2   3
ENDBRANCH   1   2
BRANCH   1  14
ATOM     14  C   UNL     1       2.898   5.400  18.512  0.00  0.00    +0.000 C 
BRANCH  14  15
ATOM     15  C   UNL     1       2.342   6.748  18.877  0.00  0.00    +0.000 A 
ATOM     16  C   UNL     1       2.278   7.783  17.940  0.00  0.00    +0.000 A 
ATOM     17  C   UNL     1       1.771   9.031  18.305  0.00  0.00    +0.000 A 
ATOM     18  C   UNL     1       1.310   9.265  19.604  0.00  0.00    +0.000 A 
ATOM     19  C   UNL     1       1.408   8.250  20.551  0.00  0.00    +0.000 A 
ATOM     20  C   UNL     1       1.896   6.993  20.184  0.00  0.00    +0.000 A 
BRANCH  18  21
ATOM     21  O   UNL     1       0.860  10.529  19.831  0.00  0.00    +0.000 OA
BRANCH  21  22
ATOM     22  C   UNL     1      -0.534  10.762  19.978  0.00  0.00    +0.000 C 
ATOM     23  F   UNL     1      -0.939  12.000  19.625  0.00  0.00    +0.000 F 
ATOM     24  F   UNL     1      -1.215   9.857  19.243  0.00  0.00    +0.000 F 
ATOM     25  F   UNL     1      -0.862  10.578  21.277  0.00  0.00    +0.000 F 
ENDBRANCH  21  22
ENDBRANCH  18  21
ENDBRANCH  14  15
ENDBRANCH   1  14
TORSDOF 9
ENDMDL
MODEL 5
REMARK VINA RESULT:      -6.8      1.688      2.249
REMARK  Name = 
REMARK  10 active torsions:
REMARK  status: ('A' for Active; 'I' for Inactive)
REMARK    1  A    between atoms: C_1  and  O_2
REMARK    2  A    between atoms: O_2  and  C_3
REMARK    3  A    between atoms: C_5  and  N_6
REMARK    4  A    between atoms: N_10  and  C_11
REMARK    5  A    between atoms: C_11  and  C_12
REMARK    6  A    between atoms: C_12  and  O_13
REMARK    7  A    between atoms: O_13  and  C_14
REMARK    8  A    between atoms: C_14  and  C_15
REMARK    9  A    between atoms: C_18  and  O_19
REMARK   10  A    between atoms: O_19  and  C_20
REMARK                            x       y       z     vdW  Elec       q    Type
REMARK                         _______ _______ _______ _____ _____    ______ ____
ROOT
ATOM      1  O   UNL     1       2.934   3.004  18.253  0.00  0.00    +0.000 OA
ENDROOT
BRANCH   1   2
ATOM      2  C   UNL     1       4.231   2.746  17.726  0.00  0.00    +0.000 C 
BRANCH   2   3
ATOM      3  C   UNL     1       5.183   3.809  18.254  0.00  0.00    +0.000 C 
BRANCH   3   8
ATOM      4  C   UNL     1       6.682   5.576  17.301  0.00  0.00    +0.000 A 
ATOM      5  N   UNL     1       7.245   5.901  16.162  0.00  0.00    +0.000 NA
ATOM      6  C   UNL     1       6.837   4.917  15.275  0.00  0.00    +0.000 A 
ATOM      7  C   UNL     1       6.021   3.994  15.899  0.00  0.00    +0.000 A 
ATOM      8  N   UNL     1       5.926   4.438  17.189  0.00  0.00    +0.000 N 
BRANCH   6   9
ATOM      9  N   UNL     1       7.263   4.917  13.895  0.00  0.00    +0.000 N 
ATOM     10  O   UNL     1       6.711   4.096  13.147  0.00  0.00    +0.000 OA
ATOM     11  O   UNL     1       8.139   5.724  13.560  0.00  0.00    +0.000 OA
ENDBRANCH   6   9
BRANCH   4  13
ATOM     12  C   UNL     1       7.919   5.791  19.250  0.00  0.00    +0.000 C 
ATOM     13  O   UNL     1       6.814   6.215  18.460  0.00  0.00    +0.000 OA
ENDBRANCH   4  13
ENDBRANCH   3   8
ENDBRANCH   2   3
ENDBRANCH   1   2
BRANCH   1  14
ATOM     14  C   UNL     1       2.273   4.052  17.548  0.00  0.00    +0.000 C 
BRANCH  14  15
ATOM     15  C   UNL     1       2.112   5.209  18.495  0.00  0.00    +0.000 A 
ATOM     16  C   UNL     1       2.319   6.525  18.072  0.00  0.00    +0.000 A 
ATOM     17  C   UNL     1       2.179   7.583  18.972  0.00  0.00    +0.000 A 
ATOM     18  C   UNL     1       1.819   7.348  20.303  0.00  0.00    +0.000 A 
ATOM     19  C   UNL     1       1.650   6.037  20.738  0.00  0.00    +0.000 A 
ATOM     20  C   UNL     1       1.770   4.977  19.835  0.00  0.00    +0.000 A 
BRANCH  18  21
ATOM     21  O   UNL     1       1.735   8.464  21.076  0.00  0.00    +0.000 OA
BRANCH  21  22
ATOM     22  C   UNL     1       0.500   9.158  21.176  0.00  0.00    +0.000 C 
ATOM     23  F   UNL     1      -0.041   9.521  19.994  0.00  0.00    +0.000 F 
ATOM     24  F   UNL     1      -0.389   8.388  21.840  0.00  0.00    +0.000 F 
ATOM     25  F   UNL     1       0.700  10.283  21.898  0.00  0.00    +0.000 F 
ENDBRANCH  21  22
ENDBRANCH  18  21
ENDBRANCH  14  15
ENDBRANCH   1  14
TORSDOF 9
ENDMDL
MODEL 6
REMARK VINA RESULT:      -6.8      1.186      1.413
REMARK  Name = 
REMARK  10 active torsions:
REMARK  status: ('A' for Active; 'I' for Inactive)
REMARK    1  A    between atoms: C_1  and  O_2
REMARK    2  A    between atoms: O_2  and  C_3
REMARK    3  A    between atoms: C_5  and  N_6
REMARK    4  A    between atoms: N_10  and  C_11
REMARK    5  A    between atoms: C_11  and  C_12
REMARK    6  A    between atoms: C_12  and  O_13
REMARK    7  A    between atoms: O_13  and  C_14
REMARK    8  A    between atoms: C_14  and  C_15
REMARK    9  A    between atoms: C_18  and  O_19
REMARK   10  A    between atoms: O_19  and  C_20
REMARK                            x       y       z     vdW  Elec       q    Type
REMARK                         _______ _______ _______ _____ _____    ______ ____
ROOT
ATOM      1  O   UNL     1       3.073   4.054  17.806  0.00  0.00    +0.000 OA
ENDROOT
BRANCH   1   2
ATOM      2  C   UNL     1       4.283   3.323  17.637  0.00  0.00    +0.000 C 
BRANCH   2   3
ATOM      3  C   UNL     1       5.451   4.282  17.809  0.00  0.00    +0.000 C 
BRANCH   3   8
ATOM      4  C   UNL     1       7.220   5.340  16.385  0.00  0.00    +0.000 A 
ATOM      5  N   UNL     1       7.612   5.367  15.134  0.00  0.00    +0.000 NA
ATOM      6  C   UNL     1       6.730   4.528  14.472  0.00  0.00    +0.000 A 
ATOM      7  C   UNL     1       5.802   3.996  15.344  0.00  0.00    +0.000 A 
ATOM      8  N   UNL     1       6.125   4.534  16.558  0.00  0.00    +0.000 N 
BRANCH   6   9
ATOM      9  N   UNL     1       6.839   4.283  13.052  0.00  0.00    +0.000 N 
ATOM     10  O   UNL     1       7.608   5.022  12.421  0.00  0.00    +0.000 OA
ATOM     11  O   UNL     1       6.163   3.365  12.571  0.00  0.00    +0.000 OA
ENDBRANCH   6   9
BRANCH   4  13
ATOM     12  C   UNL     1       7.541   7.372  17.454  0.00  0.00    +0.000 C 
ATOM     13  O   UNL     1       7.791   5.972  17.407  0.00  0.00    +0.000 OA
ENDBRANCH   4  13
ENDBRANCH   3   8
ENDBRANCH   2   3
ENDBRANCH   1   2
BRANCH   1  14
ATOM     14  C   UNL     1       2.838   4.382  19.174  0.00  0.00    +0.000 C 
BRANCH  14  15
ATOM     15  C   UNL     1       2.420   5.825  19.233  0.00  0.00    +0.000 A 
ATOM     16  C   UNL     1       2.472   6.641  18.100  0.00  0.00    +0.000 A 
ATOM     17  C   UNL     1       2.092   7.982  18.182  0.00  0.00    +0.000 A 
ATOM     18  C   UNL     1       1.646   8.528  19.390  0.00  0.00    +0.000 A 
ATOM     19  C   UNL     1       1.631   7.730  20.529  0.00  0.00    +0.000 A 
ATOM     20  C   UNL     1       1.990   6.381  20.447  0.00  0.00    +0.000 A 
BRANCH  18  21
ATOM     21  O   UNL     1       1.326   9.849  19.335  0.00  0.00    +0.000 OA
BRANCH  21  22
ATOM     22  C   UNL     1      -0.036  10.238  19.232  0.00  0.00    +0.000 C 
ATOM     23  F   UNL     1      -0.856   9.665  20.137  0.00  0.00    +0.000 F 
ATOM     24  F   UNL     1      -0.125  11.580  19.356  0.00  0.00    +0.000 F 
ATOM     25  F   UNL     1      -0.484   9.901  18.002  0.00  0.00    +0.000 F 
ENDBRANCH  21  22
ENDBRANCH  18  21
ENDBRANCH  14  15
ENDBRANCH   1  14
TORSDOF 9
ENDMDL
MODEL 7
REMARK VINA RESULT:      -6.8      2.517      3.383
REMARK  Name = 
REMARK  10 active torsions:
REMARK  status: ('A' for Active; 'I' for Inactive)
REMARK    1  A    between atoms: C_1  and  O_2
REMARK    2  A    between atoms: O_2  and  C_3
REMARK    3  A    between atoms: C_5  and  N_6
REMARK    4  A    between atoms: N_10  and  C_11
REMARK    5  A    between atoms: C_11  and  C_12
REMARK    6  A    between atoms: C_12  and  O_13
REMARK    7  A    between atoms: O_13  and  C_14
REMARK    8  A    between atoms: C_14  and  C_15
REMARK    9  A    between atoms: C_18  and  O_19
REMARK   10  A    between atoms: O_19  and  C_20
REMARK                            x       y       z     vdW  Elec       q    Type
REMARK                         _______ _______ _______ _____ _____    ______ ____
ROOT
ATOM      1  O   UNL     1       2.406   5.814  18.583  0.00  0.00    +0.000 OA
ENDROOT
BRANCH   1   2
ATOM      2  C   UNL     1       1.726   4.908  17.721  0.00  0.00    +0.000 C 
BRANCH   2   3
ATOM      3  C   UNL     1       2.563   3.644  17.598  0.00  0.00    +0.000 C 
BRANCH   3   8
ATOM      4  C   UNL     1       4.692   3.794  18.913  0.00  0.00    +0.000 A 
ATOM      5  N   UNL     1       5.952   4.109  18.739  0.00  0.00    +0.000 NA
ATOM      6  C   UNL     1       6.050   4.443  17.398  0.00  0.00    +0.000 A 
ATOM      7  C   UNL     1       4.828   4.323  16.766  0.00  0.00    +0.000 A 
ATOM      8  N   UNL     1       3.972   3.918  17.752  0.00  0.00    +0.000 N 
BRANCH   6   9
ATOM      9  N   UNL     1       7.305   4.843  16.806  0.00  0.00    +0.000 N 
ATOM     10  O   UNL     1       7.264   5.799  16.017  0.00  0.00    +0.000 OA
ATOM     11  O   UNL     1       8.321   4.211  17.121  0.00  0.00    +0.000 OA
ENDBRANCH   6   9
BRANCH   4  13
ATOM     12  C   UNL     1       4.362   2.003  20.347  0.00  0.00    +0.000 C 
ATOM     13  O   UNL     1       4.129   3.373  20.041  0.00  0.00    +0.000 OA
ENDBRANCH   4  13
ENDBRANCH   3   8
ENDBRANCH   2   3
ENDBRANCH   1   2
BRANCH   1  14
ATOM     14  C   UNL     1       2.391   7.145  18.072  0.00  0.00    +0.000 C 
BRANCH  14  15
ATOM     15  C   UNL     1       1.873   8.047  19.158  0.00  0.00    +0.000 A 
ATOM     16  C   UNL     1       1.834   7.626  20.491  0.00  0.00    +0.000 A 
ATOM     17  C   UNL     1       1.335   8.475  21.481  0.00  0.00    +0.000 A 
ATOM     18  C   UNL     1       0.878   9.758  21.161  0.00  0.00    +0.000 A 
ATOM     19  C   UNL     1       0.879  10.166  19.831  0.00  0.00    +0.000 A 
ATOM     20  C   UNL     1       1.396   9.326  18.840  0.00  0.00    +0.000 A 
BRANCH  18  21
ATOM     21  O   UNL     1       0.401  10.472  22.216  0.00  0.00    +0.000 OA
BRANCH  21  22
ATOM     22  C   UNL     1      -0.473   9.851  23.148  0.00  0.00    +0.000 C 
ATOM     23  F   UNL     1      -1.146   8.786  22.666  0.00  0.00    +0.000 F 
ATOM     24  F   UNL     1       0.235   9.463  24.230  0.00  0.00    +0.000 F 
ATOM     25  F   UNL     1      -1.386  10.764  23.549  0.00  0.00    +0.000 F 
ENDBRANCH  21  22
ENDBRANCH  18  21
ENDBRANCH  14  15
ENDBRANCH   1  14
TORSDOF 9
ENDMDL
MODEL 8
REMARK VINA RESULT:      -6.8      1.492      1.814
REMARK  Name = 
REMARK  10 active torsions:
REMARK  status: ('A' for Active; 'I' for Inactive)
REMARK    1  A    between atoms: C_1  and  O_2
REMARK    2  A    between atoms: O_2  and  C_3
REMARK    3  A    between atoms: C_5  and  N_6
REMARK    4  A    between atoms: N_10  and  C_11
REMARK    5  A    between atoms: C_11  and  C_12
REMARK    6  A    between atoms: C_12  and  O_13
REMARK    7  A    between atoms: O_13  and  C_14
REMARK    8  A    between atoms: C_14  and  C_15
REMARK    9  A    between atoms: C_18  and  O_19
REMARK   10  A    between atoms: O_19  and  C_20
REMARK                            x       y       z     vdW  Elec       q    Type
REMARK                         _______ _______ _______ _____ _____    ______ ____
ROOT
ATOM      1  O   UNL     1       2.893   5.502  18.962  0.00  0.00    +0.000 OA
ENDROOT
BRANCH   1   2
ATOM      2  C   UNL     1       4.069   4.818  19.380  0.00  0.00    +0.000 C 
BRANCH   2   3
ATOM      3  C   UNL     1       4.366   3.717  18.374  0.00  0.00    +0.000 C 
BRANCH   3   8
ATOM      4  C   UNL     1       6.648   4.550  17.761  0.00  0.00    +0.000 A 
ATOM      5  N   UNL     1       7.357   4.827  16.693  0.00  0.00    +0.000 NA
ATOM      6  C   UNL     1       6.516   4.543  15.629  0.00  0.00    +0.000 A 
ATOM      7  C   UNL     1       5.290   4.089  16.074  0.00  0.00    +0.000 A 
ATOM      8  N   UNL     1       5.390   4.110  17.437  0.00  0.00    +0.000 N 
BRANCH   6   9
ATOM      9  N   UNL     1       6.942   4.713  14.260  0.00  0.00    +0.000 N 
ATOM     10  O   UNL     1       6.413   3.970  13.420  0.00  0.00    +0.000 OA
ATOM     11  O   UNL     1       7.796   5.575  14.023  0.00  0.00    +0.000 OA
ENDBRANCH   6   9
BRANCH   4  13
ATOM     12  C   UNL     1       7.893   5.751  19.305  0.00  0.00    +0.000 C 
ATOM     13  O   UNL     1       7.053   4.637  19.024  0.00  0.00    +0.000 OA
ENDBRANCH   4  13
ENDBRANCH   3   8
ENDBRANCH   2   3
ENDBRANCH   1   2
BRANCH   1  14
ATOM     14  C   UNL     1       3.199   6.658  18.186  0.00  0.00    +0.000 C 
BRANCH  14  15
ATOM     15  C   UNL     1       2.307   7.774  18.655  0.00  0.00    +0.000 A 
ATOM     16  C   UNL     1       1.925   8.806  17.794  0.00  0.00    +0.000 A 
ATOM     17  C   UNL     1       1.109   9.841  18.255  0.00  0.00    +0.000 A 
ATOM     18  C   UNL     1       0.651   9.857  19.577  0.00  0.00    +0.000 A 
ATOM     19  C   UNL     1       1.061   8.852  20.448  0.00  0.00    +0.000 A 
ATOM     20  C   UNL     1       1.862   7.804  19.984  0.00  0.00    +0.000 A 
BRANCH  18  21
ATOM     21  O   UNL     1      -0.120  10.929  19.900  0.00  0.00    +0.000 OA
BRANCH  21  22
ATOM     22  C   UNL     1       0.282  11.792  20.955  0.00  0.00    +0.000 C 
ATOM     23  F   UNL     1      -0.052  11.366  22.191  0.00  0.00    +0.000 F 
ATOM     24  F   UNL     1       1.621  11.961  20.903  0.00  0.00    +0.000 F 
ATOM     25  F   UNL     1      -0.300  12.997  20.765  0.00  0.00    +0.000 F 
ENDBRANCH  21  22
ENDBRANCH  18  21
ENDBRANCH  14  15
ENDBRANCH   1  14
TORSDOF 9
ENDMDL
MODEL 9
REMARK VINA RESULT:      -6.6      5.285      8.981
REMARK  Name = 
REMARK  10 active torsions:
REMARK  status: ('A' for Active; 'I' for Inactive)
REMARK    1  A    between atoms: C_1  and  O_2
REMARK    2  A    between atoms: O_2  and  C_3
REMARK    3  A    between atoms: C_5  and  N_6
REMARK    4  A    between atoms: N_10  and  C_11
REMARK    5  A    between atoms: C_11  and  C_12
REMARK    6  A    between atoms: C_12  and  O_13
REMARK    7  A    between atoms: O_13  and  C_14
REMARK    8  A    between atoms: C_14  and  C_15
REMARK    9  A    between atoms: C_18  and  O_19
REMARK   10  A    between atoms: O_19  and  C_20
REMARK                            x       y       z     vdW  Elec       q    Type
REMARK                         _______ _______ _______ _____ _____    ______ ____
ROOT
ATOM      1  O   UNL     1       3.346   5.963  18.962  0.00  0.00    +0.000 OA
ENDROOT
BRANCH   1   2
ATOM      2  C   UNL     1       2.456   6.655  19.831  0.00  0.00    +0.000 C 
BRANCH   2   3
ATOM      3  C   UNL     1       1.992   7.923  19.130  0.00  0.00    +0.000 C 
BRANCH   3   8
ATOM      4  C   UNL     1       1.049  10.150  19.789  0.00  0.00    +0.000 A 
ATOM      5  N   UNL     1       0.469  10.725  20.814  0.00  0.00    +0.000 NA
ATOM      6  C   UNL     1       0.390   9.732  21.777  0.00  0.00    +0.000 A 
ATOM      7  C   UNL     1       0.932   8.549  21.314  0.00  0.00    +0.000 A 
ATOM      8  N   UNL     1       1.355   8.839  20.047  0.00  0.00    +0.000 N 
BRANCH   6   9
ATOM      9  N   UNL     1      -0.206   9.974  23.070  0.00  0.00    +0.000 N 
ATOM     10  O   UNL     1       0.443   9.597  24.057  0.00  0.00    +0.000 OA
ATOM     11  O   UNL     1      -1.310  10.531  23.103  0.00  0.00    +0.000 OA
ENDBRANCH   6   9
BRANCH   4  13
ATOM     12  C   UNL     1       1.578  12.104  18.659  0.00  0.00    +0.000 C 
ATOM     13  O   UNL     1       1.307  10.708  18.610  0.00  0.00    +0.000 OA
ENDBRANCH   4  13
ENDBRANCH   3   8
ENDBRANCH   2   3
ENDBRANCH   1   2
BRANCH   1  14
ATOM     14  C   UNL     1       3.731   6.766  17.848  0.00  0.00    +0.000 C 
BRANCH  14  15
ATOM     15  C   UNL     1       4.441   5.875  16.866  0.00  0.00    +0.000 A 
ATOM     16  C   UNL     1       5.231   6.409  15.845  0.00  0.00    +0.000 A 
ATOM     17  C   UNL     1       5.869   5.563  14.935  0.00  0.00    +0.000 A 
ATOM     18  C   UNL     1       5.738   4.175  15.035  0.00  0.00    +0.000 A 
ATOM     19  C   UNL     1       4.921   3.640  16.026  0.00  0.00    +0.000 A 
ATOM     20  C   UNL     1       4.297   4.483  16.951  0.00  0.00    +0.000 A 
BRANCH  18  21
ATOM     21  O   UNL     1       6.396   3.469  14.075  0.00  0.00    +0.000 OA
BRANCH  21  22
ATOM     22  C   UNL     1       5.932   3.509  12.733  0.00  0.00    +0.000 C 
ATOM     23  F   UNL     1       4.656   3.921  12.588  0.00  0.00    +0.000 F 
ATOM     24  F   UNL     1       6.734   4.321  12.010  0.00  0.00    +0.000 F 
ATOM     25  F   UNL     1       6.022   2.264  12.214  0.00  0.00    +0.000 F 
ENDBRANCH  21  22
ENDBRANCH  18  21
ENDBRANCH  14  15
ENDBRANCH   1  14
TORSDOF 9
ENDMDL
