MODEL 1
REMARK VINA RESULT:      -5.4      0.000      0.000
REMARK  Name = 
REMARK  4 active torsions:
REMARK  status: ('A' for Active; 'I' for Inactive)
REMARK    1  A    between atoms: O_1  and  C_2
REMARK    2  A    between atoms: C_3  and  O_4
REMARK    3  A    between atoms: C_7  and  O_8
REMARK    4  A    between atoms: C_9  and  O_10
REMARK                            x       y       z     vdW  Elec       q    Type
REMARK                         _______ _______ _______ _____ _____    ______ ____
ROOT
ATOM      1  C   UNL     1       4.263   3.011  19.034  0.00  0.00    +0.000 C 
ATOM      2  C   UNL     1       3.625   2.870  20.424  0.00  0.00    +0.000 C 
ATOM      3  C   UNL     1       2.170   2.399  20.351  0.00  0.00    +0.000 C 
ATOM      4 CL   UNL     1       1.467   2.376  22.008  0.00  0.00    +0.000 Cl
ATOM      5  C   UNL     1       1.335   3.296  19.430  0.00  0.00    +0.000 C 
ATOM      6  C   UNL     1       1.972   3.399  18.029  0.00  0.00    +0.000 C 
ATOM      7  C   UNL     1       3.424   3.898  18.104  0.00  0.00    +0.000 C 
ATOM      8 CL   UNL     1       4.150   3.895  16.455  0.00  0.00    +0.000 Cl
ENDROOT
BRANCH   1   9
ATOM      9  O   UNL     1       5.575   3.568  19.217  0.00  0.00    +0.000 OA
ATOM     10  H   UNL     1       6.184   2.801  19.311  0.00  0.00    +0.000 HD
ENDBRANCH   1   9
BRANCH   2  11
ATOM     11  O   UNL     1       4.462   1.967  21.173  0.00  0.00    +0.000 OA
ATOM     12  H   UNL     1       4.002   1.118  21.291  0.00  0.00    +0.000 HD
ENDBRANCH   2  11
BRANCH   5  13
ATOM     13  O   UNL     1      -0.001   2.785  19.323  0.00  0.00    +0.000 OA
ATOM     14  H   UNL     1      -0.009   2.004  18.747  0.00  0.00    +0.000 HD
ENDBRANCH   5  13
BRANCH   6  15
ATOM     15  O   UNL     1       1.165   4.251  17.206  0.00  0.00    +0.000 OA
ATOM     16  H   UNL     1       0.579   3.713  16.655  0.00  0.00    +0.000 HD
ENDBRANCH   6  15
TORSDOF 4
ENDMDL
MODEL 2
REMARK VINA RESULT:      -5.4      0.158      3.407
REMARK  Name = 
REMARK  4 active torsions:
REMARK  status: ('A' for Active; 'I' for Inactive)
REMARK    1  A    between atoms: O_1  and  C_2
REMARK    2  A    between atoms: C_3  and  O_4
REMARK    3  A    between atoms: C_7  and  O_8
REMARK    4  A    between atoms: C_9  and  O_10
REMARK                            x       y       z     vdW  Elec       q    Type
REMARK                         _______ _______ _______ _____ _____    ______ ____
ROOT
ATOM      1  C   UNL     1       3.785   2.925  20.331  0.00  0.00    +0.000 C 
ATOM      2  C   UNL     1       4.353   3.088  18.914  0.00  0.00    +0.000 C 
ATOM      3  C   UNL     1       3.451   3.941  18.019  0.00  0.00    +0.000 C 
ATOM      4 CL   UNL     1       4.129   3.981  16.353  0.00  0.00    +0.000 Cl
ATOM      5  C   UNL     1       2.014   3.406  17.998  0.00  0.00    +0.000 C 
ATOM      6  C   UNL     1       1.447   3.281  19.427  0.00  0.00    +0.000 C 
ATOM      7  C   UNL     1       2.341   2.401  20.315  0.00  0.00    +0.000 C 
ATOM      8 CL   UNL     1       1.691   2.379  21.995  0.00  0.00    +0.000 Cl
ENDROOT
BRANCH   1   9
ATOM      9  O   UNL     1       4.644   2.017  21.039  0.00  0.00    +0.000 OA
ATOM     10  H   UNL     1       4.339   2.027  21.974  0.00  0.00    +0.000 HD
ENDBRANCH   1   9
BRANCH   2  11
ATOM     11  O   UNL     1       5.673   3.646  19.061  0.00  0.00    +0.000 OA
ATOM     12  H   UNL     1       5.673   4.299  19.782  0.00  0.00    +0.000 HD
ENDBRANCH   2  11
BRANCH   5  13
ATOM     13  O   UNL     1       1.178   4.269  17.214  0.00  0.00    +0.000 OA
ATOM     14  H   UNL     1       0.244   4.062  17.381  0.00  0.00    +0.000 HD
ENDBRANCH   5  13
BRANCH   6  15
ATOM     15  O   UNL     1       0.109   2.771  19.360  0.00  0.00    +0.000 OA
ATOM     16  H   UNL     1       0.127   1.841  19.089  0.00  0.00    +0.000 HD
ENDBRANCH   6  15
TORSDOF 4
ENDMDL
MODEL 3
REMARK VINA RESULT:      -5.3      2.073      2.160
REMARK  Name = 
REMARK  4 active torsions:
REMARK  status: ('A' for Active; 'I' for Inactive)
REMARK    1  A    between atoms: O_1  and  C_2
REMARK    2  A    between atoms: C_3  and  O_4
REMARK    3  A    between atoms: C_7  and  O_8
REMARK    4  A    between atoms: C_9  and  O_10
REMARK                            x       y       z     vdW  Elec       q    Type
REMARK                         _______ _______ _______ _____ _____    ______ ____
ROOT
ATOM      1  C   UNL     1       4.893   4.086  18.625  0.00  0.00    +0.000 C 
ATOM      2  C   UNL     1       4.487   3.250  19.847  0.00  0.00    +0.000 C 
ATOM      3  C   UNL     1       2.998   3.388  20.178  0.00  0.00    +0.000 C 
ATOM      4 CL   UNL     1       2.636   2.475  21.686  0.00  0.00    +0.000 Cl
ATOM      5  C   UNL     1       2.592   4.859  20.334  0.00  0.00    +0.000 C 
ATOM      6  C   UNL     1       2.977   5.677  19.084  0.00  0.00    +0.000 C 
ATOM      7  C   UNL     1       4.477   5.557  18.770  0.00  0.00    +0.000 C 
ATOM      8 CL   UNL     1       4.848   6.441  17.245  0.00  0.00    +0.000 Cl
ENDROOT
BRANCH   1   9
ATOM      9  O   UNL     1       6.318   3.975  18.481  0.00  0.00    +0.000 OA
ATOM     10  H   UNL     1       6.600   3.272  19.109  0.00  0.00    +0.000 HD
ENDBRANCH   1   9
BRANCH   2  11
ATOM     11  O   UNL     1       4.865   1.890  19.561  0.00  0.00    +0.000 OA
ATOM     12  H   UNL     1       5.531   1.594  20.205  0.00  0.00    +0.000 HD
ENDBRANCH   2  11
BRANCH   5  13
ATOM     13  O   UNL     1       1.180   4.958  20.567  0.00  0.00    +0.000 OA
ATOM     14  H   UNL     1       0.957   5.859  20.855  0.00  0.00    +0.000 HD
ENDBRANCH   5  13
BRANCH   6  15
ATOM     15  O   UNL     1       2.588   7.043  19.276  0.00  0.00    +0.000 OA
ATOM     16  H   UNL     1       1.759   7.079  19.776  0.00  0.00    +0.000 HD
ENDBRANCH   6  15
TORSDOF 4
ENDMDL
MODEL 4
REMARK VINA RESULT:      -5.3      2.074      3.905
REMARK  Name = 
REMARK  4 active torsions:
REMARK  status: ('A' for Active; 'I' for Inactive)
REMARK    1  A    between atoms: O_1  and  C_2
REMARK    2  A    between atoms: C_3  and  O_4
REMARK    3  A    between atoms: C_7  and  O_8
REMARK    4  A    between atoms: C_9  and  O_10
REMARK                            x       y       z     vdW  Elec       q    Type
REMARK                         _______ _______ _______ _____ _____    ______ ____
ROOT
ATOM      1  C   UNL     1       4.502   3.263  19.839  0.00  0.00    +0.000 C 
ATOM      2  C   UNL     1       4.892   4.111  18.620  0.00  0.00    +0.000 C 
ATOM      3  C   UNL     1       4.450   5.570  18.760  0.00  0.00    +0.000 C 
ATOM      4 CL   UNL     1       4.840   6.460  17.245  0.00  0.00    +0.000 Cl
ATOM      5  C   UNL     1       2.952   5.675  19.070  0.00  0.00    +0.000 C 
ATOM      6  C   UNL     1       2.583   4.844  20.316  0.00  0.00    +0.000 C 
ATOM      7  C   UNL     1       3.005   3.375  20.161  0.00  0.00    +0.000 C 
ATOM      8 CL   UNL     1       2.649   2.480  21.684  0.00  0.00    +0.000 Cl
ENDROOT
BRANCH   1   9
ATOM      9  O   UNL     1       4.856   1.901  19.548  0.00  0.00    +0.000 OA
ATOM     10  H   UNL     1       4.024   1.458  19.267  0.00  0.00    +0.000 HD
ENDBRANCH   1   9
BRANCH   2  11
ATOM     11  O   UNL     1       6.319   3.979  18.465  0.00  0.00    +0.000 OA
ATOM     12  H   UNL     1       6.755   4.129  19.321  0.00  0.00    +0.000 HD
ENDBRANCH   2  11
BRANCH   5  13
ATOM     13  O   UNL     1       2.585   7.047  19.271  0.00  0.00    +0.000 OA
ATOM     14  H   UNL     1       1.656   7.101  19.551  0.00  0.00    +0.000 HD
ENDBRANCH   5  13
BRANCH   6  15
ATOM     15  O   UNL     1       1.176   4.964  20.564  0.00  0.00    +0.000 OA
ATOM     16  H   UNL     1       0.957   4.546  21.409  0.00  0.00    +0.000 HD
ENDBRANCH   6  15
TORSDOF 4
ENDMDL
MODEL 5
REMARK VINA RESULT:      -5.1      2.166      3.324
REMARK  Name = 
REMARK  4 active torsions:
REMARK  status: ('A' for Active; 'I' for Inactive)
REMARK    1  A    between atoms: O_1  and  C_2
REMARK    2  A    between atoms: C_3  and  O_4
REMARK    3  A    between atoms: C_7  and  O_8
REMARK    4  A    between atoms: C_9  and  O_10
REMARK                            x       y       z     vdW  Elec       q    Type
REMARK                         _______ _______ _______ _____ _____    ______ ____
ROOT
ATOM      1  C   UNL     1       3.241   6.003  18.765  0.00  0.00    +0.000 C 
ATOM      2  C   UNL     1       2.494   5.109  19.767  0.00  0.00    +0.000 C 
ATOM      3  C   UNL     1       3.365   3.961  20.284  0.00  0.00    +0.000 C 
ATOM      4 CL   UNL     1       2.380   2.901  21.354  0.00  0.00    +0.000 Cl
ATOM      5  C   UNL     1       3.963   3.147  19.131  0.00  0.00    +0.000 C 
ATOM      6  C   UNL     1       4.738   4.055  18.154  0.00  0.00    +0.000 C 
ATOM      7  C   UNL     1       3.853   5.191  17.615  0.00  0.00    +0.000 C 
ATOM      8 CL   UNL     1       4.836   6.278  16.568  0.00  0.00    +0.000 Cl
ENDROOT
BRANCH   1   9
ATOM      9  O   UNL     1       2.300   6.965  18.261  0.00  0.00    +0.000 OA
ATOM     10  H   UNL     1       1.841   7.335  19.049  0.00  0.00    +0.000 HD
ENDBRANCH   1   9
BRANCH   2  11
ATOM     11  O   UNL     1       2.031   5.972  20.824  0.00  0.00    +0.000 OA
ATOM     12  H   UNL     1       2.789   6.275  21.354  0.00  0.00    +0.000 HD
ENDBRANCH   2  11
BRANCH   5  13
ATOM     13  O   UNL     1       4.833   2.129  19.646  0.00  0.00    +0.000 OA
ATOM     14  H   UNL     1       5.759   2.386  19.506  0.00  0.00    +0.000 HD
ENDBRANCH   5  13
BRANCH   6  15
ATOM     15  O   UNL     1       5.272   3.256  17.090  0.00  0.00    +0.000 OA
ATOM     16  H   UNL     1       6.217   3.438  16.988  0.00  0.00    +0.000 HD
ENDBRANCH   6  15
TORSDOF 4
ENDMDL
MODEL 6
REMARK VINA RESULT:      -5.1      2.244      4.753
REMARK  Name = 
REMARK  4 active torsions:
REMARK  status: ('A' for Active; 'I' for Inactive)
REMARK    1  A    between atoms: O_1  and  C_2
REMARK    2  A    between atoms: C_3  and  O_4
REMARK    3  A    between atoms: C_7  and  O_8
REMARK    4  A    between atoms: C_9  and  O_10
REMARK                            x       y       z     vdW  Elec       q    Type
REMARK                         _______ _______ _______ _____ _____    ______ ____
ROOT
ATOM      1  C   UNL     1       2.546   5.230  19.698  0.00  0.00    +0.000 C 
ATOM      2  C   UNL     1       3.278   6.126  18.687  0.00  0.00    +0.000 C 
ATOM      3  C   UNL     1       3.931   5.320  17.561  0.00  0.00    +0.000 C 
ATOM      4 CL   UNL     1       4.862   6.432  16.495  0.00  0.00    +0.000 Cl
ATOM      5  C   UNL     1       4.845   4.221  18.114  0.00  0.00    +0.000 C 
ATOM      6  C   UNL     1       4.085   3.311  19.101  0.00  0.00    +0.000 C 
ATOM      7  C   UNL     1       3.454   4.120  20.245  0.00  0.00    +0.000 C 
ATOM      8 CL   UNL     1       2.492   3.023  21.302  0.00  0.00    +0.000 Cl
ENDROOT
BRANCH   1   9
ATOM      9  O   UNL     1       2.080   6.074  20.763  0.00  0.00    +0.000 OA
ATOM     10  H   UNL     1       2.742   6.797  20.847  0.00  0.00    +0.000 HD
ENDBRANCH   1   9
BRANCH   2  11
ATOM     11  O   UNL     1       2.310   7.075  18.199  0.00  0.00    +0.000 OA
ATOM     12  H   UNL     1       2.753   7.913  17.984  0.00  0.00    +0.000 HD
ENDBRANCH   2  11
BRANCH   5  13
ATOM     13  O   UNL     1       5.380   3.437  17.039  0.00  0.00    +0.000 OA
ATOM     14  H   UNL     1       5.111   2.510  17.143  0.00  0.00    +0.000 HD
ENDBRANCH   5  13
BRANCH   6  15
ATOM     15  O   UNL     1       4.978   2.305  19.598  0.00  0.00    +0.000 OA
ATOM     16  H   UNL     1       5.855   2.689  19.741  0.00  0.00    +0.000 HD
ENDBRANCH   6  15
TORSDOF 4
ENDMDL
MODEL 7
REMARK VINA RESULT:      -5.1      2.040      4.143
REMARK  Name = 
REMARK  4 active torsions:
REMARK  status: ('A' for Active; 'I' for Inactive)
REMARK    1  A    between atoms: O_1  and  C_2
REMARK    2  A    between atoms: C_3  and  O_4
REMARK    3  A    between atoms: C_7  and  O_8
REMARK    4  A    between atoms: C_9  and  O_10
REMARK                            x       y       z     vdW  Elec       q    Type
REMARK                         _______ _______ _______ _____ _____    ______ ____
ROOT
ATOM      1  C   UNL     1       2.672   2.232  19.283  0.00  0.00    +0.000 C 
ATOM      2  C   UNL     1       3.543   2.598  18.072  0.00  0.00    +0.000 C 
ATOM      3  C   UNL     1       4.574   3.681  18.402  0.00  0.00    +0.000 C 
ATOM      4 CL   UNL     1       5.466   4.131  16.906  0.00  0.00    +0.000 Cl
ATOM      5  C   UNL     1       3.911   4.917  19.021  0.00  0.00    +0.000 C 
ATOM      6  C   UNL     1       3.068   4.536  20.255  0.00  0.00    +0.000 C 
ATOM      7  C   UNL     1       2.016   3.469  19.914  0.00  0.00    +0.000 C 
ATOM      8 CL   UNL     1       1.137   2.985  21.410  0.00  0.00    +0.000 Cl
ENDROOT
BRANCH   1   9
ATOM      9  O   UNL     1       1.672   1.304  18.830  0.00  0.00    +0.000 OA
ATOM     10  H   UNL     1       0.885   1.846  18.596  0.00  0.00    +0.000 HD
ENDBRANCH   1   9
BRANCH   2  11
ATOM     11  O   UNL     1       4.152   1.374  17.617  0.00  0.00    +0.000 OA
ATOM     12  H   UNL     1       3.764   1.114  16.764  0.00  0.00    +0.000 HD
ENDBRANCH   2  11
BRANCH   5  13
ATOM     13  O   UNL     1       4.909   5.879  19.389  0.00  0.00    +0.000 OA
ATOM     14  H   UNL     1       5.319   6.251  18.591  0.00  0.00    +0.000 HD
ENDBRANCH   5  13
BRANCH   6  15
ATOM     15  O   UNL     1       2.462   5.717  20.796  0.00  0.00    +0.000 OA
ATOM     16  H   UNL     1       1.540   5.534  21.027  0.00  0.00    +0.000 HD
ENDBRANCH   6  15
TORSDOF 4
ENDMDL
MODEL 8
REMARK VINA RESULT:      -5.1      2.117      2.772
REMARK  Name = 
REMARK  4 active torsions:
REMARK  status: ('A' for Active; 'I' for Inactive)
REMARK    1  A    between atoms: O_1  and  C_2
REMARK    2  A    between atoms: C_3  and  O_4
REMARK    3  A    between atoms: C_7  and  O_8
REMARK    4  A    between atoms: C_9  and  O_10
REMARK                            x       y       z     vdW  Elec       q    Type
REMARK                         _______ _______ _______ _____ _____    ______ ____
ROOT
ATOM      1  C   UNL     1       3.495   2.676  17.722  0.00  0.00    +0.000 C 
ATOM      2  C   UNL     1       2.560   2.777  18.936  0.00  0.00    +0.000 C 
ATOM      3  C   UNL     1       1.884   4.147  19.039  0.00  0.00    +0.000 C 
ATOM      4 CL   UNL     1       0.905   4.216  20.547  0.00  0.00    +0.000 Cl
ATOM      5  C   UNL     1       2.913   5.283  19.018  0.00  0.00    +0.000 C 
ATOM      6  C   UNL     1       3.821   5.187  17.775  0.00  0.00    +0.000 C 
ATOM      7  C   UNL     1       4.519   3.820  17.689  0.00  0.00    +0.000 C 
ATOM      8 CL   UNL     1       5.478   3.725  16.167  0.00  0.00    +0.000 Cl
ENDROOT
BRANCH   1   9
ATOM      9  O   UNL     1       4.159   1.404  17.793  0.00  0.00    +0.000 OA
ATOM     10  H   UNL     1       3.572   0.821  18.325  0.00  0.00    +0.000 HD
ENDBRANCH   1   9
BRANCH   2  11
ATOM     11  O   UNL     1       1.611   1.699  18.816  0.00  0.00    +0.000 OA
ATOM     12  H   UNL     1       0.890   1.964  18.220  0.00  0.00    +0.000 HD
ENDBRANCH   2  11
BRANCH   5  13
ATOM     13  O   UNL     1       2.245   6.553  19.038  0.00  0.00    +0.000 OA
ATOM     14  H   UNL     1       2.734   7.172  19.604  0.00  0.00    +0.000 HD
ENDBRANCH   5  13
BRANCH   6  15
ATOM     15  O   UNL     1       4.770   6.261  17.799  0.00  0.00    +0.000 OA
ATOM     16  H   UNL     1       5.659   5.908  17.951  0.00  0.00    +0.000 HD
ENDBRANCH   6  15
TORSDOF 4
ENDMDL
MODEL 9
REMARK VINA RESULT:      -5.1      2.121      4.123
REMARK  Name = 
REMARK  4 active torsions:
REMARK  status: ('A' for Active; 'I' for Inactive)
REMARK    1  A    between atoms: O_1  and  C_2
REMARK    2  A    between atoms: C_3  and  O_4
REMARK    3  A    between atoms: C_7  and  O_8
REMARK    4  A    between atoms: C_9  and  O_10
REMARK                            x       y       z     vdW  Elec       q    Type
REMARK                         _______ _______ _______ _____ _____    ______ ____
ROOT
ATOM      1  C   UNL     1       2.568   2.764  18.916  0.00  0.00    +0.000 C 
ATOM      2  C   UNL     1       3.516   2.681  17.709  0.00  0.00    +0.000 C 
ATOM      3  C   UNL     1       4.521   3.835  17.678  0.00  0.00    +0.000 C 
ATOM      4 CL   UNL     1       5.507   3.726  16.177  0.00  0.00    +0.000 Cl
ATOM      5  C   UNL     1       3.816   5.195  17.756  0.00  0.00    +0.000 C 
ATOM      6  C   UNL     1       2.895   5.273  18.991  0.00  0.00    +0.000 C 
ATOM      7  C   UNL     1       1.870   4.129  19.005  0.00  0.00    +0.000 C 
ATOM      8 CL   UNL     1       0.897   4.207  20.519  0.00  0.00    +0.000 Cl
ENDROOT
BRANCH   1   9
ATOM      9  O   UNL     1       1.602   1.709  18.778  0.00  0.00    +0.000 OA
ATOM     10  H   UNL     1       0.942   1.851  19.494  0.00  0.00    +0.000 HD
ENDBRANCH   1   9
BRANCH   2  11
ATOM     11  O   UNL     1       4.156   1.392  17.776  0.00  0.00    +0.000 OA
ATOM     12  H   UNL     1       3.497   0.711  17.994  0.00  0.00    +0.000 HD
ENDBRANCH   2  11
BRANCH   5  13
ATOM     13  O   UNL     1       4.786   6.251  17.802  0.00  0.00    +0.000 OA
ATOM     14  H   UNL     1       5.626   5.943  17.424  0.00  0.00    +0.000 HD
ENDBRANCH   5  13
BRANCH   6  15
ATOM     15  O   UNL     1       2.253   6.554  19.019  0.00  0.00    +0.000 OA
ATOM     16  H   UNL     1       2.052   6.839  18.116  0.00  0.00    +0.000 HD
ENDBRANCH   6  15
TORSDOF 4
ENDMDL
