MODEL 1
REMARK VINA RESULT:      -8.6      0.000      0.000
REMARK  Name = 
REMARK  7 active torsions:
REMARK  status: ('A' for Active; 'I' for Inactive)
REMARK    1  A    between atoms: C_1  and  C_2
REMARK    2  A    between atoms: C_7  and  N_8
REMARK    3  A    between atoms: N_11  and  C_12
REMARK    4  A    between atoms: C_12  and  C_13
REMARK    5  A    between atoms: C_13  and  C_14
REMARK    6  A    between atoms: C_17  and  C_18
REMARK    7  A    between atoms: N_24  and  C_25
REMARK                            x       y       z     vdW  Elec       q    Type
REMARK                         _______ _______ _______ _____ _____    ______ ____
ROOT
ATOM      1  C   UNL     1       7.922   7.641  18.252  0.00  0.00    +0.000 C 
ENDROOT
BRANCH   1   5
ATOM      2  N   UNL     1       8.884  11.131  17.819  0.00  0.00    +0.000 N 
ATOM      3  C   UNL     1       8.843   9.910  18.443  0.00  0.00    +0.000 C 
ATOM      4  O   UNL     1       9.342   9.678  19.539  0.00  0.00    +0.000 OA
ATOM      5  N   UNL     1       8.172   8.973  17.701  0.00  0.00    +0.000 N 
ATOM      6  H   UNL     1       8.727  11.135  16.823  0.00  0.00    +0.000 HD
ATOM      7  H   UNL     1       7.455   9.346  17.097  0.00  0.00    +0.000 HD
BRANCH   2  14
ATOM      8  C   UNL     1       7.735  13.879  17.990  0.00  0.00    +0.000 C 
ATOM      9  C   UNL     1       9.224  13.596  17.775  0.00  0.00    +0.000 C 
ATOM     10  C   UNL     1      10.057  14.739  18.379  0.00  0.00    +0.000 C 
ATOM     11  C   UNL     1      11.554  14.505  18.205  0.00  0.00    +0.000 C 
ATOM     12  C   UNL     1      11.979  13.161  18.784  0.00  0.00    +0.000 C 
ATOM     13  C   UNL     1      11.156  12.010  18.209  0.00  0.00    +0.000 C 
ATOM     14  C   UNL     1       9.645  12.242  18.389  0.00  0.00    +0.000 C 
ENDBRANCH   2  14
ENDBRANCH   1   5
BRANCH   1  15
ATOM     15  C   UNL     1       7.157   6.719  17.294  0.00  0.00    +0.000 C 
BRANCH  15  16
ATOM     16  C   UNL     1       6.328   5.722  18.030  0.00  0.00    +0.000 A 
ATOM     17  N   UNL     1       6.784   4.719  18.748  0.00  0.00    +0.000 NA
ATOM     18  N   UNL     1       5.708   4.041  19.260  0.00  0.00    +0.000 NA
ATOM     19  C   UNL     1       4.594   4.608  18.828  0.00  0.00    +0.000 A 
ATOM     20  N   UNL     1       4.951   5.720  18.094  0.00  0.00    +0.000 N 
ATOM     21  C   UNL     1       4.104   6.747  17.540  0.00  0.00    +0.000 C 
BRANCH  19  22
ATOM     22  C   UNL     1       3.244   4.113  19.124  0.00  0.00    +0.000 A 
ATOM     23  C   UNL     1       2.641   4.435  20.352  0.00  0.00    +0.000 A 
ATOM     24  C   UNL     1       1.366   3.961  20.674  0.00  0.00    +0.000 A 
ATOM     25  C   UNL     1       0.671   3.160  19.769  0.00  0.00    +0.000 A 
ATOM     26  C   UNL     1       1.260   2.814  18.557  0.00  0.00    +0.000 A 
ATOM     27  C   UNL     1       2.545   3.272  18.246  0.00  0.00    +0.000 A 
ENDBRANCH  19  22
ENDBRANCH  15  16
ENDBRANCH   1  15
TORSDOF 5
ENDMDL
MODEL 2
REMARK VINA RESULT:      -8.2      1.479      2.192
REMARK  Name = 
REMARK  7 active torsions:
REMARK  status: ('A' for Active; 'I' for Inactive)
REMARK    1  A    between atoms: C_1  and  C_2
REMARK    2  A    between atoms: C_7  and  N_8
REMARK    3  A    between atoms: N_11  and  C_12
REMARK    4  A    between atoms: C_12  and  C_13
REMARK    5  A    between atoms: C_13  and  C_14
REMARK    6  A    between atoms: C_17  and  C_18
REMARK    7  A    between atoms: N_24  and  C_25
REMARK                            x       y       z     vdW  Elec       q    Type
REMARK                         _______ _______ _______ _____ _____    ______ ____
ROOT
ATOM      1  C   UNL     1       7.984   7.225  17.552  0.00  0.00    +0.000 C 
ENDROOT
BRANCH   1   5
ATOM      2  N   UNL     1       9.278   9.871  19.700  0.00  0.00    +0.000 N 
ATOM      3  C   UNL     1       8.630   9.344  18.612  0.00  0.00    +0.000 C 
ATOM      4  O   UNL     1       8.185  10.011  17.684  0.00  0.00    +0.000 OA
ATOM      5  N   UNL     1       8.538   7.978  18.676  0.00  0.00    +0.000 N 
ATOM      6  H   UNL     1       9.322   9.291  20.524  0.00  0.00    +0.000 HD
ATOM      7  H   UNL     1       9.282   7.529  19.188  0.00  0.00    +0.000 HD
BRANCH   2  14
ATOM      8  C   UNL     1      11.409  11.455  18.339  0.00  0.00    +0.000 C 
ATOM      9  C   UNL     1      10.845  11.804  19.718  0.00  0.00    +0.000 C 
ATOM     10  C   UNL     1      10.929  13.324  19.938  0.00  0.00    +0.000 C 
ATOM     11  C   UNL     1      10.369  13.734  21.296  0.00  0.00    +0.000 C 
ATOM     12  C   UNL     1       8.940  13.239  21.482  0.00  0.00    +0.000 C 
ATOM     13  C   UNL     1       8.829  11.732  21.255  0.00  0.00    +0.000 C 
ATOM     14  C   UNL     1       9.388  11.317  19.883  0.00  0.00    +0.000 C 
ENDBRANCH   2  14
ENDBRANCH   1   5
BRANCH   1  15
ATOM     15  C   UNL     1       6.453   7.278  17.478  0.00  0.00    +0.000 C 
BRANCH  15  16
ATOM     16  C   UNL     1       5.825   6.118  18.175  0.00  0.00    +0.000 A 
ATOM     17  N   UNL     1       6.466   5.138  18.774  0.00  0.00    +0.000 NA
ATOM     18  N   UNL     1       5.533   4.276  19.290  0.00  0.00    +0.000 NA
ATOM     19  C   UNL     1       4.323   4.709  18.979  0.00  0.00    +0.000 A 
ATOM     20  N   UNL     1       4.469   5.914  18.322  0.00  0.00    +0.000 N 
ATOM     21  C   UNL     1       3.451   6.849  17.913  0.00  0.00    +0.000 C 
BRANCH  19  22
ATOM     22  C   UNL     1       3.079   4.005  19.312  0.00  0.00    +0.000 A 
ATOM     23  C   UNL     1       2.427   3.245  18.326  0.00  0.00    +0.000 A 
ATOM     24  C   UNL     1       1.229   2.580  18.605  0.00  0.00    +0.000 A 
ATOM     25  C   UNL     1       0.666   2.662  19.877  0.00  0.00    +0.000 A 
ATOM     26  C   UNL     1       1.287   3.425  20.860  0.00  0.00    +0.000 A 
ATOM     27  C   UNL     1       2.475   4.107  20.573  0.00  0.00    +0.000 A 
ENDBRANCH  19  22
ENDBRANCH  15  16
ENDBRANCH   1  15
TORSDOF 5
ENDMDL
MODEL 3
REMARK VINA RESULT:      -8.2      1.498      1.946
REMARK  Name = 
REMARK  7 active torsions:
REMARK  status: ('A' for Active; 'I' for Inactive)
REMARK    1  A    between atoms: C_1  and  C_2
REMARK    2  A    between atoms: C_7  and  N_8
REMARK    3  A    between atoms: N_11  and  C_12
REMARK    4  A    between atoms: C_12  and  C_13
REMARK    5  A    between atoms: C_13  and  C_14
REMARK    6  A    between atoms: C_17  and  C_18
REMARK    7  A    between atoms: N_24  and  C_25
REMARK                            x       y       z     vdW  Elec       q    Type
REMARK                         _______ _______ _______ _____ _____    ______ ____
ROOT
ATOM      1  C   UNL     1       7.455   7.500  17.156  0.00  0.00    +0.000 C 
ENDROOT
BRANCH   1   5
ATOM      2  N   UNL     1       9.261   9.858  19.271  0.00  0.00    +0.000 N 
ATOM      3  C   UNL     1       8.374   9.470  18.298  0.00  0.00    +0.000 C 
ATOM      4  O   UNL     1       7.752  10.248  17.583  0.00  0.00    +0.000 OA
ATOM      5  N   UNL     1       8.264   8.107  18.213  0.00  0.00    +0.000 N 
ATOM      6  H   UNL     1       9.471   9.178  19.987  0.00  0.00    +0.000 HD
ATOM      7  H   UNL     1       9.091   7.598  18.487  0.00  0.00    +0.000 HD
BRANCH   2  14
ATOM      8  C   UNL     1      11.263  11.543  17.839  0.00  0.00    +0.000 C 
ATOM      9  C   UNL     1      10.888  11.740  19.309  0.00  0.00    +0.000 C 
ATOM     10  C   UNL     1      11.055  13.221  19.688  0.00  0.00    +0.000 C 
ATOM     11  C   UNL     1      10.683  13.481  21.144  0.00  0.00    +0.000 C 
ATOM     12  C   UNL     1       9.271  12.999  21.454  0.00  0.00    +0.000 C 
ATOM     13  C   UNL     1       9.077  11.533  21.073  0.00  0.00    +0.000 C 
ATOM     14  C   UNL     1       9.446  11.269  19.602  0.00  0.00    +0.000 C 
ENDBRANCH   2  14
ENDBRANCH   1   5
BRANCH   1  15
ATOM     15  C   UNL     1       7.499   5.968  17.158  0.00  0.00    +0.000 C 
BRANCH  15  16
ATOM     16  C   UNL     1       6.583   5.388  18.183  0.00  0.00    +0.000 A 
ATOM     17  N   UNL     1       6.905   5.082  19.421  0.00  0.00    +0.000 NA
ATOM     18  N   UNL     1       5.788   4.581  20.037  0.00  0.00    +0.000 NA
ATOM     19  C   UNL     1       4.791   4.549  19.168  0.00  0.00    +0.000 A 
ATOM     20  N   UNL     1       5.245   5.115  17.995  0.00  0.00    +0.000 N 
ATOM     21  C   UNL     1       4.502   5.444  16.804  0.00  0.00    +0.000 C 
BRANCH  19  22
ATOM     22  C   UNL     1       3.456   4.013  19.458  0.00  0.00    +0.000 A 
ATOM     23  C   UNL     1       2.490   4.845  20.050  0.00  0.00    +0.000 A 
ATOM     24  C   UNL     1       1.215   4.360  20.360  0.00  0.00    +0.000 A 
ATOM     25  C   UNL     1       0.886   3.035  20.078  0.00  0.00    +0.000 A 
ATOM     26  C   UNL     1       1.835   2.192  19.511  0.00  0.00    +0.000 A 
ATOM     27  C   UNL     1       3.117   2.674  19.221  0.00  0.00    +0.000 A 
ENDBRANCH  19  22
ENDBRANCH  15  16
ENDBRANCH   1  15
TORSDOF 5
ENDMDL
MODEL 4
REMARK VINA RESULT:      -8.2      0.389      1.029
REMARK  Name = 
REMARK  7 active torsions:
REMARK  status: ('A' for Active; 'I' for Inactive)
REMARK    1  A    between atoms: C_1  and  C_2
REMARK    2  A    between atoms: C_7  and  N_8
REMARK    3  A    between atoms: N_11  and  C_12
REMARK    4  A    between atoms: C_12  and  C_13
REMARK    5  A    between atoms: C_13  and  C_14
REMARK    6  A    between atoms: C_17  and  C_18
REMARK    7  A    between atoms: N_24  and  C_25
REMARK                            x       y       z     vdW  Elec       q    Type
REMARK                         _______ _______ _______ _____ _____    ______ ____
ROOT
ATOM      1  C   UNL     1       7.895   7.842  17.979  0.00  0.00    +0.000 C 
ENDROOT
BRANCH   1   5
ATOM      2  N   UNL     1       8.986  11.321  17.958  0.00  0.00    +0.000 N 
ATOM      3  C   UNL     1       8.875  10.044  18.448  0.00  0.00    +0.000 C 
ATOM      4  O   UNL     1       9.312   9.684  19.535  0.00  0.00    +0.000 OA
ATOM      5  N   UNL     1       8.214   9.214  17.582  0.00  0.00    +0.000 N 
ATOM      6  H   UNL     1       8.878  11.432  16.960  0.00  0.00    +0.000 HD
ATOM      7  H   UNL     1       7.539   9.672  16.988  0.00  0.00    +0.000 HD
BRANCH   2  14
ATOM      8  C   UNL     1       7.977  14.115  18.240  0.00  0.00    +0.000 C 
ATOM      9  C   UNL     1       9.461  13.757  18.133  0.00  0.00    +0.000 C 
ATOM     10  C   UNL     1      10.297  14.801  18.893  0.00  0.00    +0.000 C 
ATOM     11  C   UNL     1      11.789  14.489  18.831  0.00  0.00    +0.000 C 
ATOM     12  C   UNL     1      12.086  13.084  19.339  0.00  0.00    +0.000 C 
ATOM     13  C   UNL     1      11.257  12.030  18.608  0.00  0.00    +0.000 C 
ATOM     14  C   UNL     1       9.751  12.340  18.674  0.00  0.00    +0.000 C 
ENDBRANCH   2  14
ENDBRANCH   1   5
BRANCH   1  15
ATOM     15  C   UNL     1       6.766   7.215  17.152  0.00  0.00    +0.000 C 
BRANCH  15  16
ATOM     16  C   UNL     1       6.076   6.122  17.897  0.00  0.00    +0.000 A 
ATOM     17  N   UNL     1       6.662   5.114  18.504  0.00  0.00    +0.000 NA
ATOM     18  N   UNL     1       5.685   4.335  19.069  0.00  0.00    +0.000 NA
ATOM     19  C   UNL     1       4.501   4.847  18.779  0.00  0.00    +0.000 A 
ATOM     20  N   UNL     1       4.715   6.021  18.087  0.00  0.00    +0.000 N 
ATOM     21  C   UNL     1       3.755   7.018  17.681  0.00  0.00    +0.000 C 
BRANCH  19  22
ATOM     22  C   UNL     1       3.220   4.244  19.166  0.00  0.00    +0.000 A 
ATOM     23  C   UNL     1       2.676   3.212  18.383  0.00  0.00    +0.000 A 
ATOM     24  C   UNL     1       1.446   2.631  18.711  0.00  0.00    +0.000 A 
ATOM     25  C   UNL     1       0.744   3.073  19.831  0.00  0.00    +0.000 A 
ATOM     26  C   UNL     1       1.257   4.107  20.605  0.00  0.00    +0.000 A 
ATOM     27  C   UNL     1       2.477   4.702  20.264  0.00  0.00    +0.000 A 
ENDBRANCH  19  22
ENDBRANCH  15  16
ENDBRANCH   1  15
TORSDOF 5
ENDMDL
MODEL 5
REMARK VINA RESULT:      -8.2      5.997      7.720
REMARK  Name = 
REMARK  7 active torsions:
REMARK  status: ('A' for Active; 'I' for Inactive)
REMARK    1  A    between atoms: C_1  and  C_2
REMARK    2  A    between atoms: C_7  and  N_8
REMARK    3  A    between atoms: N_11  and  C_12
REMARK    4  A    between atoms: C_12  and  C_13
REMARK    5  A    between atoms: C_13  and  C_14
REMARK    6  A    between atoms: C_17  and  C_18
REMARK    7  A    between atoms: N_24  and  C_25
REMARK                            x       y       z     vdW  Elec       q    Type
REMARK                         _______ _______ _______ _____ _____    ______ ____
ROOT
ATOM      1  C   UNL     1       1.988   2.790  21.689  0.00  0.00    +0.000 C 
ENDROOT
BRANCH   1   5
ATOM      2  N   UNL     1       2.146   6.320  20.791  0.00  0.00    +0.000 N 
ATOM      3  C   UNL     1       1.587   5.069  20.867  0.00  0.00    +0.000 C 
ATOM      4  O   UNL     1       0.524   4.756  20.343  0.00  0.00    +0.000 OA
ATOM      5  N   UNL     1       2.359   4.202  21.594  0.00  0.00    +0.000 N 
ATOM      6  H   UNL     1       2.835   6.550  21.491  0.00  0.00    +0.000 HD
ATOM      7  H   UNL     1       3.349   4.401  21.578  0.00  0.00    +0.000 HD
BRANCH   2  14
ATOM      8  C   UNL     1       2.413   6.865  17.870  0.00  0.00    +0.000 C 
ATOM      9  C   UNL     1       2.194   7.958  18.919  0.00  0.00    +0.000 C 
ATOM     10  C   UNL     1       1.428   9.132  18.285  0.00  0.00    +0.000 C 
ATOM     11  C   UNL     1       1.170  10.250  19.289  0.00  0.00    +0.000 C 
ATOM     12  C   UNL     1       0.441   9.734  20.524  0.00  0.00    +0.000 C 
ATOM     13  C   UNL     1       1.176   8.557  21.164  0.00  0.00    +0.000 C 
ATOM     14  C   UNL     1       1.433   7.425  20.153  0.00  0.00    +0.000 C 
ENDBRANCH   2  14
ENDBRANCH   1   5
BRANCH   1  15
ATOM     15  C   UNL     1       2.381   1.971  20.454  0.00  0.00    +0.000 C 
BRANCH  15  16
ATOM     16  C   UNL     1       3.507   2.603  19.706  0.00  0.00    +0.000 A 
ATOM     17  N   UNL     1       4.696   2.881  20.192  0.00  0.00    +0.000 NA
ATOM     18  N   UNL     1       5.440   3.450  19.191  0.00  0.00    +0.000 NA
ATOM     19  C   UNL     1       4.696   3.551  18.103  0.00  0.00    +0.000 A 
ATOM     20  N   UNL     1       3.478   2.964  18.376  0.00  0.00    +0.000 N 
ATOM     21  C   UNL     1       2.385   2.689  17.476  0.00  0.00    +0.000 C 
BRANCH  19  22
ATOM     22  C   UNL     1       5.142   4.171  16.848  0.00  0.00    +0.000 A 
ATOM     23  C   UNL     1       5.781   3.383  15.876  0.00  0.00    +0.000 A 
ATOM     24  C   UNL     1       6.238   3.946  14.680  0.00  0.00    +0.000 A 
ATOM     25  C   UNL     1       6.059   5.306  14.437  0.00  0.00    +0.000 A 
ATOM     26  C   UNL     1       5.447   6.106  15.397  0.00  0.00    +0.000 A 
ATOM     27  C   UNL     1       5.010   5.544  16.602  0.00  0.00    +0.000 A 
ENDBRANCH  19  22
ENDBRANCH  15  16
ENDBRANCH   1  15
TORSDOF 5
ENDMDL
MODEL 6
REMARK VINA RESULT:      -8.1      0.815      1.371
REMARK  Name = 
REMARK  7 active torsions:
REMARK  status: ('A' for Active; 'I' for Inactive)
REMARK    1  A    between atoms: C_1  and  C_2
REMARK    2  A    between atoms: C_7  and  N_8
REMARK    3  A    between atoms: N_11  and  C_12
REMARK    4  A    between atoms: C_12  and  C_13
REMARK    5  A    between atoms: C_13  and  C_14
REMARK    6  A    between atoms: C_17  and  C_18
REMARK    7  A    between atoms: N_24  and  C_25
REMARK                            x       y       z     vdW  Elec       q    Type
REMARK                         _______ _______ _______ _____ _____    ______ ____
ROOT
ATOM      1  C   UNL     1       7.764   7.616  18.143  0.00  0.00    +0.000 C 
ENDROOT
BRANCH   1   5
ATOM      2  N   UNL     1       9.046  11.014  17.818  0.00  0.00    +0.000 N 
ATOM      3  C   UNL     1       8.845   9.803  18.430  0.00  0.00    +0.000 C 
ATOM      4  O   UNL     1       9.215   9.536  19.568  0.00  0.00    +0.000 OA
ATOM      5  N   UNL     1       8.175   8.921  17.624  0.00  0.00    +0.000 N 
ATOM      6  H   UNL     1       8.987  11.026  16.810  0.00  0.00    +0.000 HD
ATOM      7  H   UNL     1       7.553   9.349  16.955  0.00  0.00    +0.000 HD
BRANCH   2  14
ATOM      8  C   UNL     1       8.043  13.816  18.025  0.00  0.00    +0.000 C 
ATOM      9  C   UNL     1       9.522  13.456  17.875  0.00  0.00    +0.000 C 
ATOM     10  C   UNL     1      10.384  14.530  18.558  0.00  0.00    +0.000 C 
ATOM     11  C   UNL     1      11.873  14.218  18.451  0.00  0.00    +0.000 C 
ATOM     12  C   UNL     1      12.194  12.834  19.004  0.00  0.00    +0.000 C 
ATOM     13  C   UNL     1      11.340  11.751  18.349  0.00  0.00    +0.000 C 
ATOM     14  C   UNL     1       9.837  12.061  18.462  0.00  0.00    +0.000 C 
ENDBRANCH   2  14
ENDBRANCH   1   5
BRANCH   1  15
ATOM     15  C   UNL     1       7.065   6.737  17.099  0.00  0.00    +0.000 C 
BRANCH  15  16
ATOM     16  C   UNL     1       5.619   6.546  17.416  0.00  0.00    +0.000 A 
ATOM     17  N   UNL     1       4.660   7.418  17.195  0.00  0.00    +0.000 NA
ATOM     18  N   UNL     1       3.480   6.865  17.622  0.00  0.00    +0.000 NA
ATOM     19  C   UNL     1       3.722   5.670  18.135  0.00  0.00    +0.000 A 
ATOM     20  N   UNL     1       5.066   5.408  17.963  0.00  0.00    +0.000 N 
ATOM     21  C   UNL     1       5.788   4.187  18.216  0.00  0.00    +0.000 C 
BRANCH  19  22
ATOM     22  C   UNL     1       2.703   4.809  18.748  0.00  0.00    +0.000 A 
ATOM     23  C   UNL     1       2.409   4.950  20.115  0.00  0.00    +0.000 A 
ATOM     24  C   UNL     1       1.460   4.131  20.735  0.00  0.00    +0.000 A 
ATOM     25  C   UNL     1       0.787   3.160  19.995  0.00  0.00    +0.000 A 
ATOM     26  C   UNL     1       1.080   2.993  18.646  0.00  0.00    +0.000 A 
ATOM     27  C   UNL     1       2.045   3.799  18.032  0.00  0.00    +0.000 A 
ENDBRANCH  19  22
ENDBRANCH  15  16
ENDBRANCH   1  15
TORSDOF 5
ENDMDL
MODEL 7
REMARK VINA RESULT:      -8.1      5.002      9.102
REMARK  Name = 
REMARK  7 active torsions:
REMARK  status: ('A' for Active; 'I' for Inactive)
REMARK    1  A    between atoms: C_1  and  C_2
REMARK    2  A    between atoms: C_7  and  N_8
REMARK    3  A    between atoms: N_11  and  C_12
REMARK    4  A    between atoms: C_12  and  C_13
REMARK    5  A    between atoms: C_13  and  C_14
REMARK    6  A    between atoms: C_17  and  C_18
REMARK    7  A    between atoms: N_24  and  C_25
REMARK                            x       y       z     vdW  Elec       q    Type
REMARK                         _______ _______ _______ _____ _____    ______ ____
ROOT
ATOM      1  C   UNL     1       7.034   5.555  18.525  0.00  0.00    +0.000 C 
ENDROOT
BRANCH   1   5
ATOM      2  N   UNL     1       4.829   2.808  19.467  0.00  0.00    +0.000 N 
ATOM      3  C   UNL     1       5.170   4.114  19.217  0.00  0.00    +0.000 C 
ATOM      4  O   UNL     1       4.424   5.069  19.403  0.00  0.00    +0.000 OA
ATOM      5  N   UNL     1       6.449   4.232  18.739  0.00  0.00    +0.000 N 
ATOM      6  H   UNL     1       5.378   2.102  19.001  0.00  0.00    +0.000 HD
ATOM      7  H   UNL     1       7.083   3.509  19.046  0.00  0.00    +0.000 HD
BRANCH   2  14
ATOM      8  C   UNL     1       2.749   2.034  17.473  0.00  0.00    +0.000 C 
ATOM      9  C   UNL     1       2.438   2.772  18.778  0.00  0.00    +0.000 C 
ATOM     10  C   UNL     1       1.022   2.403  19.251  0.00  0.00    +0.000 C 
ATOM     11  C   UNL     1       0.660   3.101  20.558  0.00  0.00    +0.000 C 
ATOM     12  C   UNL     1       1.687   2.814  21.647  0.00  0.00    +0.000 C 
ATOM     13  C   UNL     1       3.104   3.158  21.195  0.00  0.00    +0.000 C 
ATOM     14  C   UNL     1       3.473   2.450  19.879  0.00  0.00    +0.000 C 
ENDBRANCH   2  14
ENDBRANCH   1   5
BRANCH   1  15
ATOM     15  C   UNL     1       6.388   6.328  17.369  0.00  0.00    +0.000 C 
BRANCH  15  16
ATOM     16  C   UNL     1       6.680   5.697  16.049  0.00  0.00    +0.000 A 
ATOM     17  N   UNL     1       7.802   5.806  15.373  0.00  0.00    +0.000 NA
ATOM     18  N   UNL     1       7.673   5.080  14.218  0.00  0.00    +0.000 NA
ATOM     19  C   UNL     1       6.460   4.554  14.170  0.00  0.00    +0.000 A 
ATOM     20  N   UNL     1       5.822   4.875  15.350  0.00  0.00    +0.000 N 
ATOM     21  C   UNL     1       4.547   4.415  15.842  0.00  0.00    +0.000 C 
BRANCH  19  22
ATOM     22  C   UNL     1       5.943   3.763  13.047  0.00  0.00    +0.000 A 
ATOM     23  C   UNL     1       6.771   2.806  12.434  0.00  0.00    +0.000 A 
ATOM     24  C   UNL     1       6.317   2.052  11.348  0.00  0.00    +0.000 A 
ATOM     25  C   UNL     1       5.025   2.241  10.859  0.00  0.00    +0.000 A 
ATOM     26  C   UNL     1       4.199   3.197  11.440  0.00  0.00    +0.000 A 
ATOM     27  C   UNL     1       4.663   3.966  12.513  0.00  0.00    +0.000 A 
ENDBRANCH  19  22
ENDBRANCH  15  16
ENDBRANCH   1  15
TORSDOF 5
ENDMDL
MODEL 8
REMARK VINA RESULT:      -8.0      1.758      2.650
REMARK  Name = 
REMARK  7 active torsions:
REMARK  status: ('A' for Active; 'I' for Inactive)
REMARK    1  A    between atoms: C_1  and  C_2
REMARK    2  A    between atoms: C_7  and  N_8
REMARK    3  A    between atoms: N_11  and  C_12
REMARK    4  A    between atoms: C_12  and  C_13
REMARK    5  A    between atoms: C_13  and  C_14
REMARK    6  A    between atoms: C_17  and  C_18
REMARK    7  A    between atoms: N_24  and  C_25
REMARK                            x       y       z     vdW  Elec       q    Type
REMARK                         _______ _______ _______ _____ _____    ______ ____
ROOT
ATOM      1  C   UNL     1       8.132   8.792  17.697  0.00  0.00    +0.000 C 
ENDROOT
BRANCH   1   5
ATOM      2  N   UNL     1       9.725  11.425  19.653  0.00  0.00    +0.000 N 
ATOM      3  C   UNL     1       8.943  10.904  18.653  0.00  0.00    +0.000 C 
ATOM      4  O   UNL     1       8.411  11.574  17.775  0.00  0.00    +0.000 OA
ATOM      5  N   UNL     1       8.829   9.542  18.742  0.00  0.00    +0.000 N 
ATOM      6  H   UNL     1       9.850  10.850  20.473  0.00  0.00    +0.000 HD
ATOM      7  H   UNL     1       9.616   9.078  19.171  0.00  0.00    +0.000 HD
BRANCH   2  14
ATOM      8  C   UNL     1      12.142  12.836  18.622  0.00  0.00    +0.000 C 
ATOM      9  C   UNL     1      11.378  13.270  19.875  0.00  0.00    +0.000 C 
ATOM     10  C   UNL     1      11.515  14.792  20.057  0.00  0.00    +0.000 C 
ATOM     11  C   UNL     1      10.761  15.286  21.288  0.00  0.00    +0.000 C 
ATOM     12  C   UNL     1       9.294  14.875  21.246  0.00  0.00    +0.000 C 
ATOM     13  C   UNL     1       9.133  13.369  21.051  0.00  0.00    +0.000 C 
ATOM     14  C   UNL     1       9.888  12.869  19.807  0.00  0.00    +0.000 C 
ENDBRANCH   2  14
ENDBRANCH   1   5
BRANCH   1  15
ATOM     15  C   UNL     1       8.021   7.292  17.993  0.00  0.00    +0.000 C 
BRANCH  15  16
ATOM     16  C   UNL     1       6.736   6.722  17.493  0.00  0.00    +0.000 A 
ATOM     17  N   UNL     1       6.152   7.020  16.354  0.00  0.00    +0.000 NA
ATOM     18  N   UNL     1       4.998   6.285  16.266  0.00  0.00    +0.000 NA
ATOM     19  C   UNL     1       4.858   5.563  17.365  0.00  0.00    +0.000 A 
ATOM     20  N   UNL     1       5.980   5.769  18.142  0.00  0.00    +0.000 N 
ATOM     21  C   UNL     1       6.372   5.101  19.358  0.00  0.00    +0.000 C 
BRANCH  19  22
ATOM     22  C   UNL     1       3.706   4.700  17.649  0.00  0.00    +0.000 A 
ATOM     23  C   UNL     1       3.811   3.313  17.443  0.00  0.00    +0.000 A 
ATOM     24  C   UNL     1       2.726   2.465  17.682  0.00  0.00    +0.000 A 
ATOM     25  C   UNL     1       1.518   2.991  18.136  0.00  0.00    +0.000 A 
ATOM     26  C   UNL     1       1.388   4.363  18.327  0.00  0.00    +0.000 A 
ATOM     27  C   UNL     1       2.469   5.212  18.066  0.00  0.00    +0.000 A 
ENDBRANCH  19  22
ENDBRANCH  15  16
ENDBRANCH   1  15
TORSDOF 5
ENDMDL
MODEL 9
REMARK VINA RESULT:      -7.9      1.379      1.812
REMARK  Name = 
REMARK  7 active torsions:
REMARK  status: ('A' for Active; 'I' for Inactive)
REMARK    1  A    between atoms: C_1  and  C_2
REMARK    2  A    between atoms: C_7  and  N_8
REMARK    3  A    between atoms: N_11  and  C_12
REMARK    4  A    between atoms: C_12  and  C_13
REMARK    5  A    between atoms: C_13  and  C_14
REMARK    6  A    between atoms: C_17  and  C_18
REMARK    7  A    between atoms: N_24  and  C_25
REMARK                            x       y       z     vdW  Elec       q    Type
REMARK                         _______ _______ _______ _____ _____    ______ ____
ROOT
ATOM      1  C   UNL     1       7.452   8.312  17.574  0.00  0.00    +0.000 C 
ENDROOT
BRANCH   1   5
ATOM      2  N   UNL     1       9.856  10.136  19.620  0.00  0.00    +0.000 N 
ATOM      3  C   UNL     1       8.866   9.986  18.681  0.00  0.00    +0.000 C 
ATOM      4  O   UNL     1       8.429  10.899  17.990  0.00  0.00    +0.000 OA
ATOM      5  N   UNL     1       8.423   8.693  18.600  0.00  0.00    +0.000 N 
ATOM      6  H   UNL     1       9.919   9.419  20.327  0.00  0.00    +0.000 HD
ATOM      7  H   UNL     1       9.109   7.994  18.843  0.00  0.00    +0.000 HD
BRANCH   2  14
ATOM      8  C   UNL     1       8.718  11.778  21.836  0.00  0.00    +0.000 C 
ATOM      9  C   UNL     1       9.314  12.376  20.559  0.00  0.00    +0.000 C 
ATOM     10  C   UNL     1       9.905  13.762  20.868  0.00  0.00    +0.000 C 
ATOM     11  C   UNL     1      10.526  14.403  19.631  0.00  0.00    +0.000 C 
ATOM     12  C   UNL     1      11.575  13.496  18.999  0.00  0.00    +0.000 C 
ATOM     13  C   UNL     1      11.015  12.108  18.696  0.00  0.00    +0.000 C 
ATOM     14  C   UNL     1      10.393  11.456  19.944  0.00  0.00    +0.000 C 
ENDBRANCH   2  14
ENDBRANCH   1   5
BRANCH   1  15
ATOM     15  C   UNL     1       7.483   6.818  17.230  0.00  0.00    +0.000 C 
BRANCH  15  16
ATOM     16  C   UNL     1       6.599   6.023  18.131  0.00  0.00    +0.000 A 
ATOM     17  N   UNL     1       6.981   5.366  19.203  0.00  0.00    +0.000 NA
ATOM     18  N   UNL     1       5.875   4.771  19.752  0.00  0.00    +0.000 NA
ATOM     19  C   UNL     1       4.821   5.035  18.997  0.00  0.00    +0.000 A 
ATOM     20  N   UNL     1       5.234   5.883  17.990  0.00  0.00    +0.000 N 
ATOM     21  C   UNL     1       4.438   6.571  17.005  0.00  0.00    +0.000 C 
BRANCH  19  22
ATOM     22  C   UNL     1       3.473   4.510  19.242  0.00  0.00    +0.000 A 
ATOM     23  C   UNL     1       3.008   3.417  18.491  0.00  0.00    +0.000 A 
ATOM     24  C   UNL     1       1.720   2.906  18.685  0.00  0.00    +0.000 A 
ATOM     25  C   UNL     1       0.879   3.480  19.636  0.00  0.00    +0.000 A 
ATOM     26  C   UNL     1       1.315   4.575  20.374  0.00  0.00    +0.000 A 
ATOM     27  C   UNL     1       2.595   5.098  20.164  0.00  0.00    +0.000 A 
ENDBRANCH  19  22
ENDBRANCH  15  16
ENDBRANCH   1  15
TORSDOF 5
ENDMDL
