MODEL 1
REMARK VINA RESULT:      -6.0      0.000      0.000
REMARK  Name = 
REMARK  6 active torsions:
REMARK  status: ('A' for Active; 'I' for Inactive)
REMARK    1  A    between atoms: C_1  and  O_2
REMARK    2  A    between atoms: O_2  and  C_3
REMARK    3  A    between atoms: C_3  and  C_5
REMARK    4  A    between atoms: C_5  and  C_6
REMARK    5  A    between atoms: C_6  and  N_7
REMARK    6  A    between atoms: C_6  and  C_8
REMARK                            x       y       z     vdW  Elec       q    Type
REMARK                         _______ _______ _______ _____ _____    ______ ____
ROOT
ATOM      1  C   UNL     1       5.423   4.803  17.845  0.00  0.00    +0.000 C 
ENDROOT
BRANCH   1   2
ATOM      2  C   UNL     1       4.246   3.937  18.270  0.00  0.00    +0.000 A 
ATOM      3  C   UNL     1       3.455   3.330  17.278  0.00  0.00    +0.000 A 
ATOM      4  C   UNL     1       2.365   2.525  17.617  0.00  0.00    +0.000 A 
ATOM      5  C   UNL     1       2.042   2.315  18.955  0.00  0.00    +0.000 A 
ATOM      6  C   UNL     1       2.804   2.924  19.947  0.00  0.00    +0.000 A 
ATOM      7 CL   UNL     1       2.408   2.671  21.604  0.00  0.00    +0.000 Cl
ATOM      8  C   UNL     1       3.892   3.739  19.615  0.00  0.00    +0.000 A 
ENDBRANCH   1   2
BRANCH   1   9
ATOM      9  N   UNL     1       6.679   4.150  18.247  0.00  0.00    +0.000 NA
ATOM     10  H   UNL     1       7.446   4.509  17.680  0.00  0.00    +0.000 HD
ATOM     11  H   UNL     1       6.616   3.156  18.026  0.00  0.00    +0.000 HD
ENDBRANCH   1   9
BRANCH   1  12
ATOM     12  C   UNL     1       5.493   5.146  16.351  0.00  0.00    +0.000 C 
BRANCH  12  13
ATOM     13  C   UNL     1       6.887   5.547  15.938  0.00  0.00    +0.000 C 
ATOM     14  O   UNL     1       7.524   6.482  16.403  0.00  0.00    +0.000 OA
BRANCH  13  16
ATOM     15  C   UNL     1       6.332   3.935  14.326  0.00  0.00    +0.000 C 
ATOM     16  O   UNL     1       7.353   4.674  14.998  0.00  0.00    +0.000 OA
ENDBRANCH  13  16
ENDBRANCH  12  13
ENDBRANCH   1  12
TORSDOF 5
ENDMDL
MODEL 2
REMARK VINA RESULT:      -5.9      1.341      1.912
REMARK  Name = 
REMARK  6 active torsions:
REMARK  status: ('A' for Active; 'I' for Inactive)
REMARK    1  A    between atoms: C_1  and  O_2
REMARK    2  A    between atoms: O_2  and  C_3
REMARK    3  A    between atoms: C_3  and  C_5
REMARK    4  A    between atoms: C_5  and  C_6
REMARK    5  A    between atoms: C_6  and  N_7
REMARK    6  A    between atoms: C_6  and  C_8
REMARK                            x       y       z     vdW  Elec       q    Type
REMARK                         _______ _______ _______ _____ _____    ______ ____
ROOT
ATOM      1  C   UNL     1       5.202   5.209  18.721  0.00  0.00    +0.000 C 
ENDROOT
BRANCH   1   2
ATOM      2  C   UNL     1       3.795   4.639  18.823  0.00  0.00    +0.000 A 
ATOM      3  C   UNL     1       2.940   4.736  17.710  0.00  0.00    +0.000 A 
ATOM      4  C   UNL     1       1.640   4.227  17.753  0.00  0.00    +0.000 A 
ATOM      5  C   UNL     1       1.168   3.615  18.911  0.00  0.00    +0.000 A 
ATOM      6  C   UNL     1       1.997   3.528  20.026  0.00  0.00    +0.000 A 
ATOM      7 CL   UNL     1       1.418   2.774  21.462  0.00  0.00    +0.000 Cl
ATOM      8  C   UNL     1       3.297   4.043  19.993  0.00  0.00    +0.000 A 
ENDBRANCH   1   2
BRANCH   1   9
ATOM      9  N   UNL     1       6.165   4.106  18.566  0.00  0.00    +0.000 NA
ATOM     10  H   UNL     1       5.907   3.340  19.186  0.00  0.00    +0.000 HD
ATOM     11  H   UNL     1       7.080   4.423  18.887  0.00  0.00    +0.000 HD
ENDBRANCH   1   9
BRANCH   1  12
ATOM     12  C   UNL     1       5.428   6.231  17.599  0.00  0.00    +0.000 C 
BRANCH  12  13
ATOM     13  C   UNL     1       6.333   5.684  16.523  0.00  0.00    +0.000 C 
ATOM     14  O   UNL     1       6.047   4.786  15.745  0.00  0.00    +0.000 OA
BRANCH  13  16
ATOM     15  C   UNL     1       7.581   7.415  17.498  0.00  0.00    +0.000 C 
ATOM     16  O   UNL     1       7.507   6.381  16.516  0.00  0.00    +0.000 OA
ENDBRANCH  13  16
ENDBRANCH  12  13
ENDBRANCH   1  12
TORSDOF 5
ENDMDL
MODEL 3
REMARK VINA RESULT:      -5.8      1.244      1.250
REMARK  Name = 
REMARK  6 active torsions:
REMARK  status: ('A' for Active; 'I' for Inactive)
REMARK    1  A    between atoms: C_1  and  O_2
REMARK    2  A    between atoms: O_2  and  C_3
REMARK    3  A    between atoms: C_3  and  C_5
REMARK    4  A    between atoms: C_5  and  C_6
REMARK    5  A    between atoms: C_6  and  N_7
REMARK    6  A    between atoms: C_6  and  C_8
REMARK                            x       y       z     vdW  Elec       q    Type
REMARK                         _______ _______ _______ _____ _____    ______ ____
ROOT
ATOM      1  C   UNL     1       5.412   5.302  18.392  0.00  0.00    +0.000 C 
ENDROOT
BRANCH   1   2
ATOM      2  C   UNL     1       4.004   4.758  18.590  0.00  0.00    +0.000 A 
ATOM      3  C   UNL     1       3.166   4.616  17.469  0.00  0.00    +0.000 A 
ATOM      4  C   UNL     1       1.866   4.121  17.598  0.00  0.00    +0.000 A 
ATOM      5  C   UNL     1       1.377   3.763  18.852  0.00  0.00    +0.000 A 
ATOM      6  C   UNL     1       2.188   3.917  19.973  0.00  0.00    +0.000 A 
ATOM      7 CL   UNL     1       1.588   3.479  21.526  0.00  0.00    +0.000 Cl
ATOM      8  C   UNL     1       3.488   4.419  19.852  0.00  0.00    +0.000 A 
ENDBRANCH   1   2
BRANCH   1   9
ATOM      9  N   UNL     1       6.383   4.360  18.972  0.00  0.00    +0.000 NA
ATOM     10  H   UNL     1       5.902   3.721  19.604  0.00  0.00    +0.000 HD
ATOM     11  H   UNL     1       7.037   4.883  19.555  0.00  0.00    +0.000 HD
ENDBRANCH   1   9
BRANCH   1  12
ATOM     12  C   UNL     1       5.812   5.604  16.942  0.00  0.00    +0.000 C 
BRANCH  12  13
ATOM     13  C   UNL     1       6.753   4.559  16.397  0.00  0.00    +0.000 C 
ATOM     14  O   UNL     1       7.956   4.508  16.609  0.00  0.00    +0.000 OA
BRANCH  13  16
ATOM     15  C   UNL     1       5.966   3.947  14.273  0.00  0.00    +0.000 C 
ATOM     16  O   UNL     1       6.048   3.646  15.667  0.00  0.00    +0.000 OA
ENDBRANCH  13  16
ENDBRANCH  12  13
ENDBRANCH   1  12
TORSDOF 5
ENDMDL
MODEL 4
REMARK VINA RESULT:      -5.7      1.694      2.086
REMARK  Name = 
REMARK  6 active torsions:
REMARK  status: ('A' for Active; 'I' for Inactive)
REMARK    1  A    between atoms: C_1  and  O_2
REMARK    2  A    between atoms: O_2  and  C_3
REMARK    3  A    between atoms: C_3  and  C_5
REMARK    4  A    between atoms: C_5  and  C_6
REMARK    5  A    between atoms: C_6  and  N_7
REMARK    6  A    between atoms: C_6  and  C_8
REMARK                            x       y       z     vdW  Elec       q    Type
REMARK                         _______ _______ _______ _____ _____    ______ ____
ROOT
ATOM      1  C   UNL     1       5.025   4.958  18.340  0.00  0.00    +0.000 C 
ENDROOT
BRANCH   1   2
ATOM      2  C   UNL     1       3.656   4.698  18.952  0.00  0.00    +0.000 A 
ATOM      3  C   UNL     1       3.189   5.556  19.963  0.00  0.00    +0.000 A 
ATOM      4  C   UNL     1       1.940   5.361  20.556  0.00  0.00    +0.000 A 
ATOM      5  C   UNL     1       1.134   4.300  20.151  0.00  0.00    +0.000 A 
ATOM      6  C   UNL     1       1.591   3.430  19.165  0.00  0.00    +0.000 A 
ATOM      7 CL   UNL     1       0.601   2.114  18.662  0.00  0.00    +0.000 Cl
ATOM      8  C   UNL     1       2.845   3.615  18.573  0.00  0.00    +0.000 A 
ENDBRANCH   1   2
BRANCH   1   9
ATOM      9  N   UNL     1       5.903   3.806  18.602  0.00  0.00    +0.000 NA
ATOM     10  H   UNL     1       5.928   3.203  17.780  0.00  0.00    +0.000 HD
ATOM     11  H   UNL     1       5.490   3.242  19.344  0.00  0.00    +0.000 HD
ENDBRANCH   1   9
BRANCH   1  12
ATOM     12  C   UNL     1       5.036   5.264  16.836  0.00  0.00    +0.000 C 
BRANCH  12  13
ATOM     13  C   UNL     1       6.296   4.761  16.176  0.00  0.00    +0.000 C 
ATOM     14  O   UNL     1       7.417   5.222  16.343  0.00  0.00    +0.000 OA
BRANCH  13  16
ATOM     15  C   UNL     1       6.207   3.887  14.001  0.00  0.00    +0.000 C 
ATOM     16  O   UNL     1       6.004   3.678  15.400  0.00  0.00    +0.000 OA
ENDBRANCH  13  16
ENDBRANCH  12  13
ENDBRANCH   1  12
TORSDOF 5
ENDMDL
MODEL 5
REMARK VINA RESULT:      -5.7      1.358      1.847
REMARK  Name = 
REMARK  6 active torsions:
REMARK  status: ('A' for Active; 'I' for Inactive)
REMARK    1  A    between atoms: C_1  and  O_2
REMARK    2  A    between atoms: O_2  and  C_3
REMARK    3  A    between atoms: C_3  and  C_5
REMARK    4  A    between atoms: C_5  and  C_6
REMARK    5  A    between atoms: C_6  and  N_7
REMARK    6  A    between atoms: C_6  and  C_8
REMARK                            x       y       z     vdW  Elec       q    Type
REMARK                         _______ _______ _______ _____ _____    ______ ____
ROOT
ATOM      1  C   UNL     1       4.956   5.479  18.700  0.00  0.00    +0.000 C 
ENDROOT
BRANCH   1   2
ATOM      2  C   UNL     1       3.952   4.339  18.800  0.00  0.00    +0.000 A 
ATOM      3  C   UNL     1       3.730   3.529  17.672  0.00  0.00    +0.000 A 
ATOM      4  C   UNL     1       2.820   2.470  17.712  0.00  0.00    +0.000 A 
ATOM      5  C   UNL     1       2.111   2.204  18.881  0.00  0.00    +0.000 A 
ATOM      6  C   UNL     1       2.307   3.009  19.999  0.00  0.00    +0.000 A 
ATOM      7 CL   UNL     1       1.431   2.687  21.447  0.00  0.00    +0.000 Cl
ATOM      8  C   UNL     1       3.210   4.076  19.963  0.00  0.00    +0.000 A 
ENDBRANCH   1   2
BRANCH   1   9
ATOM      9  N   UNL     1       6.125   5.174  19.542  0.00  0.00    +0.000 NA
ATOM     10  H   UNL     1       6.965   5.556  19.110  0.00  0.00    +0.000 HD
ATOM     11  H   UNL     1       6.260   4.163  19.559  0.00  0.00    +0.000 HD
ENDBRANCH   1   9
BRANCH   1  12
ATOM     12  C   UNL     1       5.436   5.823  17.284  0.00  0.00    +0.000 C 
BRANCH  12  13
ATOM     13  C   UNL     1       6.895   5.490  17.096  0.00  0.00    +0.000 C 
ATOM     14  O   UNL     1       7.403   4.394  17.284  0.00  0.00    +0.000 OA
BRANCH  13  16
ATOM     15  C   UNL     1       7.636   7.665  17.571  0.00  0.00    +0.000 C 
ATOM     16  O   UNL     1       7.559   6.590  16.634  0.00  0.00    +0.000 OA
ENDBRANCH  13  16
ENDBRANCH  12  13
ENDBRANCH   1  12
TORSDOF 5
ENDMDL
MODEL 6
REMARK VINA RESULT:      -5.7      2.028      2.356
REMARK  Name = 
REMARK  6 active torsions:
REMARK  status: ('A' for Active; 'I' for Inactive)
REMARK    1  A    between atoms: C_1  and  O_2
REMARK    2  A    between atoms: O_2  and  C_3
REMARK    3  A    between atoms: C_3  and  C_5
REMARK    4  A    between atoms: C_5  and  C_6
REMARK    5  A    between atoms: C_6  and  N_7
REMARK    6  A    between atoms: C_6  and  C_8
REMARK                            x       y       z     vdW  Elec       q    Type
REMARK                         _______ _______ _______ _____ _____    ______ ____
ROOT
ATOM      1  C   UNL     1       5.280   4.067  18.682  0.00  0.00    +0.000 C 
ENDROOT
BRANCH   1   2
ATOM      2  C   UNL     1       3.795   3.805  18.885  0.00  0.00    +0.000 A 
ATOM      3  C   UNL     1       2.911   4.036  17.816  0.00  0.00    +0.000 A 
ATOM      4  C   UNL     1       1.539   3.810  17.952  0.00  0.00    +0.000 A 
ATOM      5  C   UNL     1       1.024   3.353  19.163  0.00  0.00    +0.000 A 
ATOM      6  C   UNL     1       1.884   3.138  20.236  0.00  0.00    +0.000 A 
ATOM      7 CL   UNL     1       1.253   2.577  21.736  0.00  0.00    +0.000 Cl
ATOM      8  C   UNL     1       3.258   3.371  20.109  0.00  0.00    +0.000 A 
ENDBRANCH   1   2
BRANCH   1   9
ATOM      9  N   UNL     1       5.614   3.894  17.258  0.00  0.00    +0.000 NA
ATOM     10  H   UNL     1       5.379   2.946  16.966  0.00  0.00    +0.000 HD
ATOM     11  H   UNL     1       6.625   3.973  17.148  0.00  0.00    +0.000 HD
ENDBRANCH   1   9
BRANCH   1  12
ATOM     12  C   UNL     1       5.787   5.436  19.152  0.00  0.00    +0.000 C 
BRANCH  12  13
ATOM     13  C   UNL     1       7.263   5.602  18.889  0.00  0.00    +0.000 C 
ATOM     14  O   UNL     1       8.162   5.250  19.640  0.00  0.00    +0.000 OA
BRANCH  13  16
ATOM     15  C   UNL     1       7.665   7.575  17.684  0.00  0.00    +0.000 C 
ATOM     16  O   UNL     1       7.447   6.163  17.659  0.00  0.00    +0.000 OA
ENDBRANCH  13  16
ENDBRANCH  12  13
ENDBRANCH   1  12
TORSDOF 5
ENDMDL
MODEL 7
REMARK VINA RESULT:      -5.6      2.073      2.834
REMARK  Name = 
REMARK  6 active torsions:
REMARK  status: ('A' for Active; 'I' for Inactive)
REMARK    1  A    between atoms: C_1  and  O_2
REMARK    2  A    between atoms: O_2  and  C_3
REMARK    3  A    between atoms: C_3  and  C_5
REMARK    4  A    between atoms: C_5  and  C_6
REMARK    5  A    between atoms: C_6  and  N_7
REMARK    6  A    between atoms: C_6  and  C_8
REMARK                            x       y       z     vdW  Elec       q    Type
REMARK                         _______ _______ _______ _____ _____    ______ ____
ROOT
ATOM      1  C   UNL     1       4.518   5.414  17.061  0.00  0.00    +0.000 C 
ENDROOT
BRANCH   1   2
ATOM      2  C   UNL     1       3.442   5.067  18.079  0.00  0.00    +0.000 A 
ATOM      3  C   UNL     1       3.287   5.887  19.212  0.00  0.00    +0.000 A 
ATOM      4  C   UNL     1       2.314   5.611  20.175  0.00  0.00    +0.000 A 
ATOM      5  C   UNL     1       1.479   4.506  20.026  0.00  0.00    +0.000 A 
ATOM      6  C   UNL     1       1.633   3.675  18.921  0.00  0.00    +0.000 A 
ATOM      7 CL   UNL     1       0.606   2.305  18.733  0.00  0.00    +0.000 Cl
ATOM      8  C   UNL     1       2.611   3.940  17.957  0.00  0.00    +0.000 A 
ENDBRANCH   1   2
BRANCH   1   9
ATOM      9  N   UNL     1       4.624   6.878  16.945  0.00  0.00    +0.000 NA
ATOM     10  H   UNL     1       4.887   7.126  15.992  0.00  0.00    +0.000 HD
ATOM     11  H   UNL     1       5.394   7.197  17.534  0.00  0.00    +0.000 HD
ENDBRANCH   1   9
BRANCH   1  12
ATOM     12  C   UNL     1       5.910   4.832  17.336  0.00  0.00    +0.000 C 
BRANCH  12  13
ATOM     13  C   UNL     1       7.003   5.775  16.900  0.00  0.00    +0.000 C 
ATOM     14  O   UNL     1       7.427   5.891  15.759  0.00  0.00    +0.000 OA
BRANCH  13  16
ATOM     15  C   UNL     1       7.685   5.758  19.145  0.00  0.00    +0.000 C 
ATOM     16  O   UNL     1       7.416   6.520  17.967  0.00  0.00    +0.000 OA
ENDBRANCH  13  16
ENDBRANCH  12  13
ENDBRANCH   1  12
TORSDOF 5
ENDMDL
MODEL 8
REMARK VINA RESULT:      -5.6      4.103      5.712
REMARK  Name = 
REMARK  6 active torsions:
REMARK  status: ('A' for Active; 'I' for Inactive)
REMARK    1  A    between atoms: C_1  and  O_2
REMARK    2  A    between atoms: O_2  and  C_3
REMARK    3  A    between atoms: C_3  and  C_5
REMARK    4  A    between atoms: C_5  and  C_6
REMARK    5  A    between atoms: C_6  and  N_7
REMARK    6  A    between atoms: C_6  and  C_8
REMARK                            x       y       z     vdW  Elec       q    Type
REMARK                         _______ _______ _______ _____ _____    ______ ____
ROOT
ATOM      1  C   UNL     1       3.910   3.569  19.032  0.00  0.00    +0.000 C 
ENDROOT
BRANCH   1   2
ATOM      2  C   UNL     1       4.391   4.425  17.870  0.00  0.00    +0.000 A 
ATOM      3  C   UNL     1       4.266   5.823  17.958  0.00  0.00    +0.000 A 
ATOM      4  C   UNL     1       4.694   6.653  16.919  0.00  0.00    +0.000 A 
ATOM      5  C   UNL     1       5.252   6.100  15.769  0.00  0.00    +0.000 A 
ATOM      6  C   UNL     1       5.365   4.717  15.660  0.00  0.00    +0.000 A 
ATOM      7 CL   UNL     1       6.052   4.026  14.240  0.00  0.00    +0.000 Cl
ATOM      8  C   UNL     1       4.931   3.879  16.693  0.00  0.00    +0.000 A 
ENDBRANCH   1   2
BRANCH   1   9
ATOM      9  N   UNL     1       5.052   2.837  19.605  0.00  0.00    +0.000 NA
ATOM     10  H   UNL     1       5.222   3.162  20.556  0.00  0.00    +0.000 HD
ATOM     11  H   UNL     1       5.891   3.078  19.078  0.00  0.00    +0.000 HD
ENDBRANCH   1   9
BRANCH   1  12
ATOM     12  C   UNL     1       3.181   4.318  20.156  0.00  0.00    +0.000 C 
BRANCH  12  13
ATOM     13  C   UNL     1       2.365   3.380  21.010  0.00  0.00    +0.000 C 
ATOM     14  O   UNL     1       2.808   2.646  21.881  0.00  0.00    +0.000 OA
BRANCH  13  16
ATOM     15  C   UNL     1       0.642   2.792  19.531  0.00  0.00    +0.000 C 
ATOM     16  O   UNL     1       1.043   3.512  20.697  0.00  0.00    +0.000 OA
ENDBRANCH  13  16
ENDBRANCH  12  13
ENDBRANCH   1  12
TORSDOF 5
ENDMDL
MODEL 9
REMARK VINA RESULT:      -5.6      2.042      2.606
REMARK  Name = 
REMARK  6 active torsions:
REMARK  status: ('A' for Active; 'I' for Inactive)
REMARK    1  A    between atoms: C_1  and  O_2
REMARK    2  A    between atoms: O_2  and  C_3
REMARK    3  A    between atoms: C_3  and  C_5
REMARK    4  A    between atoms: C_5  and  C_6
REMARK    5  A    between atoms: C_6  and  N_7
REMARK    6  A    between atoms: C_6  and  C_8
REMARK                            x       y       z     vdW  Elec       q    Type
REMARK                         _______ _______ _______ _____ _____    ______ ____
ROOT
ATOM      1  C   UNL     1       5.806   5.204  18.493  0.00  0.00    +0.000 C 
ENDROOT
BRANCH   1   2
ATOM      2  C   UNL     1       4.383   4.675  18.397  0.00  0.00    +0.000 A 
ATOM      3  C   UNL     1       3.970   4.049  17.207  0.00  0.00    +0.000 A 
ATOM      4  C   UNL     1       2.675   3.544  17.068  0.00  0.00    +0.000 A 
ATOM      5  C   UNL     1       1.765   3.661  18.117  0.00  0.00    +0.000 A 
ATOM      6  C   UNL     1       2.154   4.295  19.293  0.00  0.00    +0.000 A 
ATOM      7 CL   UNL     1       1.033   4.445  20.592  0.00  0.00    +0.000 Cl
ATOM      8  C   UNL     1       3.447   4.809  19.436  0.00  0.00    +0.000 A 
ENDBRANCH   1   2
BRANCH   1   9
ATOM      9  N   UNL     1       6.754   4.096  18.289  0.00  0.00    +0.000 NA
ATOM     10  H   UNL     1       7.619   4.457  17.888  0.00  0.00    +0.000 HD
ATOM     11  H   UNL     1       6.369   3.463  17.588  0.00  0.00    +0.000 HD
ENDBRANCH   1   9
BRANCH   1  12
ATOM     12  C   UNL     1       6.159   6.348  17.533  0.00  0.00    +0.000 C 
BRANCH  12  13
ATOM     13  C   UNL     1       7.414   7.066  17.962  0.00  0.00    +0.000 C 
ATOM     14  O   UNL     1       8.210   6.666  18.800  0.00  0.00    +0.000 OA
BRANCH  13  16
ATOM     15  C   UNL     1       8.218   9.270  17.931  0.00  0.00    +0.000 C 
ATOM     16  O   UNL     1       7.555   8.213  17.236  0.00  0.00    +0.000 OA
ENDBRANCH  13  16
ENDBRANCH  12  13
ENDBRANCH   1  12
TORSDOF 5
ENDMDL
