MODEL 1
REMARK VINA RESULT:      -8.4      0.000      0.000
REMARK  Name = 
REMARK  5 active torsions:
REMARK  status: ('A' for Active; 'I' for Inactive)
REMARK    1  A    between atoms: C_1  and  C_2
REMARK    2  A    between atoms: C_3  and  C_4
REMARK    3  A    between atoms: N_6  and  C_7
REMARK    4  A    between atoms: C_12  and  C_13
REMARK    5  A    between atoms: N_18  and  C_19
REMARK                            x       y       z     vdW  Elec       q    Type
REMARK                         _______ _______ _______ _____ _____    ______ ____
ROOT
ATOM      1  C   UNL     1       2.806   4.324  18.816  0.00  0.00    +0.000 A 
ATOM      2  C   UNL     1       2.557   3.008  19.246  0.00  0.00    +0.000 A 
ATOM      3  C   UNL     1       1.698   2.742  20.313  0.00  0.00    +0.000 A 
ATOM      4  C   UNL     1       1.032   3.783  20.940  0.00  0.00    +0.000 A 
ATOM      5  C   UNL     1       1.271   5.094  20.534  0.00  0.00    +0.000 A 
ATOM      6  C   UNL     1       2.219   5.388  19.532  0.00  0.00    +0.000 A 
ENDROOT
BRANCH   6   7
ATOM      7  C   UNL     1       2.452   6.824  19.170  0.00  0.00    +0.000 C 
ATOM      8  O   UNL     1       3.296   7.096  18.320  0.00  0.00    +0.000 OA
ATOM      9  N   UNL     1       1.642   7.803  19.760  0.00  0.00    +0.000 N 
ATOM     10  C   UNL     1       1.637   9.145  19.154  0.00  0.00    +0.000 C 
ATOM     11  C   UNL     1       0.323   9.899  19.460  0.00  0.00    +0.000 C 
ATOM     12  N   UNL     1       0.122   9.947  20.922  0.00  0.00    +0.000 N 
ATOM     13  C   UNL     1       0.061   8.600  21.535  0.00  0.00    +0.000 C 
ATOM     14  C   UNL     1       1.349   7.819  21.209  0.00  0.00    +0.000 C 
BRANCH  12  15
ATOM     15  C   UNL     1      -0.776  10.869  21.470  0.00  0.00    +0.000 A 
ATOM     16  C   UNL     1      -1.077  10.953  22.834  0.00  0.00    +0.000 A 
ATOM     17  C   UNL     1      -1.982  11.909  23.312  0.00  0.00    +0.000 A 
ATOM     18  C   UNL     1      -2.613  12.784  22.434  0.00  0.00    +0.000 A 
ATOM     19  C   UNL     1      -2.342  12.705  21.076  0.00  0.00    +0.000 A 
ATOM     20  C   UNL     1      -1.431  11.757  20.602  0.00  0.00    +0.000 A 
ENDBRANCH  12  15
ENDBRANCH   6   7
BRANCH   1  23
ATOM     21  C   UNL     1       5.027   4.425  17.714  0.00  0.00    +0.000 C 
ATOM     22  O   UNL     1       5.648   4.012  18.690  0.00  0.00    +0.000 OA
ATOM     23  N   UNL     1       3.643   4.543  17.692  0.00  0.00    +0.000 N 
ATOM     24  H   UNL     1       3.207   4.503  16.769  0.00  0.00    +0.000 HD
BRANCH  21  27
ATOM     25  C   UNL     1       7.638   6.177  17.472  0.00  0.00    +0.000 C 
ATOM     26  C   UNL     1       6.847   5.557  16.352  0.00  0.00    +0.000 C 
ATOM     27  C   UNL     1       5.739   4.786  16.423  0.00  0.00    +0.000 C 
ATOM     28  S   UNL     1       5.002   4.242  14.928  0.00  0.00    +0.000 S 
ATOM     29  C   UNL     1       6.530   3.851  14.037  0.00  0.00    +0.000 C 
ATOM     30  C   UNL     1       7.660   4.859  14.241  0.00  0.00    +0.000 C 
ATOM     31  O   UNL     1       7.379   5.946  15.122  0.00  0.00    +0.000 OA
ENDBRANCH  21  27
ENDBRANCH   1  23
TORSDOF 4
ENDMDL
MODEL 2
REMARK VINA RESULT:      -8.1      4.542      9.323
REMARK  Name = 
REMARK  5 active torsions:
REMARK  status: ('A' for Active; 'I' for Inactive)
REMARK    1  A    between atoms: C_1  and  C_2
REMARK    2  A    between atoms: C_3  and  C_4
REMARK    3  A    between atoms: N_6  and  C_7
REMARK    4  A    between atoms: C_12  and  C_13
REMARK    5  A    between atoms: N_18  and  C_19
REMARK                            x       y       z     vdW  Elec       q    Type
REMARK                         _______ _______ _______ _____ _____    ______ ____
ROOT
ATOM      1  C   UNL     1      -1.326  11.722  17.883  0.00  0.00    +0.000 A 
ATOM      2  C   UNL     1      -2.288  11.948  16.883  0.00  0.00    +0.000 A 
ATOM      3  C   UNL     1      -3.235  10.977  16.552  0.00  0.00    +0.000 A 
ATOM      4  C   UNL     1      -3.269   9.780  17.249  0.00  0.00    +0.000 A 
ATOM      5  C   UNL     1      -2.319   9.534  18.238  0.00  0.00    +0.000 A 
ATOM      6  C   UNL     1      -1.289  10.459  18.509  0.00  0.00    +0.000 A 
ENDROOT
BRANCH   6   7
ATOM      7  C   UNL     1      -0.280  10.113  19.562  0.00  0.00    +0.000 C 
ATOM      8  O   UNL     1      -0.414  10.577  20.692  0.00  0.00    +0.000 OA
ATOM      9  N   UNL     1       0.741   9.210  19.242  0.00  0.00    +0.000 N 
ATOM     10  C   UNL     1       1.505   8.615  20.351  0.00  0.00    +0.000 C 
ATOM     11  C   UNL     1       2.115   7.253  19.952  0.00  0.00    +0.000 C 
ATOM     12  N   UNL     1       2.939   7.428  18.739  0.00  0.00    +0.000 N 
ATOM     13  C   UNL     1       2.166   7.965  17.596  0.00  0.00    +0.000 C 
ATOM     14  C   UNL     1       1.519   9.309  17.988  0.00  0.00    +0.000 C 
BRANCH  12  15
ATOM     15  C   UNL     1       3.878   6.452  18.389  0.00  0.00    +0.000 A 
ATOM     16  C   UNL     1       4.506   6.380  17.142  0.00  0.00    +0.000 A 
ATOM     17  C   UNL     1       5.444   5.378  16.865  0.00  0.00    +0.000 A 
ATOM     18  C   UNL     1       5.756   4.420  17.825  0.00  0.00    +0.000 A 
ATOM     19  C   UNL     1       5.131   4.463  19.063  0.00  0.00    +0.000 A 
ATOM     20  C   UNL     1       4.203   5.471  19.340  0.00  0.00    +0.000 A 
ENDBRANCH  12  15
ENDBRANCH   6   7
BRANCH   1  23
ATOM     21  C   UNL     1      -0.649  13.701  19.219  0.00  0.00    +0.000 C 
ATOM     22  O   UNL     1      -1.619  13.656  19.973  0.00  0.00    +0.000 OA
ATOM     23  N   UNL     1      -0.419  12.759  18.225  0.00  0.00    +0.000 N 
ATOM     24  H   UNL     1       0.554  12.643  17.938  0.00  0.00    +0.000 HD
BRANCH  21  27
ATOM     25  C   UNL     1       2.200  13.316  20.513  0.00  0.00    +0.000 C 
ATOM     26  C   UNL     1       1.620  14.582  19.945  0.00  0.00    +0.000 C 
ATOM     27  C   UNL     1       0.413  14.775  19.366  0.00  0.00    +0.000 C 
ATOM     28  S   UNL     1      -0.010  16.392  18.836  0.00  0.00    +0.000 S 
ATOM     29  C   UNL     1       1.602  16.846  18.142  0.00  0.00    +0.000 C 
ATOM     30  C   UNL     1       2.800  16.388  18.972  0.00  0.00    +0.000 C 
ATOM     31  O   UNL     1       2.500  15.645  20.152  0.00  0.00    +0.000 OA
ENDBRANCH  21  27
ENDBRANCH   1  23
TORSDOF 4
ENDMDL
MODEL 3
REMARK VINA RESULT:      -7.9      4.798     10.402
REMARK  Name = 
REMARK  5 active torsions:
REMARK  status: ('A' for Active; 'I' for Inactive)
REMARK    1  A    between atoms: C_1  and  C_2
REMARK    2  A    between atoms: C_3  and  C_4
REMARK    3  A    between atoms: N_6  and  C_7
REMARK    4  A    between atoms: C_12  and  C_13
REMARK    5  A    between atoms: N_18  and  C_19
REMARK                            x       y       z     vdW  Elec       q    Type
REMARK                         _______ _______ _______ _____ _____    ______ ____
ROOT
ATOM      1  C   UNL     1      -1.894  12.839  21.070  0.00  0.00    +0.000 A 
ATOM      2  C   UNL     1      -1.943  13.549  22.283  0.00  0.00    +0.000 A 
ATOM      3  C   UNL     1      -0.809  14.172  22.807  0.00  0.00    +0.000 A 
ATOM      4  C   UNL     1       0.385  14.138  22.103  0.00  0.00    +0.000 A 
ATOM      5  C   UNL     1       0.455  13.432  20.904  0.00  0.00    +0.000 A 
ATOM      6  C   UNL     1      -0.652  12.706  20.416  0.00  0.00    +0.000 A 
ENDROOT
BRANCH   6   7
ATOM      7  C   UNL     1      -0.495  11.941  19.138  0.00  0.00    +0.000 C 
ATOM      8  O   UNL     1      -0.951  12.413  18.099  0.00  0.00    +0.000 OA
ATOM      9  N   UNL     1       0.236  10.746  19.157  0.00  0.00    +0.000 N 
ATOM     10  C   UNL     1       0.678  10.190  17.867  0.00  0.00    +0.000 C 
ATOM     11  C   UNL     1       1.930   9.300  18.033  0.00  0.00    +0.000 C 
ATOM     12  N   UNL     1       1.645   8.244  19.026  0.00  0.00    +0.000 N 
ATOM     13  C   UNL     1       1.262   8.792  20.347  0.00  0.00    +0.000 C 
ATOM     14  C   UNL     1       0.035   9.714  20.196  0.00  0.00    +0.000 C 
BRANCH  12  15
ATOM     15  C   UNL     1       2.461   7.111  19.089  0.00  0.00    +0.000 A 
ATOM     16  C   UNL     1       3.545   6.878  18.236  0.00  0.00    +0.000 A 
ATOM     17  C   UNL     1       4.325   5.722  18.364  0.00  0.00    +0.000 A 
ATOM     18  C   UNL     1       4.022   4.771  19.334  0.00  0.00    +0.000 A 
ATOM     19  C   UNL     1       2.941   4.975  20.178  0.00  0.00    +0.000 A 
ATOM     20  C   UNL     1       2.171   6.135  20.055  0.00  0.00    +0.000 A 
ENDBRANCH  12  15
ENDBRANCH   6   7
BRANCH   1  23
ATOM     21  C   UNL     1      -4.242  12.991  20.281  0.00  0.00    +0.000 C 
ATOM     22  O   UNL     1      -4.305  14.214  20.371  0.00  0.00    +0.000 OA
ATOM     23  N   UNL     1      -3.085  12.270  20.548  0.00  0.00    +0.000 N 
ATOM     24  H   UNL     1      -3.005  11.366  20.082  0.00  0.00    +0.000 HD
BRANCH  21  27
ATOM     25  C   UNL     1      -4.487  11.539  17.492  0.00  0.00    +0.000 C 
ATOM     26  C   UNL     1      -5.512  11.580  18.593  0.00  0.00    +0.000 C 
ATOM     27  C   UNL     1      -5.430  12.174  19.805  0.00  0.00    +0.000 C 
ATOM     28  S   UNL     1      -6.820  12.092  20.871  0.00  0.00    +0.000 S 
ATOM     29  C   UNL     1      -7.270  10.367  20.546  0.00  0.00    +0.000 C 
ATOM     30  C   UNL     1      -7.155   9.947  19.082  0.00  0.00    +0.000 C 
ATOM     31  O   UNL     1      -6.683  10.945  18.177  0.00  0.00    +0.000 OA
ENDBRANCH  21  27
ENDBRANCH   1  23
TORSDOF 4
ENDMDL
MODEL 4
REMARK VINA RESULT:      -7.9      4.482      9.167
REMARK  Name = 
REMARK  5 active torsions:
REMARK  status: ('A' for Active; 'I' for Inactive)
REMARK    1  A    between atoms: C_1  and  C_2
REMARK    2  A    between atoms: C_3  and  C_4
REMARK    3  A    between atoms: N_6  and  C_7
REMARK    4  A    between atoms: C_12  and  C_13
REMARK    5  A    between atoms: N_18  and  C_19
REMARK                            x       y       z     vdW  Elec       q    Type
REMARK                         _______ _______ _______ _____ _____    ______ ____
ROOT
ATOM      1  C   UNL     1      -0.544  13.551  21.573  0.00  0.00    +0.000 A 
ATOM      2  C   UNL     1      -0.649  14.167  22.833  0.00  0.00    +0.000 A 
ATOM      3  C   UNL     1      -1.628  13.782  23.751  0.00  0.00    +0.000 A 
ATOM      4  C   UNL     1      -2.490  12.740  23.445  0.00  0.00    +0.000 A 
ATOM      5  C   UNL     1      -2.407  12.123  22.199  0.00  0.00    +0.000 A 
ATOM      6  C   UNL     1      -1.496  12.573  21.219  0.00  0.00    +0.000 A 
ENDROOT
BRANCH   6   7
ATOM      7  C   UNL     1      -1.486  11.887  19.887  0.00  0.00    +0.000 C 
ATOM      8  O   UNL     1      -2.239  12.288  19.003  0.00  0.00    +0.000 OA
ATOM      9  N   UNL     1      -0.561  10.858  19.670  0.00  0.00    +0.000 N 
ATOM     10  C   UNL     1      -0.320  10.433  18.281  0.00  0.00    +0.000 C 
ATOM     11  C   UNL     1       1.081   9.800  18.118  0.00  0.00    +0.000 C 
ATOM     12  N   UNL     1       1.222   8.684  19.074  0.00  0.00    +0.000 N 
ATOM     13  C   UNL     1       1.045   9.112  20.481  0.00  0.00    +0.000 C 
ATOM     14  C   UNL     1      -0.334   9.779  20.655  0.00  0.00    +0.000 C 
BRANCH  12  15
ATOM     15  C   UNL     1       2.227   7.731  18.886  0.00  0.00    +0.000 A 
ATOM     16  C   UNL     1       2.463   6.659  19.753  0.00  0.00    +0.000 A 
ATOM     17  C   UNL     1       3.484   5.737  19.495  0.00  0.00    +0.000 A 
ATOM     18  C   UNL     1       4.298   5.881  18.376  0.00  0.00    +0.000 A 
ATOM     19  C   UNL     1       4.093   6.947  17.512  0.00  0.00    +0.000 A 
ATOM     20  C   UNL     1       3.066   7.860  17.767  0.00  0.00    +0.000 A 
ENDBRANCH  12  15
ENDBRANCH   6   7
BRANCH   1  23
ATOM     21  C   UNL     1       0.346  14.826  19.639  0.00  0.00    +0.000 C 
ATOM     22  O   UNL     1      -0.694  15.448  19.435  0.00  0.00    +0.000 OA
ATOM     23  N   UNL     1       0.502  13.937  20.694  0.00  0.00    +0.000 N 
ATOM     24  H   UNL     1       1.460  13.787  21.014  0.00  0.00    +0.000 HD
BRANCH  21  27
ATOM     25  C   UNL     1       1.491  17.612  18.704  0.00  0.00    +0.000 C 
ATOM     26  C   UNL     1       2.027  16.246  18.370  0.00  0.00    +0.000 C 
ATOM     27  C   UNL     1       1.572  15.037  18.770  0.00  0.00    +0.000 C 
ATOM     28  S   UNL     1       2.382  13.601  18.172  0.00  0.00    +0.000 S 
ATOM     29  C   UNL     1       4.083  14.211  18.307  0.00  0.00    +0.000 C 
ATOM     30  C   UNL     1       4.270  15.667  17.884  0.00  0.00    +0.000 C 
ATOM     31  O   UNL     1       3.090  16.358  17.474  0.00  0.00    +0.000 OA
ENDBRANCH  21  27
ENDBRANCH   1  23
TORSDOF 4
ENDMDL
MODEL 5
REMARK VINA RESULT:      -7.9      4.304      9.613
REMARK  Name = 
REMARK  5 active torsions:
REMARK  status: ('A' for Active; 'I' for Inactive)
REMARK    1  A    between atoms: C_1  and  C_2
REMARK    2  A    between atoms: C_3  and  C_4
REMARK    3  A    between atoms: N_6  and  C_7
REMARK    4  A    between atoms: C_12  and  C_13
REMARK    5  A    between atoms: N_18  and  C_19
REMARK                            x       y       z     vdW  Elec       q    Type
REMARK                         _______ _______ _______ _____ _____    ______ ____
ROOT
ATOM      1  C   UNL     1      -1.155  11.750  19.213  0.00  0.00    +0.000 A 
ATOM      2  C   UNL     1      -2.094  12.294  18.318  0.00  0.00    +0.000 A 
ATOM      3  C   UNL     1      -2.735  11.500  17.366  0.00  0.00    +0.000 A 
ATOM      4  C   UNL     1      -2.486  10.137  17.322  0.00  0.00    +0.000 A 
ATOM      5  C   UNL     1      -1.553   9.581  18.194  0.00  0.00    +0.000 A 
ATOM      6  C   UNL     1      -0.816  10.387  19.088  0.00  0.00    +0.000 A 
ENDROOT
BRANCH   6   7
ATOM      7  C   UNL     1       0.198   9.727  19.972  0.00  0.00    +0.000 C 
ATOM      8  O   UNL     1       0.118   9.878  21.189  0.00  0.00    +0.000 OA
ATOM      9  N   UNL     1       1.159   8.894  19.385  0.00  0.00    +0.000 N 
ATOM     10  C   UNL     1       1.916   7.991  20.268  0.00  0.00    +0.000 C 
ATOM     11  C   UNL     1       2.440   6.756  19.499  0.00  0.00    +0.000 C 
ATOM     12  N   UNL     1       3.242   7.209  18.345  0.00  0.00    +0.000 N 
ATOM     13  C   UNL     1       2.472   8.067  17.416  0.00  0.00    +0.000 C 
ATOM     14  C   UNL     1       1.910   9.287  18.174  0.00  0.00    +0.000 C 
BRANCH  12  15
ATOM     15  C   UNL     1       4.116   6.318  17.714  0.00  0.00    +0.000 A 
ATOM     16  C   UNL     1       4.801   6.600  16.528  0.00  0.00    +0.000 A 
ATOM     17  C   UNL     1       5.668   5.661  15.957  0.00  0.00    +0.000 A 
ATOM     18  C   UNL     1       5.852   4.418  16.554  0.00  0.00    +0.000 A 
ATOM     19  C   UNL     1       5.169   4.111  17.722  0.00  0.00    +0.000 A 
ATOM     20  C   UNL     1       4.312   5.055  18.294  0.00  0.00    +0.000 A 
ENDBRANCH  12  15
ENDBRANCH   6   7
BRANCH   1  23
ATOM     21  C   UNL     1       0.365  13.576  19.930  0.00  0.00    +0.000 C 
ATOM     22  O   UNL     1       0.691  13.896  18.790  0.00  0.00    +0.000 OA
ATOM     23  N   UNL     1      -0.569  12.584  20.200  0.00  0.00    +0.000 N 
ATOM     24  H   UNL     1      -1.055  12.661  21.095  0.00  0.00    +0.000 HD
BRANCH  21  27
ATOM     25  C   UNL     1       3.423  14.029  20.555  0.00  0.00    +0.000 C 
ATOM     26  C   UNL     1       2.247  14.458  21.391  0.00  0.00    +0.000 C 
ATOM     27  C   UNL     1       0.928  14.297  21.142  0.00  0.00    +0.000 C 
ATOM     28  S   UNL     1      -0.223  14.863  22.338  0.00  0.00    +0.000 S 
ATOM     29  C   UNL     1       0.613  16.416  22.757  0.00  0.00    +0.000 C 
ATOM     30  C   UNL     1       2.134  16.309  22.860  0.00  0.00    +0.000 C 
ATOM     31  O   UNL     1       2.693  15.026  22.584  0.00  0.00    +0.000 OA
ENDBRANCH  21  27
ENDBRANCH   1  23
TORSDOF 4
ENDMDL
MODEL 6
REMARK VINA RESULT:      -7.9      2.462      8.752
REMARK  Name = 
REMARK  5 active torsions:
REMARK  status: ('A' for Active; 'I' for Inactive)
REMARK    1  A    between atoms: C_1  and  C_2
REMARK    2  A    between atoms: C_3  and  C_4
REMARK    3  A    between atoms: N_6  and  C_7
REMARK    4  A    between atoms: C_12  and  C_13
REMARK    5  A    between atoms: N_18  and  C_19
REMARK                            x       y       z     vdW  Elec       q    Type
REMARK                         _______ _______ _______ _____ _____    ______ ____
ROOT
ATOM      1  C   UNL     1       2.129   4.990  19.921  0.00  0.00    +0.000 A 
ATOM      2  C   UNL     1       1.049   4.237  20.415  0.00  0.00    +0.000 A 
ATOM      3  C   UNL     1       1.237   2.959  20.944  0.00  0.00    +0.000 A 
ATOM      4  C   UNL     1       2.514   2.428  21.033  0.00  0.00    +0.000 A 
ATOM      5  C   UNL     1       3.595   3.156  20.540  0.00  0.00    +0.000 A 
ATOM      6  C   UNL     1       3.410   4.401  19.904  0.00  0.00    +0.000 A 
ENDROOT
BRANCH   6   7
ATOM      7  C   UNL     1       4.614   5.112  19.365  0.00  0.00    +0.000 C 
ATOM      8  O   UNL     1       5.286   5.807  20.124  0.00  0.00    +0.000 OA
ATOM      9  N   UNL     1       4.979   4.898  18.030  0.00  0.00    +0.000 N 
ATOM     10  C   UNL     1       6.328   5.310  17.612  0.00  0.00    +0.000 C 
ATOM     11  C   UNL     1       6.816   4.498  16.391  0.00  0.00    +0.000 C 
ATOM     12  N   UNL     1       5.830   4.628  15.298  0.00  0.00    +0.000 N 
ATOM     13  C   UNL     1       4.482   4.156  15.687  0.00  0.00    +0.000 C 
ATOM     14  C   UNL     1       3.993   4.931  16.928  0.00  0.00    +0.000 C 
BRANCH  12  15
ATOM     15  C   UNL     1       6.198   4.303  13.989  0.00  0.00    +0.000 A 
ATOM     16  C   UNL     1       5.532   3.359  13.200  0.00  0.00    +0.000 A 
ATOM     17  C   UNL     1       5.952   3.092  11.891  0.00  0.00    +0.000 A 
ATOM     18  C   UNL     1       7.055   3.750  11.356  0.00  0.00    +0.000 A 
ATOM     19  C   UNL     1       7.740   4.676  12.128  0.00  0.00    +0.000 A 
ATOM     20  C   UNL     1       7.312   4.949  13.431  0.00  0.00    +0.000 A 
ENDBRANCH  12  15
ENDBRANCH   6   7
BRANCH   1  23
ATOM     21  C   UNL     1       1.705   7.411  20.266  0.00  0.00    +0.000 C 
ATOM     22  O   UNL     1       1.823   7.366  21.487  0.00  0.00    +0.000 OA
ATOM     23  N   UNL     1       1.899   6.307  19.445  0.00  0.00    +0.000 N 
ATOM     24  H   UNL     1       2.170   6.510  18.481  0.00  0.00    +0.000 HD
BRANCH  21  27
ATOM     25  C   UNL     1      -0.031   9.777  21.420  0.00  0.00    +0.000 C 
ATOM     26  C   UNL     1       0.626   9.702  20.068  0.00  0.00    +0.000 C 
ATOM     27  C   UNL     1       1.391   8.714  19.553  0.00  0.00    +0.000 C 
ATOM     28  S   UNL     1       1.986   8.888  17.913  0.00  0.00    +0.000 S 
ATOM     29  C   UNL     1       2.412  10.648  17.998  0.00  0.00    +0.000 C 
ATOM     30  C   UNL     1       1.400  11.509  18.751  0.00  0.00    +0.000 C 
ATOM     31  O   UNL     1       0.281  10.821  19.309  0.00  0.00    +0.000 OA
ENDBRANCH  21  27
ENDBRANCH   1  23
TORSDOF 4
ENDMDL
MODEL 7
REMARK VINA RESULT:      -7.9      4.732     10.564
REMARK  Name = 
REMARK  5 active torsions:
REMARK  status: ('A' for Active; 'I' for Inactive)
REMARK    1  A    between atoms: C_1  and  C_2
REMARK    2  A    between atoms: C_3  and  C_4
REMARK    3  A    between atoms: N_6  and  C_7
REMARK    4  A    between atoms: C_12  and  C_13
REMARK    5  A    between atoms: N_18  and  C_19
REMARK                            x       y       z     vdW  Elec       q    Type
REMARK                         _______ _______ _______ _____ _____    ______ ____
ROOT
ATOM      1  C   UNL     1      -2.753  11.692  18.578  0.00  0.00    +0.000 A 
ATOM      2  C   UNL     1      -3.680  11.849  17.532  0.00  0.00    +0.000 A 
ATOM      3  C   UNL     1      -3.727  10.955  16.461  0.00  0.00    +0.000 A 
ATOM      4  C   UNL     1      -2.879   9.859  16.439  0.00  0.00    +0.000 A 
ATOM      5  C   UNL     1      -1.948   9.691  17.461  0.00  0.00    +0.000 A 
ATOM      6  C   UNL     1      -1.814  10.643  18.493  0.00  0.00    +0.000 A 
ENDROOT
BRANCH   6   7
ATOM      7  C   UNL     1      -0.766  10.417  19.541  0.00  0.00    +0.000 C 
ATOM      8  O   UNL     1      -0.894  10.953  20.639  0.00  0.00    +0.000 OA
ATOM      9  N   UNL     1       0.286   9.537  19.258  0.00  0.00    +0.000 N 
ATOM     10  C   UNL     1       1.102   9.056  20.385  0.00  0.00    +0.000 C 
ATOM     11  C   UNL     1       1.762   7.695  20.066  0.00  0.00    +0.000 C 
ATOM     12  N   UNL     1       2.549   7.819  18.823  0.00  0.00    +0.000 N 
ATOM     13  C   UNL     1       1.726   8.240  17.666  0.00  0.00    +0.000 C 
ATOM     14  C   UNL     1       1.029   9.580  17.980  0.00  0.00    +0.000 C 
BRANCH  12  15
ATOM     15  C   UNL     1       3.521   6.861  18.518  0.00  0.00    +0.000 A 
ATOM     16  C   UNL     1       4.292   6.872  17.351  0.00  0.00    +0.000 A 
ATOM     17  C   UNL     1       5.256   5.884  17.116  0.00  0.00    +0.000 A 
ATOM     18  C   UNL     1       5.451   4.857  18.036  0.00  0.00    +0.000 A 
ATOM     19  C   UNL     1       4.684   4.818  19.191  0.00  0.00    +0.000 A 
ATOM     20  C   UNL     1       3.731   5.812  19.427  0.00  0.00    +0.000 A 
ENDBRANCH  12  15
ENDBRANCH   6   7
BRANCH   1  23
ATOM     21  C   UNL     1      -3.894  12.817  20.473  0.00  0.00    +0.000 C 
ATOM     22  O   UNL     1      -4.934  12.171  20.368  0.00  0.00    +0.000 OA
ATOM     23  N   UNL     1      -2.780  12.592  19.674  0.00  0.00    +0.000 N 
ATOM     24  H   UNL     1      -1.882  12.869  20.074  0.00  0.00    +0.000 HD
BRANCH  21  27
ATOM     25  C   UNL     1      -3.120  12.311  23.487  0.00  0.00    +0.000 C 
ATOM     26  C   UNL     1      -3.420  13.631  22.831  0.00  0.00    +0.000 C 
ATOM     27  C   UNL     1      -3.734  13.883  21.540  0.00  0.00    +0.000 C 
ATOM     28  S   UNL     1      -4.082  15.537  21.074  0.00  0.00    +0.000 S 
ATOM     29  C   UNL     1      -2.776  16.339  22.041  0.00  0.00    +0.000 C 
ATOM     30  C   UNL     1      -2.574  15.757  23.439  0.00  0.00    +0.000 C 
ATOM     31  O   UNL     1      -3.407  14.650  23.784  0.00  0.00    +0.000 OA
ENDBRANCH  21  27
ENDBRANCH   1  23
TORSDOF 4
ENDMDL
MODEL 8
REMARK VINA RESULT:      -7.9      4.564      9.133
REMARK  Name = 
REMARK  5 active torsions:
REMARK  status: ('A' for Active; 'I' for Inactive)
REMARK    1  A    between atoms: C_1  and  C_2
REMARK    2  A    between atoms: C_3  and  C_4
REMARK    3  A    between atoms: N_6  and  C_7
REMARK    4  A    between atoms: C_12  and  C_13
REMARK    5  A    between atoms: N_18  and  C_19
REMARK                            x       y       z     vdW  Elec       q    Type
REMARK                         _______ _______ _______ _____ _____    ______ ____
ROOT
ATOM      1  C   UNL     1      -0.474  13.764  21.504  0.00  0.00    +0.000 A 
ATOM      2  C   UNL     1      -0.687  14.269  22.799  0.00  0.00    +0.000 A 
ATOM      3  C   UNL     1      -1.539  13.627  23.699  0.00  0.00    +0.000 A 
ATOM      4  C   UNL     1      -2.158  12.440  23.338  0.00  0.00    +0.000 A 
ATOM      5  C   UNL     1      -1.966  11.929  22.056  0.00  0.00    +0.000 A 
ATOM      6  C   UNL     1      -1.196  12.622  21.099  0.00  0.00    +0.000 A 
ENDROOT
BRANCH   6   7
ATOM      7  C   UNL     1      -1.061  12.031  19.729  0.00  0.00    +0.000 C 
ATOM      8  O   UNL     1      -1.642  12.567  18.788  0.00  0.00    +0.000 OA
ATOM      9  N   UNL     1      -0.214  10.929  19.553  0.00  0.00    +0.000 N 
ATOM     10  C   UNL     1       0.180  10.578  18.179  0.00  0.00    +0.000 C 
ATOM     11  C   UNL     1       1.525   9.817  18.153  0.00  0.00    +0.000 C 
ATOM     12  N   UNL     1       1.427   8.630  19.025  0.00  0.00    +0.000 N 
ATOM     13  C   UNL     1       1.093   8.976  20.426  0.00  0.00    +0.000 C 
ATOM     14  C   UNL     1      -0.229   9.768  20.469  0.00  0.00    +0.000 C 
BRANCH  12  15
ATOM     15  C   UNL     1       2.356   7.593  18.895  0.00  0.00    +0.000 A 
ATOM     16  C   UNL     1       2.467   6.524  19.790  0.00  0.00    +0.000 A 
ATOM     17  C   UNL     1       3.417   5.515  19.591  0.00  0.00    +0.000 A 
ATOM     18  C   UNL     1       4.284   5.568  18.504  0.00  0.00    +0.000 A 
ATOM     19  C   UNL     1       4.202   6.629  17.614  0.00  0.00    +0.000 A 
ATOM     20  C   UNL     1       3.245   7.629  17.810  0.00  0.00    +0.000 A 
ENDBRANCH  12  15
ENDBRANCH   6   7
BRANCH   1  23
ATOM     21  C   UNL     1       1.816  14.196  20.651  0.00  0.00    +0.000 C 
ATOM     22  O   UNL     1       2.349  13.326  21.334  0.00  0.00    +0.000 OA
ATOM     23  N   UNL     1       0.445  14.419  20.643  0.00  0.00    +0.000 N 
ATOM     24  H   UNL     1       0.068  14.850  19.798  0.00  0.00    +0.000 HD
BRANCH  21  27
ATOM     25  C   UNL     1       2.506  17.243  21.073  0.00  0.00    +0.000 C 
ATOM     26  C   UNL     1       2.890  16.374  19.907  0.00  0.00    +0.000 C 
ATOM     27  C   UNL     1       2.628  15.063  19.706  0.00  0.00    +0.000 C 
ATOM     28  S   UNL     1       3.168  14.323  18.211  0.00  0.00    +0.000 S 
ATOM     29  C   UNL     1       4.792  15.123  18.120  0.00  0.00    +0.000 C 
ATOM     30  C   UNL     1       4.795  16.598  18.520  0.00  0.00    +0.000 C 
ATOM     31  O   UNL     1       3.542  17.137  18.938  0.00  0.00    +0.000 OA
ENDBRANCH  21  27
ENDBRANCH   1  23
TORSDOF 4
ENDMDL
MODEL 9
REMARK VINA RESULT:      -7.9      4.384     10.350
REMARK  Name = 
REMARK  5 active torsions:
REMARK  status: ('A' for Active; 'I' for Inactive)
REMARK    1  A    between atoms: C_1  and  C_2
REMARK    2  A    between atoms: C_3  and  C_4
REMARK    3  A    between atoms: N_6  and  C_7
REMARK    4  A    between atoms: C_12  and  C_13
REMARK    5  A    between atoms: N_18  and  C_19
REMARK                            x       y       z     vdW  Elec       q    Type
REMARK                         _______ _______ _______ _____ _____    ______ ____
ROOT
ATOM      1  C   UNL     1      -1.952  11.616  19.048  0.00  0.00    +0.000 A 
ATOM      2  C   UNL     1      -2.819  12.018  18.016  0.00  0.00    +0.000 A 
ATOM      3  C   UNL     1      -3.018  11.227  16.884  0.00  0.00    +0.000 A 
ATOM      4  C   UNL     1      -2.391   9.995  16.783  0.00  0.00    +0.000 A 
ATOM      5  C   UNL     1      -1.522   9.583  17.791  0.00  0.00    +0.000 A 
ATOM      6  C   UNL     1      -1.226  10.418  18.889  0.00  0.00    +0.000 A 
ENDROOT
BRANCH   6   7
ATOM      7  C   UNL     1      -0.254   9.925  19.917  0.00  0.00    +0.000 C 
ATOM      8  O   UNL     1      -0.425  10.230  21.095  0.00  0.00    +0.000 OA
ATOM      9  N   UNL     1       0.775   9.066  19.511  0.00  0.00    +0.000 N 
ATOM     10  C   UNL     1       1.499   8.321  20.553  0.00  0.00    +0.000 C 
ATOM     11  C   UNL     1       2.119   7.021  19.992  0.00  0.00    +0.000 C 
ATOM     12  N   UNL     1       2.985   7.354  18.843  0.00  0.00    +0.000 N 
ATOM     13  C   UNL     1       2.252   8.048  17.759  0.00  0.00    +0.000 C 
ATOM     14  C   UNL     1       1.595   9.330  18.309  0.00  0.00    +0.000 C 
BRANCH  12  15
ATOM     15  C   UNL     1       3.932   6.428  18.394  0.00  0.00    +0.000 A 
ATOM     16  C   UNL     1       4.442   5.388  19.177  0.00  0.00    +0.000 A 
ATOM     17  C   UNL     1       5.384   4.492  18.657  0.00  0.00    +0.000 A 
ATOM     18  C   UNL     1       5.846   4.633  17.352  0.00  0.00    +0.000 A 
ATOM     19  C   UNL     1       5.366   5.669  16.565  0.00  0.00    +0.000 A 
ATOM     20  C   UNL     1       4.418   6.555  17.083  0.00  0.00    +0.000 A 
ENDBRANCH  12  15
ENDBRANCH   6   7
BRANCH   1  23
ATOM     21  C   UNL     1      -2.893  12.840  20.991  0.00  0.00    +0.000 C 
ATOM     22  O   UNL     1      -4.044  12.449  20.814  0.00  0.00    +0.000 OA
ATOM     23  N   UNL     1      -1.824  12.426  20.206  0.00  0.00    +0.000 N 
ATOM     24  H   UNL     1      -0.904  12.470  20.646  0.00  0.00    +0.000 HD
BRANCH  21  27
ATOM     25  C   UNL     1      -3.722  12.447  24.008  0.00  0.00    +0.000 C 
ATOM     26  C   UNL     1      -2.933  13.585  23.419  0.00  0.00    +0.000 C 
ATOM     27  C   UNL     1      -2.545  13.772  22.137  0.00  0.00    +0.000 C 
ATOM     28  S   UNL     1      -1.667  15.235  21.736  0.00  0.00    +0.000 S 
ATOM     29  C   UNL     1      -0.603  15.286  23.202  0.00  0.00    +0.000 C 
ATOM     30  C   UNL     1      -1.303  14.911  24.507  0.00  0.00    +0.000 C 
ATOM     31  O   UNL     1      -2.678  14.544  24.399  0.00  0.00    +0.000 OA
ENDBRANCH  21  27
ENDBRANCH   1  23
TORSDOF 4
ENDMDL
