MODEL 1
REMARK VINA RESULT:      -7.6      0.000      0.000
REMARK  Name = 
REMARK  9 active torsions:
REMARK  status: ('A' for Active; 'I' for Inactive)
REMARK    1  A    between atoms: C_1  and  C_2
REMARK    2  A    between atoms: C_9  and  C_10
REMARK    3  A    between atoms: N_15  and  C_16
REMARK    4  A    between atoms: C_16  and  C_17
REMARK    5  A    between atoms: C_16  and  C_18
REMARK    6  A    between atoms: C_21  and  C_22
REMARK    7  A    between atoms: C_22  and  C_23
REMARK    8  A    between atoms: C_22  and  C_24
REMARK    9  A    between atoms: C_26  and  C_27
REMARK                            x       y       z     vdW  Elec       q    Type
REMARK                         _______ _______ _______ _____ _____    ______ ____
ROOT
ATOM      1  C   UNL     1       2.708   7.751  17.043  0.00  0.00    +0.000 C 
ATOM      2  C   UNL     1       2.153   8.416  18.260  0.00  0.00    +0.000 A 
ATOM      3  C   UNL     1       1.810   9.749  18.185  0.00  0.00    +0.000 A 
ATOM      4  N   UNL     1       1.265  10.448  19.183  0.00  0.00    +0.000 NA
ATOM      5  C   UNL     1       1.017   9.806  20.325  0.00  0.00    +0.000 A 
ATOM      6  N   UNL     1       0.286  10.497  21.364  0.00  0.00    +0.000 N 
ATOM      7  N   UNL     1      -0.269   9.745  22.371  0.00  0.00    +0.000 NA
ATOM      8  C   UNL     1      -0.994  10.595  23.082  0.00  0.00    +0.000 A 
ATOM      9  C   UNL     1      -0.944  11.907  22.589  0.00  0.00    +0.000 A 
ATOM     10  C   UNL     1      -0.036  11.855  21.519  0.00  0.00    +0.000 A 
ATOM     11  N   UNL     1       1.343   8.509  20.511  0.00  0.00    +0.000 NA
ATOM     12  C   UNL     1       1.943   7.825  19.502  0.00  0.00    +0.000 A 
ENDROOT
BRANCH   9  13
ATOM     13  C   UNL     1      -1.570  13.110  23.123  0.00  0.00    +0.000 C 
ATOM     14  O   UNL     1      -0.947  13.841  23.892  0.00  0.00    +0.000 OA
ATOM     15  N   UNL     1      -2.853  13.446  22.695  0.00  0.00    +0.000 N 
ATOM     16  C   UNL     1      -3.361  14.780  23.031  0.00  0.00    +0.000 C 
ATOM     17  C   UNL     1      -3.803  15.529  21.756  0.00  0.00    +0.000 C 
ATOM     18  N   UNL     1      -4.809  14.794  20.942  0.00  0.00    +0.000 NA
ATOM     19  C   UNL     1      -4.209  13.482  20.602  0.00  0.00    +0.000 C 
ATOM     20  C   UNL     1      -3.738  12.665  21.819  0.00  0.00    +0.000 C 
BRANCH  18  21
ATOM     21  C   UNL     1      -6.132  14.690  21.608  0.00  0.00    +0.000 C 
ATOM     22  C   UNL     1      -6.721  16.081  21.893  0.00  0.00    +0.000 C 
ATOM     23  C   UNL     1      -7.158  13.920  20.760  0.00  0.00    +0.000 C 
ENDBRANCH  18  21
ENDBRANCH   9  13
BRANCH  12  24
ATOM     24  C   UNL     1       2.319   6.438  19.872  0.00  0.00    +0.000 A 
ATOM     25  C   UNL     1       3.524   5.873  19.398  0.00  0.00    +0.000 A 
ATOM     26  C   UNL     1       3.895   4.559  19.717  0.00  0.00    +0.000 A 
ATOM     27  C   UNL     1       3.065   3.796  20.516  0.00  0.00    +0.000 A 
ATOM     28  F   UNL     1       3.413   2.542  20.832  0.00  0.00    +0.000 F 
ATOM     29  C   UNL     1       1.864   4.306  20.986  0.00  0.00    +0.000 A 
ATOM     30  C   UNL     1       1.488   5.607  20.645  0.00  0.00    +0.000 A 
ENDBRANCH  12  24
BRANCH  10  31
ATOM     31  C   UNL     1       0.543  13.076  20.810  0.00  0.00    +0.000 C 
ATOM     32  C   UNL     1      -0.529  13.764  19.957  0.00  0.00    +0.000 C 
ATOM     33  C   UNL     1       1.328  14.109  21.602  0.00  0.00    +0.000 C 
ENDBRANCH  10  31
TORSDOF 4
ENDMDL
MODEL 2
REMARK VINA RESULT:      -7.3      3.402      5.298
REMARK  Name = 
REMARK  9 active torsions:
REMARK  status: ('A' for Active; 'I' for Inactive)
REMARK    1  A    between atoms: C_1  and  C_2
REMARK    2  A    between atoms: C_9  and  C_10
REMARK    3  A    between atoms: N_15  and  C_16
REMARK    4  A    between atoms: C_16  and  C_17
REMARK    5  A    between atoms: C_16  and  C_18
REMARK    6  A    between atoms: C_21  and  C_22
REMARK    7  A    between atoms: C_22  and  C_23
REMARK    8  A    between atoms: C_22  and  C_24
REMARK    9  A    between atoms: C_26  and  C_27
REMARK                            x       y       z     vdW  Elec       q    Type
REMARK                         _______ _______ _______ _____ _____    ______ ____
ROOT
ATOM      1  C   UNL     1       2.418   4.856  20.794  0.00  0.00    +0.000 C 
ATOM      2  C   UNL     1       2.194   6.187  20.152  0.00  0.00    +0.000 A 
ATOM      3  C   UNL     1       1.419   7.115  20.813  0.00  0.00    +0.000 A 
ATOM      4  N   UNL     1       1.178   8.352  20.371  0.00  0.00    +0.000 NA
ATOM      5  C   UNL     1       1.744   8.719  19.221  0.00  0.00    +0.000 A 
ATOM      6  N   UNL     1       1.627  10.099  18.801  0.00  0.00    +0.000 N 
ATOM      7  N   UNL     1       2.486  10.550  17.828  0.00  0.00    +0.000 NA
ATOM      8  C   UNL     1       2.269  11.855  17.752  0.00  0.00    +0.000 A 
ATOM      9  C   UNL     1       1.282  12.302  18.642  0.00  0.00    +0.000 A 
ATOM     10  C   UNL     1       0.804  11.138  19.263  0.00  0.00    +0.000 A 
ATOM     11  N   UNL     1       2.495   7.875  18.482  0.00  0.00    +0.000 NA
ATOM     12  C   UNL     1       2.689   6.604  18.921  0.00  0.00    +0.000 A 
ENDROOT
BRANCH   9  13
ATOM     13  C   UNL     1       0.747  13.647  18.815  0.00  0.00    +0.000 C 
ATOM     14  O   UNL     1      -0.339  13.947  18.321  0.00  0.00    +0.000 OA
ATOM     15  N   UNL     1       1.454  14.555  19.601  0.00  0.00    +0.000 N 
ATOM     16  C   UNL     1       0.783  15.803  19.980  0.00  0.00    +0.000 C 
ATOM     17  C   UNL     1       0.787  15.976  21.513  0.00  0.00    +0.000 C 
ATOM     18  N   UNL     1       2.144  15.925  22.124  0.00  0.00    +0.000 NA
ATOM     19  C   UNL     1       2.737  14.623  21.738  0.00  0.00    +0.000 C 
ATOM     20  C   UNL     1       2.774  14.366  20.220  0.00  0.00    +0.000 C 
BRANCH  18  21
ATOM     21  C   UNL     1       2.986  17.094  21.766  0.00  0.00    +0.000 C 
ATOM     22  C   UNL     1       2.370  18.402  22.286  0.00  0.00    +0.000 C 
ATOM     23  C   UNL     1       4.408  16.992  22.344  0.00  0.00    +0.000 C 
ENDBRANCH  18  21
ENDBRANCH   9  13
BRANCH  12  24
ATOM     24  C   UNL     1       3.463   5.765  17.973  0.00  0.00    +0.000 A 
ATOM     25  C   UNL     1       4.575   6.300  17.286  0.00  0.00    +0.000 A 
ATOM     26  C   UNL     1       5.313   5.536  16.372  0.00  0.00    +0.000 A 
ATOM     27  C   UNL     1       4.946   4.225  16.135  0.00  0.00    +0.000 A 
ATOM     28  F   UNL     1       5.648   3.483  15.267  0.00  0.00    +0.000 F 
ATOM     29  C   UNL     1       3.849   3.666  16.773  0.00  0.00    +0.000 A 
ATOM     30  C   UNL     1       3.104   4.440  17.665  0.00  0.00    +0.000 A 
ENDBRANCH  12  24
BRANCH  10  31
ATOM     31  C   UNL     1      -0.446  11.069  20.138  0.00  0.00    +0.000 C 
ATOM     32  C   UNL     1      -0.260  11.903  21.411  0.00  0.00    +0.000 C 
ATOM     33  C   UNL     1      -1.812  11.337  19.529  0.00  0.00    +0.000 C 
ENDBRANCH  10  31
TORSDOF 4
ENDMDL
MODEL 3
REMARK VINA RESULT:      -7.2      5.833      9.462
REMARK  Name = 
REMARK  9 active torsions:
REMARK  status: ('A' for Active; 'I' for Inactive)
REMARK    1  A    between atoms: C_1  and  C_2
REMARK    2  A    between atoms: C_9  and  C_10
REMARK    3  A    between atoms: N_15  and  C_16
REMARK    4  A    between atoms: C_16  and  C_17
REMARK    5  A    between atoms: C_16  and  C_18
REMARK    6  A    between atoms: C_21  and  C_22
REMARK    7  A    between atoms: C_22  and  C_23
REMARK    8  A    between atoms: C_22  and  C_24
REMARK    9  A    between atoms: C_26  and  C_27
REMARK                            x       y       z     vdW  Elec       q    Type
REMARK                         _______ _______ _______ _____ _____    ______ ____
ROOT
ATOM      1  C   UNL     1      -0.422   9.613  21.116  0.00  0.00    +0.000 C 
ATOM      2  C   UNL     1       0.245  10.832  20.566  0.00  0.00    +0.000 A 
ATOM      3  C   UNL     1       1.323  11.356  21.246  0.00  0.00    +0.000 A 
ATOM      4  N   UNL     1       2.034  12.411  20.840  0.00  0.00    +0.000 NA
ATOM      5  C   UNL     1       1.687  12.984  19.687  0.00  0.00    +0.000 A 
ATOM      6  N   UNL     1       2.533  14.026  19.148  0.00  0.00    +0.000 N 
ATOM      7  N   UNL     1       2.381  14.360  17.825  0.00  0.00    +0.000 NA
ATOM      8  C   UNL     1       3.364  15.209  17.565  0.00  0.00    +0.000 A 
ATOM      9  C   UNL     1       4.177  15.467  18.677  0.00  0.00    +0.000 A 
ATOM     10  C   UNL     1       3.578  14.760  19.733  0.00  0.00    +0.000 A 
ATOM     11  N   UNL     1       0.627  12.566  18.961  0.00  0.00    +0.000 NA
ATOM     12  C   UNL     1      -0.115  11.522  19.414  0.00  0.00    +0.000 A 
ENDROOT
BRANCH   9  13
ATOM     13  C   UNL     1       5.318  16.368  18.789  0.00  0.00    +0.000 C 
ATOM     14  O   UNL     1       5.164  17.506  19.231  0.00  0.00    +0.000 OA
ATOM     15  N   UNL     1       6.584  15.894  18.452  0.00  0.00    +0.000 N 
ATOM     16  C   UNL     1       7.744  16.715  18.815  0.00  0.00    +0.000 C 
ATOM     17  C   UNL     1       8.741  15.899  19.662  0.00  0.00    +0.000 C 
ATOM     18  N   UNL     1       9.197  14.639  19.013  0.00  0.00    +0.000 NA
ATOM     19  C   UNL     1       7.981  13.845  18.720  0.00  0.00    +0.000 C 
ATOM     20  C   UNL     1       6.926  14.586  17.876  0.00  0.00    +0.000 C 
BRANCH  18  21
ATOM     21  C   UNL     1      10.055  14.876  17.825  0.00  0.00    +0.000 C 
ATOM     22  C   UNL     1      11.248  15.781  18.173  0.00  0.00    +0.000 C 
ATOM     23  C   UNL     1      10.622  13.571  17.241  0.00  0.00    +0.000 C 
ENDBRANCH  18  21
ENDBRANCH   9  13
BRANCH  12  24
ATOM     24  C   UNL     1      -1.293  11.224  18.561  0.00  0.00    +0.000 A 
ATOM     25  C   UNL     1      -1.194  10.293  17.503  0.00  0.00    +0.000 A 
ATOM     26  C   UNL     1      -2.285  10.006  16.673  0.00  0.00    +0.000 A 
ATOM     27  C   UNL     1      -3.490  10.646  16.891  0.00  0.00    +0.000 A 
ATOM     28  F   UNL     1      -4.542  10.374  16.107  0.00  0.00    +0.000 F 
ATOM     29  C   UNL     1      -3.625  11.581  17.907  0.00  0.00    +0.000 A 
ATOM     30  C   UNL     1      -2.528  11.881  18.717  0.00  0.00    +0.000 A 
ENDBRANCH  12  24
BRANCH  10  31
ATOM     31  C   UNL     1       3.950  14.915  21.205  0.00  0.00    +0.000 C 
ATOM     32  C   UNL     1       5.409  14.506  21.440  0.00  0.00    +0.000 C 
ATOM     33  C   UNL     1       3.645  16.215  21.930  0.00  0.00    +0.000 C 
ENDBRANCH  10  31
TORSDOF 4
ENDMDL
MODEL 4
REMARK VINA RESULT:      -7.1      3.620      5.389
REMARK  Name = 
REMARK  9 active torsions:
REMARK  status: ('A' for Active; 'I' for Inactive)
REMARK    1  A    between atoms: C_1  and  C_2
REMARK    2  A    between atoms: C_9  and  C_10
REMARK    3  A    between atoms: N_15  and  C_16
REMARK    4  A    between atoms: C_16  and  C_17
REMARK    5  A    between atoms: C_16  and  C_18
REMARK    6  A    between atoms: C_21  and  C_22
REMARK    7  A    between atoms: C_22  and  C_23
REMARK    8  A    between atoms: C_22  and  C_24
REMARK    9  A    between atoms: C_26  and  C_27
REMARK                            x       y       z     vdW  Elec       q    Type
REMARK                         _______ _______ _______ _____ _____    ______ ____
ROOT
ATOM      1  C   UNL     1       2.480   4.926  20.544  0.00  0.00    +0.000 C 
ATOM      2  C   UNL     1       2.264   6.276  19.943  0.00  0.00    +0.000 A 
ATOM      3  C   UNL     1       1.461   7.175  20.612  0.00  0.00    +0.000 A 
ATOM      4  N   UNL     1       1.223   8.425  20.207  0.00  0.00    +0.000 NA
ATOM      5  C   UNL     1       1.821   8.837  19.089  0.00  0.00    +0.000 A 
ATOM      6  N   UNL     1       1.705  10.230  18.715  0.00  0.00    +0.000 N 
ATOM      7  N   UNL     1       2.589  10.722  17.786  0.00  0.00    +0.000 NA
ATOM      8  C   UNL     1       2.364  12.027  17.748  0.00  0.00    +0.000 A 
ATOM      9  C   UNL     1       1.346  12.434  18.622  0.00  0.00    +0.000 A 
ATOM     10  C   UNL     1       0.859  11.245  19.188  0.00  0.00    +0.000 A 
ATOM     11  N   UNL     1       2.601   8.025  18.344  0.00  0.00    +0.000 NA
ATOM     12  C   UNL     1       2.793   6.741  18.744  0.00  0.00    +0.000 A 
ENDROOT
BRANCH   9  13
ATOM     13  C   UNL     1       0.794  13.769  18.827  0.00  0.00    +0.000 C 
ATOM     14  O   UNL     1      -0.300  14.063  18.347  0.00  0.00    +0.000 OA
ATOM     15  N   UNL     1       1.494  14.670  19.626  0.00  0.00    +0.000 N 
ATOM     16  C   UNL     1       0.810  15.901  20.035  0.00  0.00    +0.000 C 
ATOM     17  C   UNL     1       0.822  16.043  21.571  0.00  0.00    +0.000 C 
ATOM     18  N   UNL     1       2.183  15.998  22.171  0.00  0.00    +0.000 NA
ATOM     19  C   UNL     1       2.792  14.712  21.756  0.00  0.00    +0.000 C 
ATOM     20  C   UNL     1       2.821  14.486  20.232  0.00  0.00    +0.000 C 
BRANCH  18  21
ATOM     21  C   UNL     1       3.007  17.185  21.832  0.00  0.00    +0.000 C 
ATOM     22  C   UNL     1       2.351  18.480  22.336  0.00  0.00    +0.000 C 
ATOM     23  C   UNL     1       4.418  17.115  22.441  0.00  0.00    +0.000 C 
ENDBRANCH  18  21
ENDBRANCH   9  13
BRANCH  12  24
ATOM     24  C   UNL     1       3.603   5.942  17.791  0.00  0.00    +0.000 A 
ATOM     25  C   UNL     1       3.347   4.564  17.614  0.00  0.00    +0.000 A 
ATOM     26  C   UNL     1       4.107   3.782  16.734  0.00  0.00    +0.000 A 
ATOM     27  C   UNL     1       5.132   4.370  16.019  0.00  0.00    +0.000 A 
ATOM     28  F   UNL     1       5.862   3.633  15.170  0.00  0.00    +0.000 F 
ATOM     29  C   UNL     1       5.430   5.715  16.177  0.00  0.00    +0.000 A 
ATOM     30  C   UNL     1       4.684   6.484  17.073  0.00  0.00    +0.000 A 
ENDBRANCH  12  24
BRANCH  10  31
ATOM     31  C   UNL     1      -0.416  11.136  20.020  0.00  0.00    +0.000 C 
ATOM     32  C   UNL     1      -1.495  10.360  19.256  0.00  0.00    +0.000 C 
ATOM     33  C   UNL     1      -0.341  10.654  21.459  0.00  0.00    +0.000 C 
ENDBRANCH  10  31
TORSDOF 4
ENDMDL
MODEL 5
REMARK VINA RESULT:      -6.6      2.224      3.090
REMARK  Name = 
REMARK  9 active torsions:
REMARK  status: ('A' for Active; 'I' for Inactive)
REMARK    1  A    between atoms: C_1  and  C_2
REMARK    2  A    between atoms: C_9  and  C_10
REMARK    3  A    between atoms: N_15  and  C_16
REMARK    4  A    between atoms: C_16  and  C_17
REMARK    5  A    between atoms: C_16  and  C_18
REMARK    6  A    between atoms: C_21  and  C_22
REMARK    7  A    between atoms: C_22  and  C_23
REMARK    8  A    between atoms: C_22  and  C_24
REMARK    9  A    between atoms: C_26  and  C_27
REMARK                            x       y       z     vdW  Elec       q    Type
REMARK                         _______ _______ _______ _____ _____    ______ ____
ROOT
ATOM      1  C   UNL     1       3.973   5.801  17.389  0.00  0.00    +0.000 C 
ATOM      2  C   UNL     1       3.178   6.848  18.098  0.00  0.00    +0.000 A 
ATOM      3  C   UNL     1       3.307   8.160  17.696  0.00  0.00    +0.000 A 
ATOM      4  N   UNL     1       2.622   9.181  18.216  0.00  0.00    +0.000 NA
ATOM      5  C   UNL     1       1.738   8.909  19.176  0.00  0.00    +0.000 A 
ATOM      6  N   UNL     1       0.874   9.971  19.644  0.00  0.00    +0.000 N 
ATOM      7  N   UNL     1      -0.248   9.622  20.356  0.00  0.00    +0.000 NA
ATOM      8  C   UNL     1      -0.921  10.750  20.520  0.00  0.00    +0.000 A 
ATOM      9  C   UNL     1      -0.285  11.859  19.944  0.00  0.00    +0.000 A 
ATOM     10  C   UNL     1       0.930  11.360  19.449  0.00  0.00    +0.000 A 
ATOM     11  N   UNL     1       1.559   7.662  19.663  0.00  0.00    +0.000 NA
ATOM     12  C   UNL     1       2.300   6.642  19.157  0.00  0.00    +0.000 A 
ENDROOT
BRANCH   9  13
ATOM     13  C   UNL     1      -0.695  13.258  19.954  0.00  0.00    +0.000 C 
ATOM     14  O   UNL     1      -0.960  13.831  18.898  0.00  0.00    +0.000 OA
ATOM     15  N   UNL     1      -0.845  13.905  21.179  0.00  0.00    +0.000 N 
ATOM     16  C   UNL     1      -1.504  15.216  21.187  0.00  0.00    +0.000 C 
ATOM     17  C   UNL     1      -2.704  15.211  22.157  0.00  0.00    +0.000 C 
ATOM     18  N   UNL     1      -2.356  14.811  23.548  0.00  0.00    +0.000 NA
ATOM     19  C   UNL     1      -1.742  13.466  23.464  0.00  0.00    +0.000 C 
ATOM     20  C   UNL     1      -0.532  13.377  22.515  0.00  0.00    +0.000 C 
BRANCH  18  21
ATOM     21  C   UNL     1      -1.510  15.811  24.245  0.00  0.00    +0.000 C 
ATOM     22  C   UNL     1      -2.114  17.221  24.140  0.00  0.00    +0.000 C 
ATOM     23  C   UNL     1      -1.338  15.494  25.741  0.00  0.00    +0.000 C 
ENDBRANCH  18  21
ENDBRANCH   9  13
BRANCH  12  24
ATOM     24  C   UNL     1       2.059   5.345  19.839  0.00  0.00    +0.000 A 
ATOM     25  C   UNL     1       1.252   4.357  19.232  0.00  0.00    +0.000 A 
ATOM     26  C   UNL     1       0.994   3.131  19.861  0.00  0.00    +0.000 A 
ATOM     27  C   UNL     1       1.541   2.879  21.104  0.00  0.00    +0.000 A 
ATOM     28  F   UNL     1       1.306   1.708  21.712  0.00  0.00    +0.000 F 
ATOM     29  C   UNL     1       2.323   3.830  21.743  0.00  0.00    +0.000 A 
ATOM     30  C   UNL     1       2.558   5.059  21.122  0.00  0.00    +0.000 A 
ENDBRANCH  12  24
BRANCH  10  31
ATOM     31  C   UNL     1       2.085  12.223  18.947  0.00  0.00    +0.000 C 
ATOM     32  C   UNL     1       1.845  12.656  17.496  0.00  0.00    +0.000 C 
ATOM     33  C   UNL     1       2.564  13.403  19.776  0.00  0.00    +0.000 C 
ENDBRANCH  10  31
TORSDOF 4
ENDMDL
MODEL 6
REMARK VINA RESULT:      -6.5      0.427      1.120
REMARK  Name = 
REMARK  9 active torsions:
REMARK  status: ('A' for Active; 'I' for Inactive)
REMARK    1  A    between atoms: C_1  and  C_2
REMARK    2  A    between atoms: C_9  and  C_10
REMARK    3  A    between atoms: N_15  and  C_16
REMARK    4  A    between atoms: C_16  and  C_17
REMARK    5  A    between atoms: C_16  and  C_18
REMARK    6  A    between atoms: C_21  and  C_22
REMARK    7  A    between atoms: C_22  and  C_23
REMARK    8  A    between atoms: C_22  and  C_24
REMARK    9  A    between atoms: C_26  and  C_27
REMARK                            x       y       z     vdW  Elec       q    Type
REMARK                         _______ _______ _______ _____ _____    ______ ____
ROOT
ATOM      1  C   UNL     1       2.776   7.497  17.037  0.00  0.00    +0.000 C 
ATOM      2  C   UNL     1       2.222   8.179  18.245  0.00  0.00    +0.000 A 
ATOM      3  C   UNL     1       1.866   9.507  18.147  0.00  0.00    +0.000 A 
ATOM      4  N   UNL     1       1.320  10.219  19.136  0.00  0.00    +0.000 NA
ATOM      5  C   UNL     1       1.086   9.595  20.291  0.00  0.00    +0.000 A 
ATOM      6  N   UNL     1       0.355  10.298  21.323  0.00  0.00    +0.000 N 
ATOM      7  N   UNL     1      -0.185   9.559  22.347  0.00  0.00    +0.000 NA
ATOM      8  C   UNL     1      -0.915  10.415  23.047  0.00  0.00    +0.000 A 
ATOM      9  C   UNL     1      -0.881  11.718  22.530  0.00  0.00    +0.000 A 
ATOM     10  C   UNL     1       0.020  11.655  21.455  0.00  0.00    +0.000 A 
ATOM     11  N   UNL     1       1.426   8.305  20.499  0.00  0.00    +0.000 NA
ATOM     12  C   UNL     1       2.026   7.609  19.499  0.00  0.00    +0.000 A 
ENDROOT
BRANCH   9  13
ATOM     13  C   UNL     1      -1.516  12.925  23.046  0.00  0.00    +0.000 C 
ATOM     14  O   UNL     1      -0.902  13.664  23.815  0.00  0.00    +0.000 OA
ATOM     15  N   UNL     1      -2.793  13.255  22.599  0.00  0.00    +0.000 N 
ATOM     16  C   UNL     1      -3.309  14.591  22.918  0.00  0.00    +0.000 C 
ATOM     17  C   UNL     1      -3.737  15.327  21.631  0.00  0.00    +0.000 C 
ATOM     18  N   UNL     1      -4.733  14.583  20.812  0.00  0.00    +0.000 NA
ATOM     19  C   UNL     1      -4.126  13.269  20.491  0.00  0.00    +0.000 C 
ATOM     20  C   UNL     1      -3.667  12.464  21.721  0.00  0.00    +0.000 C 
BRANCH  18  21
ATOM     21  C   UNL     1      -6.062  14.483  21.464  0.00  0.00    +0.000 C 
ATOM     22  C   UNL     1      -6.501  13.017  21.610  0.00  0.00    +0.000 C 
ATOM     23  C   UNL     1      -6.076  15.109  22.869  0.00  0.00    +0.000 C 
ENDBRANCH  18  21
ENDBRANCH   9  13
BRANCH  12  24
ATOM     24  C   UNL     1       2.418   6.232  19.891  0.00  0.00    +0.000 A 
ATOM     25  C   UNL     1       1.581   5.460  20.727  0.00  0.00    +0.000 A 
ATOM     26  C   UNL     1       1.934   4.165  21.127  0.00  0.00    +0.000 A 
ATOM     27  C   UNL     1       3.131   3.625  20.695  0.00  0.00    +0.000 A 
ATOM     28  F   UNL     1       3.476   2.385  21.067  0.00  0.00    +0.000 F 
ATOM     29  C   UNL     1       3.991   4.356  19.890  0.00  0.00    +0.000 A 
ATOM     30  C   UNL     1       3.645   5.656  19.514  0.00  0.00    +0.000 A 
ENDBRANCH  12  24
BRANCH  10  31
ATOM     31  C   UNL     1       0.583  12.869  20.719  0.00  0.00    +0.000 C 
ATOM     32  C   UNL     1      -0.493  13.513  19.838  0.00  0.00    +0.000 C 
ATOM     33  C   UNL     1       1.340  13.937  21.491  0.00  0.00    +0.000 C 
ENDBRANCH  10  31
TORSDOF 4
ENDMDL
MODEL 7
REMARK VINA RESULT:      -6.4      5.962      9.776
REMARK  Name = 
REMARK  9 active torsions:
REMARK  status: ('A' for Active; 'I' for Inactive)
REMARK    1  A    between atoms: C_1  and  C_2
REMARK    2  A    between atoms: C_9  and  C_10
REMARK    3  A    between atoms: N_15  and  C_16
REMARK    4  A    between atoms: C_16  and  C_17
REMARK    5  A    between atoms: C_16  and  C_18
REMARK    6  A    between atoms: C_21  and  C_22
REMARK    7  A    between atoms: C_22  and  C_23
REMARK    8  A    between atoms: C_22  and  C_24
REMARK    9  A    between atoms: C_26  and  C_27
REMARK                            x       y       z     vdW  Elec       q    Type
REMARK                         _______ _______ _______ _____ _____    ______ ____
ROOT
ATOM      1  C   UNL     1      -1.547  12.344  22.212  0.00  0.00    +0.000 C 
ATOM      2  C   UNL     1      -0.502  12.993  21.365  0.00  0.00    +0.000 A 
ATOM      3  C   UNL     1       0.324  13.933  21.942  0.00  0.00    +0.000 A 
ATOM      4  N   UNL     1       1.322  14.554  21.308  0.00  0.00    +0.000 NA
ATOM      5  C   UNL     1       1.546  14.225  20.036  0.00  0.00    +0.000 A 
ATOM      6  N   UNL     1       2.716  14.765  19.376  0.00  0.00    +0.000 N 
ATOM      7  N   UNL     1       3.135  14.165  18.214  0.00  0.00    +0.000 NA
ATOM      8  C   UNL     1       4.287  14.747  17.917  0.00  0.00    +0.000 A 
ATOM      9  C   UNL     1       4.660  15.731  18.843  0.00  0.00    +0.000 A 
ATOM     10  C   UNL     1       3.588  15.801  19.747  0.00  0.00    +0.000 A 
ATOM     11  N   UNL     1       0.775  13.340  19.370  0.00  0.00    +0.000 NA
ATOM     12  C   UNL     1      -0.268  12.754  20.015  0.00  0.00    +0.000 A 
ENDROOT
BRANCH   9  13
ATOM     13  C   UNL     1       5.827  16.605  18.829  0.00  0.00    +0.000 C 
ATOM     14  O   UNL     1       5.724  17.777  19.190  0.00  0.00    +0.000 OA
ATOM     15  N   UNL     1       7.062  16.071  18.467  0.00  0.00    +0.000 N 
ATOM     16  C   UNL     1       8.259  16.884  18.709  0.00  0.00    +0.000 C 
ATOM     17  C   UNL     1       9.278  16.105  19.567  0.00  0.00    +0.000 C 
ATOM     18  N   UNL     1       9.668  14.788  18.994  0.00  0.00    +0.000 NA
ATOM     19  C   UNL     1       8.419  14.009  18.822  0.00  0.00    +0.000 C 
ATOM     20  C   UNL     1       7.342  14.714  17.977  0.00  0.00    +0.000 C 
BRANCH  18  21
ATOM     21  C   UNL     1      10.471  14.910  17.751  0.00  0.00    +0.000 C 
ATOM     22  C   UNL     1      11.775  15.682  18.005  0.00  0.00    +0.000 C 
ATOM     23  C   UNL     1      10.853  13.541  17.161  0.00  0.00    +0.000 C 
ENDBRANCH  18  21
ENDBRANCH   9  13
BRANCH  12  24
ATOM     24  C   UNL     1      -1.078  11.868  19.142  0.00  0.00    +0.000 A 
ATOM     25  C   UNL     1      -2.444  12.145  18.911  0.00  0.00    +0.000 A 
ATOM     26  C   UNL     1      -3.236  11.315  18.105  0.00  0.00    +0.000 A 
ATOM     27  C   UNL     1      -2.670  10.199  17.520  0.00  0.00    +0.000 A 
ATOM     28  F   UNL     1      -3.416   9.402  16.743  0.00  0.00    +0.000 F 
ATOM     29  C   UNL     1      -1.338   9.880  17.736  0.00  0.00    +0.000 A 
ATOM     30  C   UNL     1      -0.559  10.698  18.559  0.00  0.00    +0.000 A 
ENDBRANCH  12  24
BRANCH  10  31
ATOM     31  C   UNL     1       3.407  16.892  20.799  0.00  0.00    +0.000 C 
ATOM     32  C   UNL     1       2.164  17.736  20.494  0.00  0.00    +0.000 C 
ATOM     33  C   UNL     1       3.451  16.534  22.275  0.00  0.00    +0.000 C 
ENDBRANCH  10  31
TORSDOF 4
ENDMDL
MODEL 8
REMARK VINA RESULT:      -6.1      2.760      4.475
REMARK  Name = 
REMARK  9 active torsions:
REMARK  status: ('A' for Active; 'I' for Inactive)
REMARK    1  A    between atoms: C_1  and  C_2
REMARK    2  A    between atoms: C_9  and  C_10
REMARK    3  A    between atoms: N_15  and  C_16
REMARK    4  A    between atoms: C_16  and  C_17
REMARK    5  A    between atoms: C_16  and  C_18
REMARK    6  A    between atoms: C_21  and  C_22
REMARK    7  A    between atoms: C_22  and  C_23
REMARK    8  A    between atoms: C_22  and  C_24
REMARK    9  A    between atoms: C_26  and  C_27
REMARK                            x       y       z     vdW  Elec       q    Type
REMARK                         _______ _______ _______ _____ _____    ______ ____
ROOT
ATOM      1  C   UNL     1       2.916   4.833  20.185  0.00  0.00    +0.000 C 
ATOM      2  C   UNL     1       2.598   6.186  19.639  0.00  0.00    +0.000 A 
ATOM      3  C   UNL     1       1.583   6.912  20.224  0.00  0.00    +0.000 A 
ATOM      4  N   UNL     1       1.229   8.147  19.862  0.00  0.00    +0.000 NA
ATOM      5  C   UNL     1       1.920   8.725  18.879  0.00  0.00    +0.000 A 
ATOM      6  N   UNL     1       1.661  10.115  18.574  0.00  0.00    +0.000 N 
ATOM      7  N   UNL     1       2.592  10.795  17.827  0.00  0.00    +0.000 NA
ATOM      8  C   UNL     1       2.188  12.057  17.832  0.00  0.00    +0.000 A 
ATOM      9  C   UNL     1       1.004  12.252  18.557  0.00  0.00    +0.000 A 
ATOM     10  C   UNL     1       0.616  10.967  18.966  0.00  0.00    +0.000 A 
ATOM     11  N   UNL     1       2.912   8.088  18.219  0.00  0.00    +0.000 NA
ATOM     12  C   UNL     1       3.226   6.813  18.568  0.00  0.00    +0.000 A 
ENDROOT
BRANCH   9  13
ATOM     13  C   UNL     1       0.241  13.480  18.750  0.00  0.00    +0.000 C 
ATOM     14  O   UNL     1      -0.275  14.043  17.786  0.00  0.00    +0.000 OA
ATOM     15  N   UNL     1       0.055  13.957  20.046  0.00  0.00    +0.000 N 
ATOM     16  C   UNL     1      -0.924  15.031  20.247  0.00  0.00    +0.000 C 
ATOM     17  C   UNL     1      -1.971  14.618  21.302  0.00  0.00    +0.000 C 
ATOM     18  N   UNL     1      -1.386  14.215  22.610  0.00  0.00    +0.000 NA
ATOM     19  C   UNL     1      -0.448  13.102  22.334  0.00  0.00    +0.000 C 
ATOM     20  C   UNL     1       0.635  13.427  21.288  0.00  0.00    +0.000 C 
BRANCH  18  21
ATOM     21  C   UNL     1      -0.767  15.348  23.343  0.00  0.00    +0.000 C 
ATOM     22  C   UNL     1      -1.375  16.691  22.906  0.00  0.00    +0.000 C 
ATOM     23  C   UNL     1      -0.951  15.233  24.866  0.00  0.00    +0.000 C 
ENDBRANCH  18  21
ENDBRANCH   9  13
BRANCH  12  24
ATOM     24  C   UNL     1       4.276   6.209  17.709  0.00  0.00    +0.000 A 
ATOM     25  C   UNL     1       4.055   4.965  17.078  0.00  0.00    +0.000 A 
ATOM     26  C   UNL     1       5.035   4.364  16.276  0.00  0.00    +0.000 A 
ATOM     27  C   UNL     1       6.247   5.002  16.095  0.00  0.00    +0.000 A 
ATOM     28  F   UNL     1       7.189   4.439  15.325  0.00  0.00    +0.000 F 
ATOM     29  C   UNL     1       6.512   6.215  16.712  0.00  0.00    +0.000 A 
ATOM     30  C   UNL     1       5.540   6.798  17.529  0.00  0.00    +0.000 A 
ENDBRANCH  12  24
BRANCH  10  31
ATOM     31  C   UNL     1      -0.739  10.621  19.579  0.00  0.00    +0.000 C 
ATOM     32  C   UNL     1      -1.651   9.965  18.536  0.00  0.00    +0.000 C 
ATOM     33  C   UNL     1      -0.803   9.855  20.890  0.00  0.00    +0.000 C 
ENDBRANCH  10  31
TORSDOF 4
ENDMDL
MODEL 9
REMARK VINA RESULT:      -6.0      3.547      5.299
REMARK  Name = 
REMARK  9 active torsions:
REMARK  status: ('A' for Active; 'I' for Inactive)
REMARK    1  A    between atoms: C_1  and  C_2
REMARK    2  A    between atoms: C_9  and  C_10
REMARK    3  A    between atoms: N_15  and  C_16
REMARK    4  A    between atoms: C_16  and  C_17
REMARK    5  A    between atoms: C_16  and  C_18
REMARK    6  A    between atoms: C_21  and  C_22
REMARK    7  A    between atoms: C_22  and  C_23
REMARK    8  A    between atoms: C_22  and  C_24
REMARK    9  A    between atoms: C_26  and  C_27
REMARK                            x       y       z     vdW  Elec       q    Type
REMARK                         _______ _______ _______ _____ _____    ______ ____
ROOT
ATOM      1  C   UNL     1       2.089   5.145  20.839  0.00  0.00    +0.000 C 
ATOM      2  C   UNL     1       1.943   6.492  20.209  0.00  0.00    +0.000 A 
ATOM      3  C   UNL     1       1.180   7.442  20.852  0.00  0.00    +0.000 A 
ATOM      4  N   UNL     1       1.006   8.693  20.420  0.00  0.00    +0.000 NA
ATOM      5  C   UNL     1       1.631   9.052  19.298  0.00  0.00    +0.000 A 
ATOM      6  N   UNL     1       1.586  10.441  18.894  0.00  0.00    +0.000 N 
ATOM      7  N   UNL     1       2.499  10.871  17.963  0.00  0.00    +0.000 NA
ATOM      8  C   UNL     1       2.338  12.184  17.897  0.00  0.00    +0.000 A 
ATOM      9  C   UNL     1       1.335  12.658  18.754  0.00  0.00    +0.000 A 
ATOM     10  C   UNL     1       0.786  11.506  19.339  0.00  0.00    +0.000 A 
ATOM     11  N   UNL     1       2.377   8.189  18.576  0.00  0.00    +0.000 NA
ATOM     12  C   UNL     1       2.503   6.905  19.004  0.00  0.00    +0.000 A 
ENDROOT
BRANCH   9  13
ATOM     13  C   UNL     1       0.846  14.022  18.927  0.00  0.00    +0.000 C 
ATOM     14  O   UNL     1      -0.228  14.359  18.432  0.00  0.00    +0.000 OA
ATOM     15  N   UNL     1       1.584  14.904  19.712  0.00  0.00    +0.000 N 
ATOM     16  C   UNL     1       0.957  16.176  20.090  0.00  0.00    +0.000 C 
ATOM     17  C   UNL     1       0.966  16.349  21.623  0.00  0.00    +0.000 C 
ATOM     18  N   UNL     1       2.319  16.251  22.234  0.00  0.00    +0.000 NA
ATOM     19  C   UNL     1       2.868  14.929  21.850  0.00  0.00    +0.000 C 
ATOM     20  C   UNL     1       2.896  14.670  20.332  0.00  0.00    +0.000 C 
BRANCH  18  21
ATOM     21  C   UNL     1       3.202  17.390  21.877  0.00  0.00    +0.000 C 
ATOM     22  C   UNL     1       4.462  16.907  21.141  0.00  0.00    +0.000 C 
ATOM     23  C   UNL     1       2.500  18.413  20.967  0.00  0.00    +0.000 C 
ENDBRANCH  18  21
ENDBRANCH   9  13
BRANCH  12  24
ATOM     24  C   UNL     1       3.280   6.048  18.074  0.00  0.00    +0.000 A 
ATOM     25  C   UNL     1       4.393   6.572  17.379  0.00  0.00    +0.000 A 
ATOM     26  C   UNL     1       5.134   5.790  16.482  0.00  0.00    +0.000 A 
ATOM     27  C   UNL     1       4.770   4.474  16.271  0.00  0.00    +0.000 A 
ATOM     28  F   UNL     1       5.475   3.716  15.420  0.00  0.00    +0.000 F 
ATOM     29  C   UNL     1       3.673   3.926  16.918  0.00  0.00    +0.000 A 
ATOM     30  C   UNL     1       2.924   4.717  17.793  0.00  0.00    +0.000 A 
ENDBRANCH  12  24
BRANCH  10  31
ATOM     31  C   UNL     1      -0.499  11.476  20.163  0.00  0.00    +0.000 C 
ATOM     32  C   UNL     1      -1.596  10.701  19.425  0.00  0.00    +0.000 C 
ATOM     33  C   UNL     1      -0.451  11.058  21.624  0.00  0.00    +0.000 C 
ENDBRANCH  10  31
TORSDOF 4
ENDMDL
