MODEL 1
REMARK VINA RESULT:      -8.4      0.000      0.000
REMARK  Name = 
REMARK  9 active torsions:
REMARK  status: ('A' for Active; 'I' for Inactive)
REMARK    1  A    between atoms: C_1  and  C_2
REMARK    2  A    between atoms: C_6  and  C_7
REMARK    3  A    between atoms: C_16  and  C_17
REMARK    4  A    between atoms: C_16  and  C_23
REMARK    5  A    between atoms: C_17  and  C_18
REMARK    6  A    between atoms: C_18  and  C_19
REMARK    7  A    between atoms: C_19  and  N_20
REMARK    8  A    between atoms: N_20  and  C_21
REMARK    9  A    between atoms: N_20  and  C_22
REMARK                            x       y       z     vdW  Elec       q    Type
REMARK                         _______ _______ _______ _____ _____    ______ ____
ROOT
ATOM      1  C   UNL     1       8.254   5.127  18.730  0.00  0.00    +0.000 C 
ATOM      2  C   UNL     1       6.748   5.197  18.870  0.00  0.00    +0.000 C 
ATOM      3  O   UNL     1       6.254   5.517  19.949  0.00  0.00    +0.000 OA
ATOM      4  N   UNL     1       6.034   4.965  17.697  0.00  0.00    +0.000 N 
ATOM      5  N   UNL     1       6.707   4.606  16.546  0.00  0.00    +0.000 NA
ATOM      6  C   UNL     1       5.865   4.677  15.564  0.00  0.00    +0.000 C 
ATOM      7  C   UNL     1       4.516   5.209  15.929  0.00  0.00    +0.000 C 
ATOM      8  C   UNL     1       4.562   5.201  17.476  0.00  0.00    +0.000 C 
ENDROOT
BRANCH   6   9
ATOM      9  C   UNL     1       6.220   4.340  14.168  0.00  0.00    +0.000 A 
ATOM     10  C   UNL     1       5.399   3.456  13.456  0.00  0.00    +0.000 A 
ATOM     11  C   UNL     1       5.705   3.152  12.134  0.00  0.00    +0.000 A 
ATOM     12  F   UNL     1       4.918   2.305  11.457  0.00  0.00    +0.000 F 
ATOM     13  C   UNL     1       6.809   3.709  11.498  0.00  0.00    +0.000 A 
ATOM     14  C   UNL     1       7.637   4.576  12.201  0.00  0.00    +0.000 A 
ATOM     15  C   UNL     1       7.344   4.879  13.530  0.00  0.00    +0.000 A 
ATOM     16  F   UNL     1       8.185   5.707  14.169  0.00  0.00    +0.000 F 
ENDBRANCH   6   9
BRANCH   8  17
ATOM     17  C   UNL     1       3.687   4.090  18.125  0.00  0.00    +0.000 A 
ATOM     18  C   UNL     1       3.595   3.876  19.518  0.00  0.00    +0.000 A 
ATOM     19  C   UNL     1       2.781   2.877  20.072  0.00  0.00    +0.000 A 
ATOM     20  C   UNL     1       2.024   2.058  19.252  0.00  0.00    +0.000 A 
ATOM     21  C   UNL     1       2.113   2.219  17.876  0.00  0.00    +0.000 A 
ATOM     22  C   UNL     1       2.940   3.206  17.324  0.00  0.00    +0.000 A 
ENDBRANCH   8  17
BRANCH   8  23
ATOM     23  C   UNL     1       4.178   6.634  17.962  0.00  0.00    +0.000 C 
BRANCH  23  24
ATOM     24  C   UNL     1       2.666   6.909  18.008  0.00  0.00    +0.000 C 
BRANCH  24  25
ATOM     25  C   UNL     1       2.211   7.542  19.334  0.00  0.00    +0.000 C 
BRANCH  25  26
ATOM     26  N   UNL     1       1.807   8.958  19.255  0.00  0.00    +0.000 NA
ATOM     27  C   UNL     1       1.275   9.325  17.943  0.00  0.00    +0.000 C 
ATOM     28  C   UNL     1       0.805   9.244  20.288  0.00  0.00    +0.000 C 
ENDBRANCH  25  26
ENDBRANCH  24  25
ENDBRANCH  23  24
ENDBRANCH   8  23
TORSDOF 6
ENDMDL
MODEL 2
REMARK VINA RESULT:      -8.4      3.236      7.642
REMARK  Name = 
REMARK  9 active torsions:
REMARK  status: ('A' for Active; 'I' for Inactive)
REMARK    1  A    between atoms: C_1  and  C_2
REMARK    2  A    between atoms: C_6  and  C_7
REMARK    3  A    between atoms: C_16  and  C_17
REMARK    4  A    between atoms: C_16  and  C_23
REMARK    5  A    between atoms: C_17  and  C_18
REMARK    6  A    between atoms: C_18  and  C_19
REMARK    7  A    between atoms: C_19  and  N_20
REMARK    8  A    between atoms: N_20  and  C_21
REMARK    9  A    between atoms: N_20  and  C_22
REMARK                            x       y       z     vdW  Elec       q    Type
REMARK                         _______ _______ _______ _____ _____    ______ ____
ROOT
ATOM      1  C   UNL     1       2.902   3.222  20.945  0.00  0.00    +0.000 C 
ATOM      2  C   UNL     1       3.777   3.687  19.799  0.00  0.00    +0.000 C 
ATOM      3  O   UNL     1       4.549   2.892  19.265  0.00  0.00    +0.000 OA
ATOM      4  N   UNL     1       3.560   4.998  19.383  0.00  0.00    +0.000 N 
ATOM      5  N   UNL     1       2.667   5.794  20.071  0.00  0.00    +0.000 NA
ATOM      6  C   UNL     1       2.472   6.862  19.364  0.00  0.00    +0.000 C 
ATOM      7  C   UNL     1       3.147   6.865  18.030  0.00  0.00    +0.000 C 
ATOM      8  C   UNL     1       4.097   5.648  18.134  0.00  0.00    +0.000 C 
ENDROOT
BRANCH   6   9
ATOM      9  C   UNL     1       1.587   7.967  19.795  0.00  0.00    +0.000 A 
ATOM     10  C   UNL     1       1.023   7.922  21.076  0.00  0.00    +0.000 A 
ATOM     11  C   UNL     1       0.212   8.967  21.504  0.00  0.00    +0.000 A 
ATOM     12  F   UNL     1      -0.327   8.919  22.730  0.00  0.00    +0.000 F 
ATOM     13  C   UNL     1      -0.052  10.062  20.688  0.00  0.00    +0.000 A 
ATOM     14  C   UNL     1       0.493  10.108  19.410  0.00  0.00    +0.000 A 
ATOM     15  C   UNL     1       1.299   9.060  18.969  0.00  0.00    +0.000 A 
ATOM     16  F   UNL     1       1.785   9.146  17.721  0.00  0.00    +0.000 F 
ENDBRANCH   6   9
BRANCH   8  17
ATOM     17  C   UNL     1       5.598   6.034  18.275  0.00  0.00    +0.000 A 
ATOM     18  C   UNL     1       6.246   6.982  17.455  0.00  0.00    +0.000 A 
ATOM     19  C   UNL     1       7.596   7.322  17.621  0.00  0.00    +0.000 A 
ATOM     20  C   UNL     1       8.349   6.728  18.621  0.00  0.00    +0.000 A 
ATOM     21  C   UNL     1       7.753   5.769  19.428  0.00  0.00    +0.000 A 
ATOM     22  C   UNL     1       6.409   5.418  19.249  0.00  0.00    +0.000 A 
ENDBRANCH   8  17
BRANCH   8  23
ATOM     23  C   UNL     1       3.821   4.733  16.901  0.00  0.00    +0.000 C 
BRANCH  23  24
ATOM     24  C   UNL     1       5.084   4.177  16.222  0.00  0.00    +0.000 C 
BRANCH  24  25
ATOM     25  C   UNL     1       5.138   4.480  14.715  0.00  0.00    +0.000 C 
BRANCH  25  26
ATOM     26  N   UNL     1       6.287   3.903  13.993  0.00  0.00    +0.000 NA
ATOM     27  C   UNL     1       5.942   3.450  12.645  0.00  0.00    +0.000 C 
ATOM     28  C   UNL     1       7.369   4.891  13.915  0.00  0.00    +0.000 C 
ENDBRANCH  25  26
ENDBRANCH  24  25
ENDBRANCH  23  24
ENDBRANCH   8  23
TORSDOF 6
ENDMDL
MODEL 3
REMARK VINA RESULT:      -8.4      4.598      8.077
REMARK  Name = 
REMARK  9 active torsions:
REMARK  status: ('A' for Active; 'I' for Inactive)
REMARK    1  A    between atoms: C_1  and  C_2
REMARK    2  A    between atoms: C_6  and  C_7
REMARK    3  A    between atoms: C_16  and  C_17
REMARK    4  A    between atoms: C_16  and  C_23
REMARK    5  A    between atoms: C_17  and  C_18
REMARK    6  A    between atoms: C_18  and  C_19
REMARK    7  A    between atoms: C_19  and  N_20
REMARK    8  A    between atoms: N_20  and  C_21
REMARK    9  A    between atoms: N_20  and  C_22
REMARK                            x       y       z     vdW  Elec       q    Type
REMARK                         _______ _______ _______ _____ _____    ______ ____
ROOT
ATOM      1  C   UNL     1      -0.047   9.608  23.010  0.00  0.00    +0.000 C 
ATOM      2  C   UNL     1      -0.379  10.461  21.804  0.00  0.00    +0.000 C 
ATOM      3  O   UNL     1      -1.033  11.492  21.953  0.00  0.00    +0.000 OA
ATOM      4  N   UNL     1       0.177  10.030  20.603  0.00  0.00    +0.000 N 
ATOM      5  N   UNL     1       0.889   8.848  20.565  0.00  0.00    +0.000 NA
ATOM      6  C   UNL     1       1.488   8.790  19.417  0.00  0.00    +0.000 C 
ATOM      7  C   UNL     1       1.331  10.008  18.564  0.00  0.00    +0.000 C 
ATOM      8  C   UNL     1       0.222  10.794  19.305  0.00  0.00    +0.000 C 
ENDROOT
BRANCH   6   9
ATOM      9  C   UNL     1       2.332   7.648  19.001  0.00  0.00    +0.000 A 
ATOM     10  C   UNL     1       3.085   7.757  17.825  0.00  0.00    +0.000 A 
ATOM     11  C   UNL     1       3.905   6.704  17.437  0.00  0.00    +0.000 A 
ATOM     12  F   UNL     1       4.622   6.812  16.310  0.00  0.00    +0.000 F 
ATOM     13  C   UNL     1       3.997   5.540  18.193  0.00  0.00    +0.000 A 
ATOM     14  C   UNL     1       3.243   5.418  19.353  0.00  0.00    +0.000 A 
ATOM     15  C   UNL     1       2.411   6.466  19.745  0.00  0.00    +0.000 A 
ATOM     16  F   UNL     1       1.691   6.289  20.864  0.00  0.00    +0.000 F 
ENDBRANCH   6   9
BRANCH   8  17
ATOM     17  C   UNL     1      -1.151  10.783  18.572  0.00  0.00    +0.000 A 
ATOM     18  C   UNL     1      -2.227  11.633  18.906  0.00  0.00    +0.000 A 
ATOM     19  C   UNL     1      -3.445  11.612  18.213  0.00  0.00    +0.000 A 
ATOM     20  C   UNL     1      -3.631  10.741  17.152  0.00  0.00    +0.000 A 
ATOM     21  C   UNL     1      -2.606   9.868  16.814  0.00  0.00    +0.000 A 
ATOM     22  C   UNL     1      -1.395   9.879  17.520  0.00  0.00    +0.000 A 
ENDBRANCH   8  17
BRANCH   8  23
ATOM     23  C   UNL     1       0.761  12.237  19.558  0.00  0.00    +0.000 C 
BRANCH  23  24
ATOM     24  C   UNL     1       1.709  12.764  18.468  0.00  0.00    +0.000 C 
BRANCH  24  25
ATOM     25  C   UNL     1       2.710  13.805  18.997  0.00  0.00    +0.000 C 
BRANCH  25  26
ATOM     26  N   UNL     1       3.073  14.875  18.049  0.00  0.00    +0.000 NA
ATOM     27  C   UNL     1       2.483  16.168  18.397  0.00  0.00    +0.000 C 
ATOM     28  C   UNL     1       4.533  15.005  17.986  0.00  0.00    +0.000 C 
ENDBRANCH  25  26
ENDBRANCH  24  25
ENDBRANCH  23  24
ENDBRANCH   8  23
TORSDOF 6
ENDMDL
MODEL 4
REMARK VINA RESULT:      -8.4      3.289      7.650
REMARK  Name = 
REMARK  9 active torsions:
REMARK  status: ('A' for Active; 'I' for Inactive)
REMARK    1  A    between atoms: C_1  and  C_2
REMARK    2  A    between atoms: C_6  and  C_7
REMARK    3  A    between atoms: C_16  and  C_17
REMARK    4  A    between atoms: C_16  and  C_23
REMARK    5  A    between atoms: C_17  and  C_18
REMARK    6  A    between atoms: C_18  and  C_19
REMARK    7  A    between atoms: C_19  and  N_20
REMARK    8  A    between atoms: N_20  and  C_21
REMARK    9  A    between atoms: N_20  and  C_22
REMARK                            x       y       z     vdW  Elec       q    Type
REMARK                         _______ _______ _______ _____ _____    ______ ____
ROOT
ATOM      1  C   UNL     1       2.578   3.336  21.128  0.00  0.00    +0.000 C 
ATOM      2  C   UNL     1       3.466   3.740  19.969  0.00  0.00    +0.000 C 
ATOM      3  O   UNL     1       4.190   2.900  19.438  0.00  0.00    +0.000 OA
ATOM      4  N   UNL     1       3.316   5.056  19.540  0.00  0.00    +0.000 N 
ATOM      5  N   UNL     1       2.472   5.907  20.227  0.00  0.00    +0.000 NA
ATOM      6  C   UNL     1       2.329   6.976  19.509  0.00  0.00    +0.000 C 
ATOM      7  C   UNL     1       2.991   6.928  18.170  0.00  0.00    +0.000 C 
ATOM      8  C   UNL     1       3.876   5.663  18.280  0.00  0.00    +0.000 C 
ENDROOT
BRANCH   6   9
ATOM      9  C   UNL     1       1.507   8.131  19.934  0.00  0.00    +0.000 A 
ATOM     10  C   UNL     1       1.033   8.176  21.251  0.00  0.00    +0.000 A 
ATOM     11  C   UNL     1       0.284   9.269  21.672  0.00  0.00    +0.000 A 
ATOM     12  F   UNL     1      -0.170   9.306  22.932  0.00  0.00    +0.000 F 
ATOM     13  C   UNL     1      -0.004  10.325  20.813  0.00  0.00    +0.000 A 
ATOM     14  C   UNL     1       0.451  10.282  19.502  0.00  0.00    +0.000 A 
ATOM     15  C   UNL     1       1.195   9.185  19.068  0.00  0.00    +0.000 A 
ATOM     16  F   UNL     1       1.595   9.186  17.787  0.00  0.00    +0.000 F 
ENDBRANCH   6   9
BRANCH   8  17
ATOM     17  C   UNL     1       5.397   5.969  18.404  0.00  0.00    +0.000 A 
ATOM     18  C   UNL     1       6.251   5.343  19.338  0.00  0.00    +0.000 A 
ATOM     19  C   UNL     1       7.622   5.627  19.411  0.00  0.00    +0.000 A 
ATOM     20  C   UNL     1       8.192   6.547  18.546  0.00  0.00    +0.000 A 
ATOM     21  C   UNL     1       7.378   7.205  17.635  0.00  0.00    +0.000 A 
ATOM     22  C   UNL     1       6.005   6.932  17.576  0.00  0.00    +0.000 A 
ENDBRANCH   8  17
BRANCH   8  23
ATOM     23  C   UNL     1       3.541   4.750  17.059  0.00  0.00    +0.000 C 
BRANCH  23  24
ATOM     24  C   UNL     1       4.769   4.159  16.347  0.00  0.00    +0.000 C 
BRANCH  24  25
ATOM     25  C   UNL     1       4.866   4.581  14.871  0.00  0.00    +0.000 C 
BRANCH  25  26
ATOM     26  N   UNL     1       6.235   4.715  14.339  0.00  0.00    +0.000 NA
ATOM     27  C   UNL     1       7.265   4.459  15.346  0.00  0.00    +0.000 C 
ATOM     28  C   UNL     1       6.418   3.799  13.208  0.00  0.00    +0.000 C 
ENDBRANCH  25  26
ENDBRANCH  24  25
ENDBRANCH  23  24
ENDBRANCH   8  23
TORSDOF 6
ENDMDL
MODEL 5
REMARK VINA RESULT:      -8.3      0.475      1.146
REMARK  Name = 
REMARK  9 active torsions:
REMARK  status: ('A' for Active; 'I' for Inactive)
REMARK    1  A    between atoms: C_1  and  C_2
REMARK    2  A    between atoms: C_6  and  C_7
REMARK    3  A    between atoms: C_16  and  C_17
REMARK    4  A    between atoms: C_16  and  C_23
REMARK    5  A    between atoms: C_17  and  C_18
REMARK    6  A    between atoms: C_18  and  C_19
REMARK    7  A    between atoms: C_19  and  N_20
REMARK    8  A    between atoms: N_20  and  C_21
REMARK    9  A    between atoms: N_20  and  C_22
REMARK                            x       y       z     vdW  Elec       q    Type
REMARK                         _______ _______ _______ _____ _____    ______ ____
ROOT
ATOM      1  C   UNL     1       8.200   5.063  18.720  0.00  0.00    +0.000 C 
ATOM      2  C   UNL     1       6.697   5.187  18.854  0.00  0.00    +0.000 C 
ATOM      3  O   UNL     1       6.210   5.523  19.932  0.00  0.00    +0.000 OA
ATOM      4  N   UNL     1       5.979   4.983  17.679  0.00  0.00    +0.000 N 
ATOM      5  N   UNL     1       6.643   4.602  16.529  0.00  0.00    +0.000 NA
ATOM      6  C   UNL     1       5.809   4.705  15.544  0.00  0.00    +0.000 C 
ATOM      7  C   UNL     1       4.478   5.284  15.905  0.00  0.00    +0.000 C 
ATOM      8  C   UNL     1       4.518   5.272  17.453  0.00  0.00    +0.000 C 
ENDROOT
BRANCH   6   9
ATOM      9  C   UNL     1       6.157   4.358  14.148  0.00  0.00    +0.000 A 
ATOM     10  C   UNL     1       5.314   3.496  13.436  0.00  0.00    +0.000 A 
ATOM     11  C   UNL     1       5.613   3.183  12.115  0.00  0.00    +0.000 A 
ATOM     12  F   UNL     1       4.804   2.357  11.437  0.00  0.00    +0.000 F 
ATOM     13  C   UNL     1       6.733   3.710  11.480  0.00  0.00    +0.000 A 
ATOM     14  C   UNL     1       7.582   4.555  12.184  0.00  0.00    +0.000 A 
ATOM     15  C   UNL     1       7.295   4.866  13.512  0.00  0.00    +0.000 A 
ATOM     16  F   UNL     1       8.157   5.672  14.152  0.00  0.00    +0.000 F 
ENDBRANCH   6   9
BRANCH   8  17
ATOM     17  C   UNL     1       3.601   4.192  18.096  0.00  0.00    +0.000 A 
ATOM     18  C   UNL     1       2.980   3.154  17.368  0.00  0.00    +0.000 A 
ATOM     19  C   UNL     1       2.175   2.183  17.982  0.00  0.00    +0.000 A 
ATOM     20  C   UNL     1       1.967   2.212  19.351  0.00  0.00    +0.000 A 
ATOM     21  C   UNL     1       2.537   3.235  20.095  0.00  0.00    +0.000 A 
ATOM     22  C   UNL     1       3.327   4.214  19.477  0.00  0.00    +0.000 A 
ENDBRANCH   8  17
BRANCH   8  23
ATOM     23  C   UNL     1       4.183   6.717  17.939  0.00  0.00    +0.000 C 
BRANCH  23  24
ATOM     24  C   UNL     1       2.696   7.095  17.843  0.00  0.00    +0.000 C 
BRANCH  24  25
ATOM     25  C   UNL     1       2.465   8.615  17.796  0.00  0.00    +0.000 C 
BRANCH  25  26
ATOM     26  N   UNL     1       1.350   9.113  18.621  0.00  0.00    +0.000 NA
ATOM     27  C   UNL     1       1.416   8.648  20.007  0.00  0.00    +0.000 C 
ATOM     28  C   UNL     1       1.334  10.580  18.598  0.00  0.00    +0.000 C 
ENDBRANCH  25  26
ENDBRANCH  24  25
ENDBRANCH  23  24
ENDBRANCH   8  23
TORSDOF 6
ENDMDL
MODEL 6
REMARK VINA RESULT:      -8.3      4.316      7.811
REMARK  Name = 
REMARK  9 active torsions:
REMARK  status: ('A' for Active; 'I' for Inactive)
REMARK    1  A    between atoms: C_1  and  C_2
REMARK    2  A    between atoms: C_6  and  C_7
REMARK    3  A    between atoms: C_16  and  C_17
REMARK    4  A    between atoms: C_16  and  C_23
REMARK    5  A    between atoms: C_17  and  C_18
REMARK    6  A    between atoms: C_18  and  C_19
REMARK    7  A    between atoms: C_19  and  N_20
REMARK    8  A    between atoms: N_20  and  C_21
REMARK    9  A    between atoms: N_20  and  C_22
REMARK                            x       y       z     vdW  Elec       q    Type
REMARK                         _______ _______ _______ _____ _____    ______ ____
ROOT
ATOM      1  C   UNL     1       0.398   9.399  22.816  0.00  0.00    +0.000 C 
ATOM      2  C   UNL     1       0.029  10.272  21.635  0.00  0.00    +0.000 C 
ATOM      3  O   UNL     1      -0.592  11.316  21.823  0.00  0.00    +0.000 OA
ATOM      4  N   UNL     1       0.517   9.839  20.404  0.00  0.00    +0.000 N 
ATOM      5  N   UNL     1       1.198   8.641  20.322  0.00  0.00    +0.000 NA
ATOM      6  C   UNL     1       1.739   8.580  19.147  0.00  0.00    +0.000 C 
ATOM      7  C   UNL     1       1.571   9.809  18.313  0.00  0.00    +0.000 C 
ATOM      8  C   UNL     1       0.518  10.613  19.112  0.00  0.00    +0.000 C 
ENDROOT
BRANCH   6   9
ATOM      9  C   UNL     1       2.535   7.422  18.681  0.00  0.00    +0.000 A 
ATOM     10  C   UNL     1       3.419   7.597  17.609  0.00  0.00    +0.000 A 
ATOM     11  C   UNL     1       4.194   6.526  17.180  0.00  0.00    +0.000 A 
ATOM     12  F   UNL     1       5.037   6.697  16.152  0.00  0.00    +0.000 F 
ATOM     13  C   UNL     1       4.114   5.281  17.793  0.00  0.00    +0.000 A 
ATOM     14  C   UNL     1       3.230   5.095  18.849  0.00  0.00    +0.000 A 
ATOM     15  C   UNL     1       2.442   6.161  19.280  0.00  0.00    +0.000 A 
ATOM     16  F   UNL     1       1.592   5.923  20.291  0.00  0.00    +0.000 F 
ENDBRANCH   6   9
BRANCH   8  17
ATOM     17  C   UNL     1      -0.889  10.642  18.446  0.00  0.00    +0.000 A 
ATOM     18  C   UNL     1      -1.299   9.741  17.439  0.00  0.00    +0.000 A 
ATOM     19  C   UNL     1      -2.581   9.780  16.873  0.00  0.00    +0.000 A 
ATOM     20  C   UNL     1      -3.504  10.721  17.299  0.00  0.00    +0.000 A 
ATOM     21  C   UNL     1      -3.126  11.642  18.266  0.00  0.00    +0.000 A 
ATOM     22  C   UNL     1      -1.839  11.612  18.817  0.00  0.00    +0.000 A 
ENDBRANCH   8  17
BRANCH   8  23
ATOM     23  C   UNL     1       1.103  12.041  19.351  0.00  0.00    +0.000 C 
BRANCH  23  24
ATOM     24  C   UNL     1       2.211  12.449  18.367  0.00  0.00    +0.000 C 
BRANCH  24  25
ATOM     25  C   UNL     1       2.964  13.717  18.805  0.00  0.00    +0.000 C 
BRANCH  25  26
ATOM     26  N   UNL     1       2.583  14.956  18.102  0.00  0.00    +0.000 NA
ATOM     27  C   UNL     1       1.586  15.740  18.831  0.00  0.00    +0.000 C 
ATOM     28  C   UNL     1       3.776  15.778  17.867  0.00  0.00    +0.000 C 
ENDBRANCH  25  26
ENDBRANCH  24  25
ENDBRANCH  23  24
ENDBRANCH   8  23
TORSDOF 6
ENDMDL
MODEL 7
REMARK VINA RESULT:      -8.2      3.441      7.594
REMARK  Name = 
REMARK  9 active torsions:
REMARK  status: ('A' for Active; 'I' for Inactive)
REMARK    1  A    between atoms: C_1  and  C_2
REMARK    2  A    between atoms: C_6  and  C_7
REMARK    3  A    between atoms: C_16  and  C_17
REMARK    4  A    between atoms: C_16  and  C_23
REMARK    5  A    between atoms: C_17  and  C_18
REMARK    6  A    between atoms: C_18  and  C_19
REMARK    7  A    between atoms: C_19  and  N_20
REMARK    8  A    between atoms: N_20  and  C_21
REMARK    9  A    between atoms: N_20  and  C_22
REMARK                            x       y       z     vdW  Elec       q    Type
REMARK                         _______ _______ _______ _____ _____    ______ ____
ROOT
ATOM      1  C   UNL     1       2.487   3.670  21.233  0.00  0.00    +0.000 C 
ATOM      2  C   UNL     1       3.391   3.962  20.054  0.00  0.00    +0.000 C 
ATOM      3  O   UNL     1       4.104   3.068  19.600  0.00  0.00    +0.000 OA
ATOM      4  N   UNL     1       3.269   5.241  19.517  0.00  0.00    +0.000 N 
ATOM      5  N   UNL     1       2.435   6.160  20.123  0.00  0.00    +0.000 NA
ATOM      6  C   UNL     1       2.317   7.169  19.319  0.00  0.00    +0.000 C 
ATOM      7  C   UNL     1       2.989   6.999  17.995  0.00  0.00    +0.000 C 
ATOM      8  C   UNL     1       3.850   5.732  18.217  0.00  0.00    +0.000 C 
ENDROOT
BRANCH   6   9
ATOM      9  C   UNL     1       1.513   8.369  19.640  0.00  0.00    +0.000 A 
ATOM     10  C   UNL     1       1.136   9.228  18.600  0.00  0.00    +0.000 A 
ATOM     11  C   UNL     1       0.358  10.344  18.883  0.00  0.00    +0.000 A 
ATOM     12  F   UNL     1       0.001  11.165  17.884  0.00  0.00    +0.000 F 
ATOM     13  C   UNL     1      -0.059  10.629  20.178  0.00  0.00    +0.000 A 
ATOM     14  C   UNL     1       0.322   9.790  21.218  0.00  0.00    +0.000 A 
ATOM     15  C   UNL     1       1.110   8.673  20.945  0.00  0.00    +0.000 A 
ATOM     16  F   UNL     1       1.465   7.906  21.988  0.00  0.00    +0.000 F 
ENDBRANCH   6   9
BRANCH   8  17
ATOM     17  C   UNL     1       5.375   6.021  18.330  0.00  0.00    +0.000 A 
ATOM     18  C   UNL     1       6.072   6.908  17.482  0.00  0.00    +0.000 A 
ATOM     19  C   UNL     1       7.443   7.162  17.623  0.00  0.00    +0.000 A 
ATOM     20  C   UNL     1       8.169   6.540  18.625  0.00  0.00    +0.000 A 
ATOM     21  C   UNL     1       7.524   5.638  19.459  0.00  0.00    +0.000 A 
ATOM     22  C   UNL     1       6.157   5.373  19.305  0.00  0.00    +0.000 A 
ENDBRANCH   8  17
BRANCH   8  23
ATOM     23  C   UNL     1       3.508   4.728  17.071  0.00  0.00    +0.000 C 
BRANCH  23  24
ATOM     24  C   UNL     1       4.728   4.030  16.449  0.00  0.00    +0.000 C 
BRANCH  24  25
ATOM     25  C   UNL     1       5.002   4.476  15.003  0.00  0.00    +0.000 C 
BRANCH  25  26
ATOM     26  N   UNL     1       6.239   3.947  14.400  0.00  0.00    +0.000 NA
ATOM     27  C   UNL     1       6.071   3.573  12.995  0.00  0.00    +0.000 C 
ATOM     28  C   UNL     1       7.311   4.941  14.516  0.00  0.00    +0.000 C 
ENDBRANCH  25  26
ENDBRANCH  24  25
ENDBRANCH  23  24
ENDBRANCH   8  23
TORSDOF 6
ENDMDL
MODEL 8
REMARK VINA RESULT:      -8.1      5.270      9.033
REMARK  Name = 
REMARK  9 active torsions:
REMARK  status: ('A' for Active; 'I' for Inactive)
REMARK    1  A    between atoms: C_1  and  C_2
REMARK    2  A    between atoms: C_6  and  C_7
REMARK    3  A    between atoms: C_16  and  C_17
REMARK    4  A    between atoms: C_16  and  C_23
REMARK    5  A    between atoms: C_17  and  C_18
REMARK    6  A    between atoms: C_18  and  C_19
REMARK    7  A    between atoms: C_19  and  N_20
REMARK    8  A    between atoms: N_20  and  C_21
REMARK    9  A    between atoms: N_20  and  C_22
REMARK                            x       y       z     vdW  Elec       q    Type
REMARK                         _______ _______ _______ _____ _____    ______ ____
ROOT
ATOM      1  C   UNL     1       2.217  13.764  18.190  0.00  0.00    +0.000 C 
ATOM      2  C   UNL     1       0.788  13.482  18.604  0.00  0.00    +0.000 C 
ATOM      3  O   UNL     1      -0.029  14.400  18.628  0.00  0.00    +0.000 OA
ATOM      4  N   UNL     1       0.497  12.143  18.850  0.00  0.00    +0.000 N 
ATOM      5  N   UNL     1       1.508  11.203  18.797  0.00  0.00    +0.000 NA
ATOM      6  C   UNL     1       0.953  10.032  18.828  0.00  0.00    +0.000 C 
ATOM      7  C   UNL     1      -0.542  10.044  18.797  0.00  0.00    +0.000 C 
ATOM      8  C   UNL     1      -0.869  11.537  19.040  0.00  0.00    +0.000 C 
ENDROOT
BRANCH   6   9
ATOM      9  C   UNL     1       1.725   8.770  18.811  0.00  0.00    +0.000 A 
ATOM     10  C   UNL     1       2.537   8.488  17.705  0.00  0.00    +0.000 A 
ATOM     11  C   UNL     1       3.290   7.320  17.689  0.00  0.00    +0.000 A 
ATOM     12  F   UNL     1       4.063   7.053  16.627  0.00  0.00    +0.000 F 
ATOM     13  C   UNL     1       3.258   6.422  18.750  0.00  0.00    +0.000 A 
ATOM     14  C   UNL     1       2.446   6.687  19.845  0.00  0.00    +0.000 A 
ATOM     15  C   UNL     1       1.680   7.851  19.866  0.00  0.00    +0.000 A 
ATOM     16  F   UNL     1       0.898   8.050  20.939  0.00  0.00    +0.000 F 
ENDBRANCH   6   9
BRANCH   8  17
ATOM     17  C   UNL     1      -1.448  11.831  20.454  0.00  0.00    +0.000 A 
ATOM     18  C   UNL     1      -0.794  11.491  21.657  0.00  0.00    +0.000 A 
ATOM     19  C   UNL     1      -1.334  11.788  22.917  0.00  0.00    +0.000 A 
ATOM     20  C   UNL     1      -2.549  12.445  23.018  0.00  0.00    +0.000 A 
ATOM     21  C   UNL     1      -3.236  12.768  21.857  0.00  0.00    +0.000 A 
ATOM     22  C   UNL     1      -2.703  12.454  20.600  0.00  0.00    +0.000 A 
ENDBRANCH   8  17
BRANCH   8  23
ATOM     23  C   UNL     1      -1.817  12.000  17.889  0.00  0.00    +0.000 C 
BRANCH  23  24
ATOM     24  C   UNL     1      -2.497  10.854  17.122  0.00  0.00    +0.000 C 
BRANCH  24  25
ATOM     25  C   UNL     1      -3.909  11.214  16.631  0.00  0.00    +0.000 C 
BRANCH  25  26
ATOM     26  N   UNL     1      -4.812  11.774  17.654  0.00  0.00    +0.000 NA
ATOM     27  C   UNL     1      -5.853  12.631  17.085  0.00  0.00    +0.000 C 
ATOM     28  C   UNL     1      -5.436  10.684  18.412  0.00  0.00    +0.000 C 
ENDBRANCH  25  26
ENDBRANCH  24  25
ENDBRANCH  23  24
ENDBRANCH   8  23
TORSDOF 6
ENDMDL
MODEL 9
REMARK VINA RESULT:      -8.0      4.824      8.072
REMARK  Name = 
REMARK  9 active torsions:
REMARK  status: ('A' for Active; 'I' for Inactive)
REMARK    1  A    between atoms: C_1  and  C_2
REMARK    2  A    between atoms: C_6  and  C_7
REMARK    3  A    between atoms: C_16  and  C_17
REMARK    4  A    between atoms: C_16  and  C_23
REMARK    5  A    between atoms: C_17  and  C_18
REMARK    6  A    between atoms: C_18  and  C_19
REMARK    7  A    between atoms: C_19  and  N_20
REMARK    8  A    between atoms: N_20  and  C_21
REMARK    9  A    between atoms: N_20  and  C_22
REMARK                            x       y       z     vdW  Elec       q    Type
REMARK                         _______ _______ _______ _____ _____    ______ ____
ROOT
ATOM      1  C   UNL     1      -0.079   9.671  23.159  0.00  0.00    +0.000 C 
ATOM      2  C   UNL     1      -0.322  10.488  21.907  0.00  0.00    +0.000 C 
ATOM      3  O   UNL     1      -0.896  11.572  21.993  0.00  0.00    +0.000 OA
ATOM      4  N   UNL     1       0.221   9.958  20.740  0.00  0.00    +0.000 N 
ATOM      5  N   UNL     1       0.839   8.723  20.773  0.00  0.00    +0.000 NA
ATOM      6  C   UNL     1       1.452   8.564  19.643  0.00  0.00    +0.000 C 
ATOM      7  C   UNL     1       1.406   9.748  18.730  0.00  0.00    +0.000 C 
ATOM      8  C   UNL     1       0.348  10.651  19.409  0.00  0.00    +0.000 C 
ENDROOT
BRANCH   6   9
ATOM      9  C   UNL     1       2.212   7.342  19.299  0.00  0.00    +0.000 A 
ATOM     10  C   UNL     1       2.224   6.276  20.207  0.00  0.00    +0.000 A 
ATOM     11  C   UNL     1       2.911   5.110  19.886  0.00  0.00    +0.000 A 
ATOM     12  F   UNL     1       2.921   4.093  20.759  0.00  0.00    +0.000 F 
ATOM     13  C   UNL     1       3.587   4.977  18.678  0.00  0.00    +0.000 A 
ATOM     14  C   UNL     1       3.592   6.035  17.777  0.00  0.00    +0.000 A 
ATOM     15  C   UNL     1       2.914   7.210  18.096  0.00  0.00    +0.000 A 
ATOM     16  F   UNL     1       2.965   8.208  17.199  0.00  0.00    +0.000 F 
ENDBRANCH   6   9
BRANCH   8  17
ATOM     17  C   UNL     1      -1.008  10.710  18.648  0.00  0.00    +0.000 A 
ATOM     18  C   UNL     1      -2.058  11.594  18.980  0.00  0.00    +0.000 A 
ATOM     19  C   UNL     1      -3.261  11.636  18.261  0.00  0.00    +0.000 A 
ATOM     20  C   UNL     1      -3.456  10.797  17.176  0.00  0.00    +0.000 A 
ATOM     21  C   UNL     1      -2.458   9.894  16.839  0.00  0.00    +0.000 A 
ATOM     22  C   UNL     1      -1.264   9.842  17.569  0.00  0.00    +0.000 A 
ENDBRANCH   8  17
BRANCH   8  23
ATOM     23  C   UNL     1       0.993  12.059  19.605  0.00  0.00    +0.000 C 
BRANCH  23  24
ATOM     24  C   UNL     1       2.073  12.417  18.571  0.00  0.00    +0.000 C 
BRANCH  24  25
ATOM     25  C   UNL     1       2.859  13.687  18.938  0.00  0.00    +0.000 C 
BRANCH  25  26
ATOM     26  N   UNL     1       2.512  14.893  18.165  0.00  0.00    +0.000 NA
ATOM     27  C   UNL     1       1.788  15.888  18.958  0.00  0.00    +0.000 C 
ATOM     28  C   UNL     1       3.732  15.497  17.618  0.00  0.00    +0.000 C 
ENDBRANCH  25  26
ENDBRANCH  24  25
ENDBRANCH  23  24
ENDBRANCH   8  23
TORSDOF 6
ENDMDL
