MODEL 1
REMARK VINA RESULT:      -8.4      0.000      0.000
REMARK  Name = 
REMARK  7 active torsions:
REMARK  status: ('A' for Active; 'I' for Inactive)
REMARK    1  A    between atoms: N_6  and  C_7
REMARK    2  A    between atoms: C_7  and  C_8
REMARK    3  A    between atoms: C_8  and  C_9
REMARK    4  A    between atoms: C_9  and  N_10
REMARK    5  A    between atoms: N_10  and  C_11
REMARK    6  A    between atoms: N_14  and  C_15
REMARK    7  A    between atoms: C_15  and  C_16
REMARK                            x       y       z     vdW  Elec       q    Type
REMARK                         _______ _______ _______ _____ _____    ______ ____
ROOT
ATOM      1  C   UNL     1       6.517   4.921  18.281  0.00  0.00    +0.000 A 
ATOM      2  N   UNL     1       7.189   6.002  18.769  0.00  0.00    +0.000 NA
ATOM      3  C   UNL     1       7.722   6.916  17.941  0.00  0.00    +0.000 A 
ATOM      4  N   UNL     1       8.345   8.013  18.530  0.00  0.00    +0.000 N 
ATOM      5  N   UNL     1       7.688   6.844  16.615  0.00  0.00    +0.000 NA
ATOM      6  C   UNL     1       7.040   5.786  16.095  0.00  0.00    +0.000 A 
ATOM      7  C   UNL     1       6.917   5.544  14.694  0.00  0.00    +0.000 A 
ATOM      8  C   UNL     1       6.208   4.403  14.418  0.00  0.00    +0.000 A 
ATOM      9  S   UNL     1       5.677   3.644  15.839  0.00  0.00    +0.000 S 
ATOM     10  C   UNL     1       6.426   4.813  16.877  0.00  0.00    +0.000 A 
ATOM     11  H   UNL     1       7.965   8.125  19.462  0.00  0.00    +0.000 HD
ENDROOT
BRANCH   1  12
ATOM     12  N   UNL     1       5.991   4.053  19.246  0.00  0.00    +0.000 N 
ATOM     13  H   UNL     1       6.429   3.140  19.142  0.00  0.00    +0.000 HD
BRANCH  12  14
ATOM     14  C   UNL     1       4.571   4.081  19.544  0.00  0.00    +0.000 C 
BRANCH  14  15
ATOM     15  C   UNL     1       3.980   5.483  19.564  0.00  0.00    +0.000 C 
BRANCH  15  16
ATOM     16  C   UNL     1       2.677   5.467  18.755  0.00  0.00    +0.000 C 
BRANCH  16  22
ATOM     17  O   UNL     1       2.080   3.143  17.046  0.00  0.00    +0.000 OA
ATOM     18  C   UNL     1       1.620   3.272  18.169  0.00  0.00    +0.000 C 
ATOM     19  C   UNL     1       0.620   2.349  18.818  0.00  0.00    +0.000 C 
ATOM     20  C   UNL     1       0.692   2.743  20.289  0.00  0.00    +0.000 C 
ATOM     21  C   UNL     1       1.075   4.207  20.255  0.00  0.00    +0.000 C 
ATOM     22  N   UNL     1       1.860   4.311  19.053  0.00  0.00    +0.000 N 
ENDBRANCH  16  22
ENDBRANCH  15  16
ENDBRANCH  14  15
ENDBRANCH  12  14
ENDBRANCH   1  12
BRANCH   4  23
ATOM     23  C   UNL     1       8.349   9.211  17.705  0.00  0.00    +0.000 C 
BRANCH  23  24
ATOM     24  C   UNL     1       8.901  10.394  18.474  0.00  0.00    +0.000 A 
ATOM     25  C   UNL     1       9.407  10.219  19.771  0.00  0.00    +0.000 A 
ATOM     26  C   UNL     1       9.955  11.294  20.474  0.00  0.00    +0.000 A 
ATOM     27  C   UNL     1      10.011  12.556  19.886  0.00  0.00    +0.000 A 
ATOM     28  C   UNL     1       9.526  12.741  18.593  0.00  0.00    +0.000 A 
ATOM     29  C   UNL     1       8.976  11.666  17.888  0.00  0.00    +0.000 A 
ENDBRANCH  23  24
ENDBRANCH   4  23
TORSDOF 7
ENDMDL
MODEL 2
REMARK VINA RESULT:      -8.3      3.326      6.815
REMARK  Name = 
REMARK  7 active torsions:
REMARK  status: ('A' for Active; 'I' for Inactive)
REMARK    1  A    between atoms: N_6  and  C_7
REMARK    2  A    between atoms: C_7  and  C_8
REMARK    3  A    between atoms: C_8  and  C_9
REMARK    4  A    between atoms: C_9  and  N_10
REMARK    5  A    between atoms: N_10  and  C_11
REMARK    6  A    between atoms: N_14  and  C_15
REMARK    7  A    between atoms: C_15  and  C_16
REMARK                            x       y       z     vdW  Elec       q    Type
REMARK                         _______ _______ _______ _____ _____    ______ ____
ROOT
ATOM      1  C   UNL     1       4.313   4.482  19.286  0.00  0.00    +0.000 A 
ATOM      2  N   UNL     1       3.892   5.711  19.699  0.00  0.00    +0.000 NA
ATOM      3  C   UNL     1       2.589   5.962  19.903  0.00  0.00    +0.000 A 
ATOM      4  N   UNL     1       2.259   7.231  20.373  0.00  0.00    +0.000 N 
ATOM      5  N   UNL     1       1.610   5.090  19.694  0.00  0.00    +0.000 NA
ATOM      6  C   UNL     1       1.984   3.866  19.278  0.00  0.00    +0.000 A 
ATOM      7  C   UNL     1       1.066   2.812  18.994  0.00  0.00    +0.000 A 
ATOM      8  C   UNL     1       1.695   1.662  18.591  0.00  0.00    +0.000 A 
ATOM      9  S   UNL     1       3.381   1.849  18.578  0.00  0.00    +0.000 S 
ATOM     10  C   UNL     1       3.314   3.508  19.078  0.00  0.00    +0.000 A 
ATOM     11  H   UNL     1       3.073   7.616  20.835  0.00  0.00    +0.000 HD
ENDROOT
BRANCH   1  12
ATOM     12  N   UNL     1       5.697   4.340  19.129  0.00  0.00    +0.000 N 
ATOM     13  H   UNL     1       5.974   3.417  19.457  0.00  0.00    +0.000 HD
BRANCH  12  14
ATOM     14  C   UNL     1       6.576   5.450  19.446  0.00  0.00    +0.000 C 
BRANCH  14  15
ATOM     15  C   UNL     1       7.754   5.587  18.492  0.00  0.00    +0.000 C 
BRANCH  15  16
ATOM     16  C   UNL     1       7.328   6.493  17.331  0.00  0.00    +0.000 C 
BRANCH  16  22
ATOM     17  O   UNL     1       4.557   6.721  16.358  0.00  0.00    +0.000 OA
ATOM     18  C   UNL     1       5.355   5.921  15.896  0.00  0.00    +0.000 C 
ATOM     19  C   UNL     1       5.046   4.877  14.854  0.00  0.00    +0.000 C 
ATOM     20  C   UNL     1       6.429   4.441  14.382  0.00  0.00    +0.000 C 
ATOM     21  C   UNL     1       7.310   4.651  15.596  0.00  0.00    +0.000 C 
ATOM     22  N   UNL     1       6.680   5.757  16.269  0.00  0.00    +0.000 N 
ENDBRANCH  16  22
ENDBRANCH  15  16
ENDBRANCH  14  15
ENDBRANCH  12  14
ENDBRANCH   1  12
BRANCH   4  23
ATOM     23  C   UNL     1       1.023   7.280  21.139  0.00  0.00    +0.000 C 
BRANCH  23  24
ATOM     24  C   UNL     1       0.561   8.710  21.328  0.00  0.00    +0.000 A 
ATOM     25  C   UNL     1      -0.111   9.086  22.501  0.00  0.00    +0.000 A 
ATOM     26  C   UNL     1      -0.506  10.410  22.704  0.00  0.00    +0.000 A 
ATOM     27  C   UNL     1      -0.228  11.376  21.741  0.00  0.00    +0.000 A 
ATOM     28  C   UNL     1       0.452  11.021  20.577  0.00  0.00    +0.000 A 
ATOM     29  C   UNL     1       0.847   9.696  20.372  0.00  0.00    +0.000 A 
ENDBRANCH  23  24
ENDBRANCH   4  23
TORSDOF 7
ENDMDL
MODEL 3
REMARK VINA RESULT:      -8.2      2.642      8.733
REMARK  Name = 
REMARK  7 active torsions:
REMARK  status: ('A' for Active; 'I' for Inactive)
REMARK    1  A    between atoms: N_6  and  C_7
REMARK    2  A    between atoms: C_7  and  C_8
REMARK    3  A    between atoms: C_8  and  C_9
REMARK    4  A    between atoms: C_9  and  N_10
REMARK    5  A    between atoms: N_10  and  C_11
REMARK    6  A    between atoms: N_14  and  C_15
REMARK    7  A    between atoms: C_15  and  C_16
REMARK                            x       y       z     vdW  Elec       q    Type
REMARK                         _______ _______ _______ _____ _____    ______ ____
ROOT
ATOM      1  C   UNL     1       7.051   6.177  16.805  0.00  0.00    +0.000 A 
ATOM      2  N   UNL     1       6.426   5.904  17.986  0.00  0.00    +0.000 NA
ATOM      3  C   UNL     1       5.594   4.856  18.100  0.00  0.00    +0.000 A 
ATOM      4  N   UNL     1       5.041   4.625  19.358  0.00  0.00    +0.000 N 
ATOM      5  N   UNL     1       5.274   4.033  17.108  0.00  0.00    +0.000 NA
ATOM      6  C   UNL     1       5.864   4.276  15.923  0.00  0.00    +0.000 A 
ATOM      7  C   UNL     1       5.627   3.502  14.748  0.00  0.00    +0.000 A 
ATOM      8  C   UNL     1       6.351   3.946  13.672  0.00  0.00    +0.000 A 
ATOM      9  S   UNL     1       7.326   5.272  14.084  0.00  0.00    +0.000 S 
ATOM     10  C   UNL     1       6.768   5.315  15.725  0.00  0.00    +0.000 A 
ATOM     11  H   UNL     1       5.647   5.052  20.049  0.00  0.00    +0.000 HD
ENDROOT
BRANCH   1  12
ATOM     12  N   UNL     1       7.908   7.284  16.820  0.00  0.00    +0.000 N 
ATOM     13  H   UNL     1       8.870   6.955  16.880  0.00  0.00    +0.000 HD
BRANCH  12  14
ATOM     14  C   UNL     1       7.557   8.459  17.596  0.00  0.00    +0.000 C 
BRANCH  14  15
ATOM     15  C   UNL     1       8.701   8.994  18.444  0.00  0.00    +0.000 C 
BRANCH  15  16
ATOM     16  C   UNL     1       8.793  10.509  18.225  0.00  0.00    +0.000 C 
BRANCH  16  22
ATOM     17  O   UNL     1       9.153  11.178  21.071  0.00  0.00    +0.000 OA
ATOM     18  C   UNL     1      10.011  11.389  20.231  0.00  0.00    +0.000 C 
ATOM     19  C   UNL     1      11.321  12.096  20.473  0.00  0.00    +0.000 C 
ATOM     20  C   UNL     1      12.135  11.748  19.232  0.00  0.00    +0.000 C 
ATOM     21  C   UNL     1      11.091  11.568  18.150  0.00  0.00    +0.000 C 
ATOM     22  N   UNL     1       9.945  11.089  18.879  0.00  0.00    +0.000 N 
ENDBRANCH  16  22
ENDBRANCH  15  16
ENDBRANCH  14  15
ENDBRANCH  12  14
ENDBRANCH   1  12
BRANCH   4  23
ATOM     23  C   UNL     1       4.686   3.237  19.607  0.00  0.00    +0.000 C 
BRANCH  23  24
ATOM     24  C   UNL     1       3.182   3.066  19.666  0.00  0.00    +0.000 A 
ATOM     25  C   UNL     1       2.440   3.688  20.681  0.00  0.00    +0.000 A 
ATOM     26  C   UNL     1       1.049   3.571  20.722  0.00  0.00    +0.000 A 
ATOM     27  C   UNL     1       0.381   2.838  19.744  0.00  0.00    +0.000 A 
ATOM     28  C   UNL     1       1.104   2.227  18.720  0.00  0.00    +0.000 A 
ATOM     29  C   UNL     1       2.497   2.342  18.679  0.00  0.00    +0.000 A 
ENDBRANCH  23  24
ENDBRANCH   4  23
TORSDOF 7
ENDMDL
MODEL 4
REMARK VINA RESULT:      -8.2      4.044      7.433
REMARK  Name = 
REMARK  7 active torsions:
REMARK  status: ('A' for Active; 'I' for Inactive)
REMARK    1  A    between atoms: N_6  and  C_7
REMARK    2  A    between atoms: C_7  and  C_8
REMARK    3  A    between atoms: C_8  and  C_9
REMARK    4  A    between atoms: C_9  and  N_10
REMARK    5  A    between atoms: N_10  and  C_11
REMARK    6  A    between atoms: N_14  and  C_15
REMARK    7  A    between atoms: C_15  and  C_16
REMARK                            x       y       z     vdW  Elec       q    Type
REMARK                         _______ _______ _______ _____ _____    ______ ____
ROOT
ATOM      1  C   UNL     1       3.982   5.084  18.803  0.00  0.00    +0.000 A 
ATOM      2  N   UNL     1       3.531   6.291  19.247  0.00  0.00    +0.000 NA
ATOM      3  C   UNL     1       2.347   6.398  19.872  0.00  0.00    +0.000 A 
ATOM      4  N   UNL     1       1.992   7.662  20.337  0.00  0.00    +0.000 N 
ATOM      5  N   UNL     1       1.507   5.390  20.077  0.00  0.00    +0.000 NA
ATOM      6  C   UNL     1       1.914   4.182  19.645  0.00  0.00    +0.000 A 
ATOM      7  C   UNL     1       1.135   2.993  19.771  0.00  0.00    +0.000 A 
ATOM      8  C   UNL     1       1.771   1.892  19.257  0.00  0.00    +0.000 A 
ATOM      9  S   UNL     1       3.304   2.288  18.648  0.00  0.00    +0.000 S 
ATOM     10  C   UNL     1       3.141   3.973  19.023  0.00  0.00    +0.000 A 
ATOM     11  H   UNL     1       2.841   8.200  20.459  0.00  0.00    +0.000 HD
ENDROOT
BRANCH   1  12
ATOM     12  N   UNL     1       5.240   5.101  18.187  0.00  0.00    +0.000 N 
ATOM     13  H   UNL     1       5.944   4.821  18.867  0.00  0.00    +0.000 HD
BRANCH  12  14
ATOM     14  C   UNL     1       5.583   6.179  17.278  0.00  0.00    +0.000 C 
BRANCH  14  15
ATOM     15  C   UNL     1       5.193   5.905  15.832  0.00  0.00    +0.000 C 
BRANCH  15  16
ATOM     16  C   UNL     1       5.533   4.445  15.511  0.00  0.00    +0.000 C 
BRANCH  16  22
ATOM     17  O   UNL     1       8.000   5.590  14.379  0.00  0.00    +0.000 OA
ATOM     18  C   UNL     1       7.240   4.890  13.731  0.00  0.00    +0.000 C 
ATOM     19  C   UNL     1       7.372   4.580  12.261  0.00  0.00    +0.000 C 
ATOM     20  C   UNL     1       6.424   3.400  12.071  0.00  0.00    +0.000 C 
ATOM     21  C   UNL     1       5.359   3.616  13.126  0.00  0.00    +0.000 C 
ATOM     22  N   UNL     1       6.075   4.289  14.179  0.00  0.00    +0.000 N 
ENDBRANCH  16  22
ENDBRANCH  15  16
ENDBRANCH  14  15
ENDBRANCH  12  14
ENDBRANCH   1  12
BRANCH   4  23
ATOM     23  C   UNL     1       1.089   7.647  21.477  0.00  0.00    +0.000 C 
BRANCH  23  24
ATOM     24  C   UNL     1       0.345   8.961  21.595  0.00  0.00    +0.000 A 
ATOM     25  C   UNL     1      -0.193   9.359  22.829  0.00  0.00    +0.000 A 
ATOM     26  C   UNL     1      -0.846  10.587  22.958  0.00  0.00    +0.000 A 
ATOM     27  C   UNL     1      -0.964  11.434  21.859  0.00  0.00    +0.000 A 
ATOM     28  C   UNL     1      -0.422  11.058  20.632  0.00  0.00    +0.000 A 
ATOM     29  C   UNL     1       0.231   9.829  20.499  0.00  0.00    +0.000 A 
ENDBRANCH  23  24
ENDBRANCH   4  23
TORSDOF 7
ENDMDL
MODEL 5
REMARK VINA RESULT:      -8.1      4.432      7.714
REMARK  Name = 
REMARK  7 active torsions:
REMARK  status: ('A' for Active; 'I' for Inactive)
REMARK    1  A    between atoms: N_6  and  C_7
REMARK    2  A    between atoms: C_7  and  C_8
REMARK    3  A    between atoms: C_8  and  C_9
REMARK    4  A    between atoms: C_9  and  N_10
REMARK    5  A    between atoms: N_10  and  C_11
REMARK    6  A    between atoms: N_14  and  C_15
REMARK    7  A    between atoms: C_15  and  C_16
REMARK                            x       y       z     vdW  Elec       q    Type
REMARK                         _______ _______ _______ _____ _____    ______ ____
ROOT
ATOM      1  C   UNL     1       3.158   5.635  18.500  0.00  0.00    +0.000 A 
ATOM      2  N   UNL     1       2.610   6.843  18.815  0.00  0.00    +0.000 NA
ATOM      3  C   UNL     1       1.954   7.022  19.973  0.00  0.00    +0.000 A 
ATOM      4  N   UNL     1       1.472   8.303  20.233  0.00  0.00    +0.000 N 
ATOM      5  N   UNL     1       1.741   6.071  20.876  0.00  0.00    +0.000 NA
ATOM      6  C   UNL     1       2.260   4.862  20.596  0.00  0.00    +0.000 A 
ATOM      7  C   UNL     1       2.118   3.724  21.446  0.00  0.00    +0.000 A 
ATOM      8  C   UNL     1       2.740   2.611  20.942  0.00  0.00    +0.000 A 
ATOM      9  S   UNL     1       3.507   2.944  19.465  0.00  0.00    +0.000 S 
ATOM     10  C   UNL     1       2.987   4.597  19.440  0.00  0.00    +0.000 A 
ATOM     11  H   UNL     1       2.020   8.959  19.690  0.00  0.00    +0.000 HD
ENDROOT
BRANCH   1  12
ATOM     12  N   UNL     1       3.835   5.583  17.275  0.00  0.00    +0.000 N 
ATOM     13  H   UNL     1       3.209   5.198  16.569  0.00  0.00    +0.000 HD
BRANCH  12  14
ATOM     14  C   UNL     1       5.223   5.163  17.234  0.00  0.00    +0.000 C 
BRANCH  14  15
ATOM     15  C   UNL     1       6.060   5.921  16.214  0.00  0.00    +0.000 C 
BRANCH  15  16
ATOM     16  C   UNL     1       7.176   4.991  15.722  0.00  0.00    +0.000 C 
BRANCH  16  22
ATOM     17  O   UNL     1       8.737   5.918  13.402  0.00  0.00    +0.000 OA
ATOM     18  C   UNL     1       7.796   5.147  13.299  0.00  0.00    +0.000 C 
ATOM     19  C   UNL     1       7.224   4.631  12.003  0.00  0.00    +0.000 C 
ATOM     20  C   UNL     1       6.363   3.454  12.452  0.00  0.00    +0.000 C 
ATOM     21  C   UNL     1       5.924   3.837  13.849  0.00  0.00    +0.000 C 
ATOM     22  N   UNL     1       7.020   4.638  14.328  0.00  0.00    +0.000 N 
ENDBRANCH  16  22
ENDBRANCH  15  16
ENDBRANCH  14  15
ENDBRANCH  12  14
ENDBRANCH   1  12
BRANCH   4  23
ATOM     23  C   UNL     1       1.342   8.616  21.647  0.00  0.00    +0.000 C 
BRANCH  23  24
ATOM     24  C   UNL     1       0.367   9.755  21.861  0.00  0.00    +0.000 A 
ATOM     25  C   UNL     1      -0.479   9.760  22.981  0.00  0.00    +0.000 A 
ATOM     26  C   UNL     1      -1.353  10.825  23.209  0.00  0.00    +0.000 A 
ATOM     27  C   UNL     1      -1.388  11.901  22.326  0.00  0.00    +0.000 A 
ATOM     28  C   UNL     1      -0.543  11.916  21.217  0.00  0.00    +0.000 A 
ATOM     29  C   UNL     1       0.331  10.851  20.986  0.00  0.00    +0.000 A 
ENDBRANCH  23  24
ENDBRANCH   4  23
TORSDOF 7
ENDMDL
MODEL 6
REMARK VINA RESULT:      -8.0      3.487      6.277
REMARK  Name = 
REMARK  7 active torsions:
REMARK  status: ('A' for Active; 'I' for Inactive)
REMARK    1  A    between atoms: N_6  and  C_7
REMARK    2  A    between atoms: C_7  and  C_8
REMARK    3  A    between atoms: C_8  and  C_9
REMARK    4  A    between atoms: C_9  and  N_10
REMARK    5  A    between atoms: N_10  and  C_11
REMARK    6  A    between atoms: N_14  and  C_15
REMARK    7  A    between atoms: C_15  and  C_16
REMARK                            x       y       z     vdW  Elec       q    Type
REMARK                         _______ _______ _______ _____ _____    ______ ____
ROOT
ATOM      1  C   UNL     1       4.487   4.819  18.966  0.00  0.00    +0.000 A 
ATOM      2  N   UNL     1       4.260   6.117  18.617  0.00  0.00    +0.000 NA
ATOM      3  C   UNL     1       3.061   6.509  18.159  0.00  0.00    +0.000 A 
ATOM      4  N   UNL     1       2.906   7.865  17.877  0.00  0.00    +0.000 N 
ATOM      5  N   UNL     1       2.025   5.701  17.966  0.00  0.00    +0.000 NA
ATOM      6  C   UNL     1       2.212   4.409  18.291  0.00  0.00    +0.000 A 
ATOM      7  C   UNL     1       1.214   3.401  18.136  0.00  0.00    +0.000 A 
ATOM      8  C   UNL     1       1.648   2.165  18.542  0.00  0.00    +0.000 A 
ATOM      9  S   UNL     1       3.240   2.227  19.124  0.00  0.00    +0.000 S 
ATOM     10  C   UNL     1       3.409   3.923  18.808  0.00  0.00    +0.000 A 
ATOM     11  H   UNL     1       3.594   8.377  18.416  0.00  0.00    +0.000 HD
ENDROOT
BRANCH   1  12
ATOM     12  N   UNL     1       5.772   4.541  19.448  0.00  0.00    +0.000 N 
ATOM     13  H   UNL     1       5.694   3.957  20.279  0.00  0.00    +0.000 HD
BRANCH  12  14
ATOM     14  C   UNL     1       6.779   5.586  19.462  0.00  0.00    +0.000 C 
BRANCH  14  15
ATOM     15  C   UNL     1       7.800   5.464  18.339  0.00  0.00    +0.000 C 
BRANCH  15  16
ATOM     16  C   UNL     1       7.316   6.311  17.156  0.00  0.00    +0.000 C 
BRANCH  16  22
ATOM     17  O   UNL     1       5.030   7.014  15.437  0.00  0.00    +0.000 OA
ATOM     18  C   UNL     1       5.581   5.926  15.390  0.00  0.00    +0.000 C 
ATOM     19  C   UNL     1       5.142   4.757  14.545  0.00  0.00    +0.000 C 
ATOM     20  C   UNL     1       6.358   3.837  14.573  0.00  0.00    +0.000 C 
ATOM     21  C   UNL     1       7.007   4.131  15.909  0.00  0.00    +0.000 C 
ATOM     22  N   UNL     1       6.673   5.513  16.136  0.00  0.00    +0.000 N 
ENDBRANCH  16  22
ENDBRANCH  15  16
ENDBRANCH  14  15
ENDBRANCH  12  14
ENDBRANCH   1  12
BRANCH   4  23
ATOM     23  C   UNL     1       1.538   8.345  17.989  0.00  0.00    +0.000 C 
BRANCH  23  24
ATOM     24  C   UNL     1       1.288   8.951  19.354  0.00  0.00    +0.000 A 
ATOM     25  C   UNL     1       1.448   8.174  20.511  0.00  0.00    +0.000 A 
ATOM     26  C   UNL     1       1.260   8.734  21.777  0.00  0.00    +0.000 A 
ATOM     27  C   UNL     1       0.916  10.078  21.902  0.00  0.00    +0.000 A 
ATOM     28  C   UNL     1       0.768  10.865  20.762  0.00  0.00    +0.000 A 
ATOM     29  C   UNL     1       0.955  10.307  19.494  0.00  0.00    +0.000 A 
ENDBRANCH  23  24
ENDBRANCH   4  23
TORSDOF 7
ENDMDL
MODEL 7
REMARK VINA RESULT:      -8.0      4.531      7.129
REMARK  Name = 
REMARK  7 active torsions:
REMARK  status: ('A' for Active; 'I' for Inactive)
REMARK    1  A    between atoms: N_6  and  C_7
REMARK    2  A    between atoms: C_7  and  C_8
REMARK    3  A    between atoms: C_8  and  C_9
REMARK    4  A    between atoms: C_9  and  N_10
REMARK    5  A    between atoms: N_10  and  C_11
REMARK    6  A    between atoms: N_14  and  C_15
REMARK    7  A    between atoms: C_15  and  C_16
REMARK                            x       y       z     vdW  Elec       q    Type
REMARK                         _______ _______ _______ _____ _____    ______ ____
ROOT
ATOM      1  C   UNL     1       4.440   4.355  19.081  0.00  0.00    +0.000 A 
ATOM      2  N   UNL     1       4.112   5.625  19.454  0.00  0.00    +0.000 NA
ATOM      3  C   UNL     1       2.840   5.957  19.728  0.00  0.00    +0.000 A 
ATOM      4  N   UNL     1       2.608   7.264  20.150  0.00  0.00    +0.000 N 
ATOM      5  N   UNL     1       1.805   5.130  19.630  0.00  0.00    +0.000 NA
ATOM      6  C   UNL     1       2.087   3.869  19.257  0.00  0.00    +0.000 A 
ATOM      7  C   UNL     1       1.099   2.854  19.089  0.00  0.00    +0.000 A 
ATOM      8  C   UNL     1       1.639   1.653  18.708  0.00  0.00    +0.000 A 
ATOM      9  S   UNL     1       3.328   1.746  18.576  0.00  0.00    +0.000 S 
ATOM     10  C   UNL     1       3.380   3.428  18.990  0.00  0.00    +0.000 A 
ATOM     11  H   UNL     1       3.471   7.626  20.537  0.00  0.00    +0.000 HD
ENDROOT
BRANCH   1  12
ATOM     12  N   UNL     1       5.801   4.130  18.842  0.00  0.00    +0.000 N 
ATOM     13  H   UNL     1       6.336   4.470  19.639  0.00  0.00    +0.000 HD
BRANCH  12  14
ATOM     14  C   UNL     1       6.351   4.367  17.521  0.00  0.00    +0.000 C 
BRANCH  14  15
ATOM     15  C   UNL     1       5.404   3.991  16.390  0.00  0.00    +0.000 C 
BRANCH  15  16
ATOM     16  C   UNL     1       5.496   5.071  15.306  0.00  0.00    +0.000 C 
BRANCH  16  22
ATOM     17  O   UNL     1       8.054   5.635  13.958  0.00  0.00    +0.000 OA
ATOM     18  C   UNL     1       7.208   4.894  13.484  0.00  0.00    +0.000 C 
ATOM     19  C   UNL     1       7.276   4.238  12.128  0.00  0.00    +0.000 C 
ATOM     20  C   UNL     1       6.199   3.162  12.212  0.00  0.00    +0.000 C 
ATOM     21  C   UNL     1       5.186   3.736  13.179  0.00  0.00    +0.000 C 
ATOM     22  N   UNL     1       5.991   4.549  14.052  0.00  0.00    +0.000 N 
ENDBRANCH  16  22
ENDBRANCH  15  16
ENDBRANCH  14  15
ENDBRANCH  12  14
ENDBRANCH   1  12
BRANCH   4  23
ATOM     23  C   UNL     1       1.431   7.419  20.991  0.00  0.00    +0.000 C 
BRANCH  23  24
ATOM     24  C   UNL     1       0.842   8.807  20.845  0.00  0.00    +0.000 A 
ATOM     25  C   UNL     1       0.988   9.512  19.641  0.00  0.00    +0.000 A 
ATOM     26  C   UNL     1       0.415  10.776  19.481  0.00  0.00    +0.000 A 
ATOM     27  C   UNL     1      -0.317  11.346  20.519  0.00  0.00    +0.000 A 
ATOM     28  C   UNL     1      -0.484  10.651  21.715  0.00  0.00    +0.000 A 
ATOM     29  C   UNL     1       0.090   9.387  21.877  0.00  0.00    +0.000 A 
ENDBRANCH  23  24
ENDBRANCH   4  23
TORSDOF 7
ENDMDL
MODEL 8
REMARK VINA RESULT:      -8.0      4.214      6.792
REMARK  Name = 
REMARK  7 active torsions:
REMARK  status: ('A' for Active; 'I' for Inactive)
REMARK    1  A    between atoms: N_6  and  C_7
REMARK    2  A    between atoms: C_7  and  C_8
REMARK    3  A    between atoms: C_8  and  C_9
REMARK    4  A    between atoms: C_9  and  N_10
REMARK    5  A    between atoms: N_10  and  C_11
REMARK    6  A    between atoms: N_14  and  C_15
REMARK    7  A    between atoms: C_15  and  C_16
REMARK                            x       y       z     vdW  Elec       q    Type
REMARK                         _______ _______ _______ _____ _____    ______ ____
ROOT
ATOM      1  C   UNL     1       4.710   5.057  18.671  0.00  0.00    +0.000 A 
ATOM      2  N   UNL     1       4.416   6.358  18.388  0.00  0.00    +0.000 NA
ATOM      3  C   UNL     1       3.181   6.719  18.005  0.00  0.00    +0.000 A 
ATOM      4  N   UNL     1       2.961   8.077  17.787  0.00  0.00    +0.000 N 
ATOM      5  N   UNL     1       2.168   5.878  17.830  0.00  0.00    +0.000 NA
ATOM      6  C   UNL     1       2.421   4.582  18.092  0.00  0.00    +0.000 A 
ATOM      7  C   UNL     1       1.455   3.543  17.945  0.00  0.00    +0.000 A 
ATOM      8  C   UNL     1       1.956   2.310  18.278  0.00  0.00    +0.000 A 
ATOM      9  S   UNL     1       3.572   2.413  18.784  0.00  0.00    +0.000 S 
ATOM     10  C   UNL     1       3.660   4.125  18.530  0.00  0.00    +0.000 A 
ATOM     11  H   UNL     1       3.655   8.594  18.312  0.00  0.00    +0.000 HD
ENDROOT
BRANCH   1  12
ATOM     12  N   UNL     1       6.027   4.812  19.079  0.00  0.00    +0.000 N 
ATOM     13  H   UNL     1       6.198   5.303  19.954  0.00  0.00    +0.000 HD
BRANCH  12  14
ATOM     14  C   UNL     1       7.097   4.807  18.098  0.00  0.00    +0.000 C 
BRANCH  14  15
ATOM     15  C   UNL     1       6.662   4.315  16.725  0.00  0.00    +0.000 C 
BRANCH  15  16
ATOM     16  C   UNL     1       7.229   5.273  15.670  0.00  0.00    +0.000 C 
BRANCH  16  22
ATOM     17  O   UNL     1       8.733   5.945  13.228  0.00  0.00    +0.000 OA
ATOM     18  C   UNL     1       7.782   5.181  13.228  0.00  0.00    +0.000 C 
ATOM     19  C   UNL     1       7.166   4.548  12.006  0.00  0.00    +0.000 C 
ATOM     20  C   UNL     1       6.306   3.433  12.592  0.00  0.00    +0.000 C 
ATOM     21  C   UNL     1       5.911   3.958  13.956  0.00  0.00    +0.000 C 
ATOM     22  N   UNL     1       7.030   4.787  14.323  0.00  0.00    +0.000 N 
ENDBRANCH  16  22
ENDBRANCH  15  16
ENDBRANCH  14  15
ENDBRANCH  12  14
ENDBRANCH   1  12
BRANCH   4  23
ATOM     23  C   UNL     1       1.583   8.497  17.984  0.00  0.00    +0.000 C 
BRANCH  23  24
ATOM     24  C   UNL     1       1.365   8.984  19.402  0.00  0.00    +0.000 A 
ATOM     25  C   UNL     1       0.947  10.302  19.639  0.00  0.00    +0.000 A 
ATOM     26  C   UNL     1       0.704  10.750  20.940  0.00  0.00    +0.000 A 
ATOM     27  C   UNL     1       0.869   9.884  22.018  0.00  0.00    +0.000 A 
ATOM     28  C   UNL     1       1.269   8.568  21.796  0.00  0.00    +0.000 A 
ATOM     29  C   UNL     1       1.514   8.118  20.496  0.00  0.00    +0.000 A 
ENDBRANCH  23  24
ENDBRANCH   4  23
TORSDOF 7
ENDMDL
MODEL 9
REMARK VINA RESULT:      -8.0      4.489      7.531
REMARK  Name = 
REMARK  7 active torsions:
REMARK  status: ('A' for Active; 'I' for Inactive)
REMARK    1  A    between atoms: N_6  and  C_7
REMARK    2  A    between atoms: C_7  and  C_8
REMARK    3  A    between atoms: C_8  and  C_9
REMARK    4  A    between atoms: C_9  and  N_10
REMARK    5  A    between atoms: N_10  and  C_11
REMARK    6  A    between atoms: N_14  and  C_15
REMARK    7  A    between atoms: C_15  and  C_16
REMARK                            x       y       z     vdW  Elec       q    Type
REMARK                         _______ _______ _______ _____ _____    ______ ____
ROOT
ATOM      1  C   UNL     1       3.466   5.142  18.424  0.00  0.00    +0.000 A 
ATOM      2  N   UNL     1       3.169   6.403  18.848  0.00  0.00    +0.000 NA
ATOM      3  C   UNL     1       2.270   6.608  19.824  0.00  0.00    +0.000 A 
ATOM      4  N   UNL     1       2.069   7.926  20.228  0.00  0.00    +0.000 N 
ATOM      5  N   UNL     1       1.574   5.650  20.425  0.00  0.00    +0.000 NA
ATOM      6  C   UNL     1       1.833   4.391  20.027  0.00  0.00    +0.000 A 
ATOM      7  C   UNL     1       1.171   3.242  20.554  0.00  0.00    +0.000 A 
ATOM      8  C   UNL     1       1.615   2.074  19.989  0.00  0.00    +0.000 A 
ATOM      9  S   UNL     1       2.836   2.363  18.847  0.00  0.00    +0.000 S 
ATOM     10  C   UNL     1       2.775   4.083  19.050  0.00  0.00    +0.000 A 
ATOM     11  H   UNL     1       2.896   8.457  19.986  0.00  0.00    +0.000 HD
ENDROOT
BRANCH   1  12
ATOM     12  N   UNL     1       4.434   5.059  17.415  0.00  0.00    +0.000 N 
ATOM     13  H   UNL     1       3.975   4.835  16.534  0.00  0.00    +0.000 HD
BRANCH  12  14
ATOM     14  C   UNL     1       5.705   4.413  17.687  0.00  0.00    +0.000 C 
BRANCH  14  15
ATOM     15  C   UNL     1       6.788   4.748  16.671  0.00  0.00    +0.000 C 
BRANCH  15  16
ATOM     16  C   UNL     1       6.135   5.489  15.499  0.00  0.00    +0.000 C 
BRANCH  16  22
ATOM     17  O   UNL     1       8.407   5.775  13.645  0.00  0.00    +0.000 OA
ATOM     18  C   UNL     1       7.458   5.043  13.418  0.00  0.00    +0.000 C 
ATOM     19  C   UNL     1       7.240   4.259  12.149  0.00  0.00    +0.000 C 
ATOM     20  C   UNL     1       6.159   3.258  12.543  0.00  0.00    +0.000 C 
ATOM     21  C   UNL     1       5.372   3.978  13.618  0.00  0.00    +0.000 C 
ATOM     22  N   UNL     1       6.360   4.823  14.235  0.00  0.00    +0.000 N 
ENDBRANCH  16  22
ENDBRANCH  15  16
ENDBRANCH  14  15
ENDBRANCH  12  14
ENDBRANCH   1  12
BRANCH   4  23
ATOM     23  C   UNL     1       1.614   8.066  21.603  0.00  0.00    +0.000 C 
BRANCH  23  24
ATOM     24  C   UNL     1       0.671   9.243  21.742  0.00  0.00    +0.000 A 
ATOM     25  C   UNL     1       0.434  10.092  20.650  0.00  0.00    +0.000 A 
ATOM     26  C   UNL     1      -0.463  11.156  20.755  0.00  0.00    +0.000 A 
ATOM     27  C   UNL     1      -1.141  11.382  21.951  0.00  0.00    +0.000 A 
ATOM     28  C   UNL     1      -0.927  10.538  23.040  0.00  0.00    +0.000 A 
ATOM     29  C   UNL     1      -0.028   9.473  22.937  0.00  0.00    +0.000 A 
ENDBRANCH  23  24
ENDBRANCH   4  23
TORSDOF 7
ENDMDL
