MODEL 1
REMARK VINA RESULT:      -7.5      0.000      0.000
REMARK  Name = 
REMARK  8 active torsions:
REMARK  status: ('A' for Active; 'I' for Inactive)
REMARK    1  A    between atoms: C_1  and  N_2
REMARK    2  A    between atoms: N_2  and  C_3
REMARK    3  A    between atoms: N_2  and  C_4
REMARK    4  A    between atoms: C_4  and  C_5
REMARK    5  A    between atoms: C_5  and  C_6
REMARK    6  A    between atoms: C_6  and  N_7
REMARK    7  A    between atoms: N_7  and  C_8
REMARK    8  A    between atoms: C_12  and  O_13
REMARK                            x       y       z     vdW  Elec       q    Type
REMARK                         _______ _______ _______ _____ _____    ______ ____
ROOT
ATOM      1  C   UNL     1       2.136   6.409  19.519  0.00  0.00    +0.000 A 
ATOM      2  N   UNL     1       1.338   5.465  20.011  0.00  0.00    +0.000 NA
ATOM      3  C   UNL     1       1.613   4.193  19.727  0.00  0.00    +0.000 A 
ATOM      4  C   UNL     1       0.799   3.287  20.323  0.00  0.00    +0.000 A 
ATOM      5  C   UNL     1       1.526   2.524  21.187  0.00  0.00    +0.000 A 
ATOM      6  C   UNL     1       2.698   1.947  20.723  0.00  0.00    +0.000 A 
ATOM      7  C   UNL     1       3.271   2.481  19.543  0.00  0.00    +0.000 A 
ATOM      8  C   UNL     1       2.784   3.748  19.079  0.00  0.00    +0.000 A 
ATOM      9  C   UNL     1       3.365   4.728  18.246  0.00  0.00    +0.000 A 
ATOM     10  C   UNL     1       2.995   6.066  18.510  0.00  0.00    +0.000 A 
ATOM     11  C   UNL     1       3.751   6.971  17.640  0.00  0.00    +0.000 C 
ATOM     12  O   UNL     1       3.684   8.173  17.580  0.00  0.00    +0.000 OA
ATOM     13  C   UNL     1       4.552   6.105  16.773  0.00  0.00    +0.000 A 
ATOM     14  C   UNL     1       5.288   6.535  15.684  0.00  0.00    +0.000 A 
ATOM     15  C   UNL     1       5.888   5.549  14.917  0.00  0.00    +0.000 A 
ATOM     16  C   UNL     1       5.748   4.192  15.279  0.00  0.00    +0.000 A 
ATOM     17  C   UNL     1       4.982   3.792  16.402  0.00  0.00    +0.000 A 
ATOM     18  C   UNL     1       4.353   4.762  17.159  0.00  0.00    +0.000 A 
ENDROOT
BRANCH   1  19
ATOM     19  N   UNL     1       2.194   7.639  20.143  0.00  0.00    +0.000 N 
ATOM     20  H   UNL     1       2.442   8.409  19.531  0.00  0.00    +0.000 HD
BRANCH  19  21
ATOM     21  C   UNL     1       1.262   7.870  21.238  0.00  0.00    +0.000 C 
BRANCH  21  22
ATOM     22  C   UNL     1       0.957   9.365  21.309  0.00  0.00    +0.000 C 
BRANCH  22  23
ATOM     23  C   UNL     1      -0.154   9.798  20.343  0.00  0.00    +0.000 C 
BRANCH  23  25
ATOM     24  C   UNL     1      -0.866  10.216  18.046  0.00  0.00    +0.000 C 
ATOM     25  N   UNL     1       0.259   9.901  18.931  0.00  0.00    +0.000 NA
ATOM     26  C   UNL     1       1.301  10.920  18.780  0.00  0.00    +0.000 C 
ENDBRANCH  23  25
ENDBRANCH  22  23
ENDBRANCH  21  22
ENDBRANCH  19  21
ENDBRANCH   1  19
BRANCH   5  27
ATOM     27  O   UNL     1       1.342   2.736  22.530  0.00  0.00    +0.000 OA
ATOM     28  H   UNL     1       0.515   3.255  22.607  0.00  0.00    +0.000 HD
ENDBRANCH   5  27
TORSDOF 6
ENDMDL
MODEL 2
REMARK VINA RESULT:      -7.4      1.154      1.541
REMARK  Name = 
REMARK  8 active torsions:
REMARK  status: ('A' for Active; 'I' for Inactive)
REMARK    1  A    between atoms: C_1  and  N_2
REMARK    2  A    between atoms: N_2  and  C_3
REMARK    3  A    between atoms: N_2  and  C_4
REMARK    4  A    between atoms: C_4  and  C_5
REMARK    5  A    between atoms: C_5  and  C_6
REMARK    6  A    between atoms: C_6  and  N_7
REMARK    7  A    between atoms: N_7  and  C_8
REMARK    8  A    between atoms: C_12  and  O_13
REMARK                            x       y       z     vdW  Elec       q    Type
REMARK                         _______ _______ _______ _____ _____    ______ ____
ROOT
ATOM      1  C   UNL     1       2.092   6.350  19.499  0.00  0.00    +0.000 A 
ATOM      2  N   UNL     1       1.318   5.382  19.985  0.00  0.00    +0.000 NA
ATOM      3  C   UNL     1       1.638   4.119  19.707  0.00  0.00    +0.000 A 
ATOM      4  C   UNL     1       0.844   3.189  20.296  0.00  0.00    +0.000 A 
ATOM      5  C   UNL     1       1.585   2.452  21.173  0.00  0.00    +0.000 A 
ATOM      6  C   UNL     1       2.780   1.911  20.725  0.00  0.00    +0.000 A 
ATOM      7  C   UNL     1       3.351   2.459  19.551  0.00  0.00    +0.000 A 
ATOM      8  C   UNL     1       2.830   3.709  19.077  0.00  0.00    +0.000 A 
ATOM      9  C   UNL     1       3.391   4.705  18.247  0.00  0.00    +0.000 A 
ATOM     10  C   UNL     1       2.975   6.031  18.502  0.00  0.00    +0.000 A 
ATOM     11  C   UNL     1       3.713   6.957  17.639  0.00  0.00    +0.000 C 
ATOM     12  O   UNL     1       3.609   8.156  17.574  0.00  0.00    +0.000 OA
ATOM     13  C   UNL     1       4.553   6.114  16.786  0.00  0.00    +0.000 A 
ATOM     14  C   UNL     1       5.288   6.565  15.705  0.00  0.00    +0.000 A 
ATOM     15  C   UNL     1       5.929   5.596  14.949  0.00  0.00    +0.000 A 
ATOM     16  C   UNL     1       5.827   4.236  15.314  0.00  0.00    +0.000 A 
ATOM     17  C   UNL     1       5.060   3.815  16.428  0.00  0.00    +0.000 A 
ATOM     18  C   UNL     1       4.390   4.767  17.174  0.00  0.00    +0.000 A 
ENDROOT
BRANCH   1  19
ATOM     19  N   UNL     1       2.103   7.583  20.120  0.00  0.00    +0.000 N 
ATOM     20  H   UNL     1       2.293   8.362  19.501  0.00  0.00    +0.000 HD
BRANCH  19  21
ATOM     21  C   UNL     1       1.191   7.768  21.240  0.00  0.00    +0.000 C 
BRANCH  21  22
ATOM     22  C   UNL     1       0.682   9.208  21.220  0.00  0.00    +0.000 C 
BRANCH  22  23
ATOM     23  C   UNL     1       0.340   9.743  22.617  0.00  0.00    +0.000 C 
BRANCH  23  25
ATOM     24  C   UNL     1       0.195  11.849  21.390  0.00  0.00    +0.000 C 
ATOM     25  N   UNL     1      -0.075  11.158  22.654  0.00  0.00    +0.000 NA
ATOM     26  C   UNL     1      -1.502  11.260  22.973  0.00  0.00    +0.000 C 
ENDBRANCH  23  25
ENDBRANCH  22  23
ENDBRANCH  21  22
ENDBRANCH  19  21
ENDBRANCH   1  19
BRANCH   5  27
ATOM     27  O   UNL     1       1.376   2.662  22.512  0.00  0.00    +0.000 OA
ATOM     28  H   UNL     1       0.816   3.464  22.572  0.00  0.00    +0.000 HD
ENDBRANCH   5  27
TORSDOF 6
ENDMDL
MODEL 3
REMARK VINA RESULT:      -7.2      2.228      5.519
REMARK  Name = 
REMARK  8 active torsions:
REMARK  status: ('A' for Active; 'I' for Inactive)
REMARK    1  A    between atoms: C_1  and  N_2
REMARK    2  A    between atoms: N_2  and  C_3
REMARK    3  A    between atoms: N_2  and  C_4
REMARK    4  A    between atoms: C_4  and  C_5
REMARK    5  A    between atoms: C_5  and  C_6
REMARK    6  A    between atoms: C_6  and  N_7
REMARK    7  A    between atoms: N_7  and  C_8
REMARK    8  A    between atoms: C_12  and  O_13
REMARK                            x       y       z     vdW  Elec       q    Type
REMARK                         _______ _______ _______ _____ _____    ______ ____
ROOT
ATOM      1  C   UNL     1       3.946   5.215  17.716  0.00  0.00    +0.000 A 
ATOM      2  N   UNL     1       4.022   4.184  18.554  0.00  0.00    +0.000 NA
ATOM      3  C   UNL     1       3.210   4.168  19.610  0.00  0.00    +0.000 A 
ATOM      4  C   UNL     1       3.296   3.051  20.377  0.00  0.00    +0.000 A 
ATOM      5  C   UNL     1       2.111   2.379  20.331  0.00  0.00    +0.000 A 
ATOM      6  C   UNL     1       0.946   3.090  20.573  0.00  0.00    +0.000 A 
ATOM      7  C   UNL     1       1.002   4.501  20.463  0.00  0.00    +0.000 A 
ATOM      8  C   UNL     1       2.154   5.075  19.829  0.00  0.00    +0.000 A 
ATOM      9  C   UNL     1       2.353   6.322  19.197  0.00  0.00    +0.000 A 
ATOM     10  C   UNL     1       3.281   6.337  18.132  0.00  0.00    +0.000 A 
ATOM     11  C   UNL     1       3.304   7.665  17.512  0.00  0.00    +0.000 C 
ATOM     12  O   UNL     1       3.983   8.044  16.591  0.00  0.00    +0.000 OA
ATOM     13  C   UNL     1       2.390   8.486  18.309  0.00  0.00    +0.000 A 
ATOM     14  C   UNL     1       2.238   9.855  18.181  0.00  0.00    +0.000 A 
ATOM     15  C   UNL     1       1.409  10.472  19.104  0.00  0.00    +0.000 A 
ATOM     16  C   UNL     1       0.757   9.701  20.090  0.00  0.00    +0.000 A 
ATOM     17  C   UNL     1       0.941   8.300  20.190  0.00  0.00    +0.000 A 
ATOM     18  C   UNL     1       1.789   7.675  19.295  0.00  0.00    +0.000 A 
ENDROOT
BRANCH   1  19
ATOM     19  N   UNL     1       4.384   5.063  16.415  0.00  0.00    +0.000 N 
ATOM     20  H   UNL     1       4.497   5.933  15.907  0.00  0.00    +0.000 HD
BRANCH  19  21
ATOM     21  C   UNL     1       5.289   3.956  16.147  0.00  0.00    +0.000 C 
BRANCH  21  22
ATOM     22  C   UNL     1       6.692   4.519  15.922  0.00  0.00    +0.000 C 
BRANCH  22  23
ATOM     23  C   UNL     1       7.499   4.654  17.220  0.00  0.00    +0.000 C 
BRANCH  23  25
ATOM     24  C   UNL     1       7.792   5.765  19.374  0.00  0.00    +0.000 C 
ATOM     25  N   UNL     1       7.109   5.789  18.077  0.00  0.00    +0.000 NA
ATOM     26  C   UNL     1       7.389   7.057  17.399  0.00  0.00    +0.000 C 
ENDBRANCH  23  25
ENDBRANCH  22  23
ENDBRANCH  21  22
ENDBRANCH  19  21
ENDBRANCH   1  19
BRANCH   5  27
ATOM     27  O   UNL     1       2.074   1.207  19.619  0.00  0.00    +0.000 OA
ATOM     28  H   UNL     1       1.125   1.014  19.472  0.00  0.00    +0.000 HD
ENDBRANCH   5  27
TORSDOF 6
ENDMDL
MODEL 4
REMARK VINA RESULT:      -7.1      0.692      1.100
REMARK  Name = 
REMARK  8 active torsions:
REMARK  status: ('A' for Active; 'I' for Inactive)
REMARK    1  A    between atoms: C_1  and  N_2
REMARK    2  A    between atoms: N_2  and  C_3
REMARK    3  A    between atoms: N_2  and  C_4
REMARK    4  A    between atoms: C_4  and  C_5
REMARK    5  A    between atoms: C_5  and  C_6
REMARK    6  A    between atoms: C_6  and  N_7
REMARK    7  A    between atoms: N_7  and  C_8
REMARK    8  A    between atoms: C_12  and  O_13
REMARK                            x       y       z     vdW  Elec       q    Type
REMARK                         _______ _______ _______ _____ _____    ______ ____
ROOT
ATOM      1  C   UNL     1       2.314   6.391  19.490  0.00  0.00    +0.000 A 
ATOM      2  N   UNL     1       1.479   5.484  19.993  0.00  0.00    +0.000 NA
ATOM      3  C   UNL     1       1.690   4.201  19.702  0.00  0.00    +0.000 A 
ATOM      4  C   UNL     1       0.842   3.333  20.309  0.00  0.00    +0.000 A 
ATOM      5  C   UNL     1       1.546   2.535  21.162  0.00  0.00    +0.000 A 
ATOM      6  C   UNL     1       2.682   1.904  20.678  0.00  0.00    +0.000 A 
ATOM      7  C   UNL     1       3.261   2.413  19.491  0.00  0.00    +0.000 A 
ATOM      8  C   UNL     1       2.828   3.702  19.037  0.00  0.00    +0.000 A 
ATOM      9  C   UNL     1       3.442   4.656  18.196  0.00  0.00    +0.000 A 
ATOM     10  C   UNL     1       3.140   6.010  18.467  0.00  0.00    +0.000 A 
ATOM     11  C   UNL     1       3.925   6.880  17.587  0.00  0.00    +0.000 C 
ATOM     12  O   UNL     1       3.914   8.084  17.530  0.00  0.00    +0.000 OA
ATOM     13  C   UNL     1       4.671   5.979  16.707  0.00  0.00    +0.000 A 
ATOM     14  C   UNL     1       5.409   6.376  15.608  0.00  0.00    +0.000 A 
ATOM     15  C   UNL     1       5.950   5.365  14.830  0.00  0.00    +0.000 A 
ATOM     16  C   UNL     1       5.751   4.015  15.192  0.00  0.00    +0.000 A 
ATOM     17  C   UNL     1       4.984   3.649  16.326  0.00  0.00    +0.000 A 
ATOM     18  C   UNL     1       4.413   4.646  17.094  0.00  0.00    +0.000 A 
ENDROOT
BRANCH   1  19
ATOM     19  N   UNL     1       2.439   7.615  20.116  0.00  0.00    +0.000 N 
ATOM     20  H   UNL     1       3.367   8.020  20.061  0.00  0.00    +0.000 HD
BRANCH  19  21
ATOM     21  C   UNL     1       1.276   8.490  20.097  0.00  0.00    +0.000 C 
BRANCH  21  22
ATOM     22  C   UNL     1       1.311   9.318  18.813  0.00  0.00    +0.000 C 
BRANCH  22  23
ATOM     23  C   UNL     1       0.525  10.631  18.924  0.00  0.00    +0.000 C 
BRANCH  23  25
ATOM     24  C   UNL     1      -1.110  11.529  20.499  0.00  0.00    +0.000 C 
ATOM     25  N   UNL     1      -0.827  10.497  19.498  0.00  0.00    +0.000 NA
ATOM     26  C   UNL     1      -1.837  10.553  18.437  0.00  0.00    +0.000 C 
ENDBRANCH  23  25
ENDBRANCH  22  23
ENDBRANCH  21  22
ENDBRANCH  19  21
ENDBRANCH   1  19
BRANCH   5  27
ATOM     27  O   UNL     1       1.392   2.752  22.507  0.00  0.00    +0.000 OA
ATOM     28  H   UNL     1       0.425   2.795  22.662  0.00  0.00    +0.000 HD
ENDBRANCH   5  27
TORSDOF 6
ENDMDL
MODEL 5
REMARK VINA RESULT:      -7.1      2.601      6.755
REMARK  Name = 
REMARK  8 active torsions:
REMARK  status: ('A' for Active; 'I' for Inactive)
REMARK    1  A    between atoms: C_1  and  N_2
REMARK    2  A    between atoms: N_2  and  C_3
REMARK    3  A    between atoms: N_2  and  C_4
REMARK    4  A    between atoms: C_4  and  C_5
REMARK    5  A    between atoms: C_5  and  C_6
REMARK    6  A    between atoms: C_6  and  N_7
REMARK    7  A    between atoms: N_7  and  C_8
REMARK    8  A    between atoms: C_12  and  O_13
REMARK                            x       y       z     vdW  Elec       q    Type
REMARK                         _______ _______ _______ _____ _____    ______ ____
ROOT
ATOM      1  C   UNL     1       3.970   6.870  17.414  0.00  0.00    +0.000 A 
ATOM      2  N   UNL     1       3.112   7.855  17.159  0.00  0.00    +0.000 NA
ATOM      3  C   UNL     1       2.115   8.062  18.017  0.00  0.00    +0.000 A 
ATOM      4  C   UNL     1       1.326   9.127  17.727  0.00  0.00    +0.000 A 
ATOM      5  C   UNL     1       1.443  10.060  18.714  0.00  0.00    +0.000 A 
ATOM      6  C   UNL     1       1.295   9.643  20.028  0.00  0.00    +0.000 A 
ATOM      7  C   UNL     1       1.423   8.258  20.297  0.00  0.00    +0.000 A 
ATOM      8  C   UNL     1       1.985   7.429  19.270  0.00  0.00    +0.000 A 
ATOM      9  C   UNL     1       2.622   6.170  19.325  0.00  0.00    +0.000 A 
ATOM     10  C   UNL     1       3.620   5.936  18.352  0.00  0.00    +0.000 A 
ATOM     11  C   UNL     1       4.258   4.640  18.597  0.00  0.00    +0.000 C 
ATOM     12  O   UNL     1       5.136   4.111  17.962  0.00  0.00    +0.000 OA
ATOM     13  C   UNL     1       3.541   4.057  19.733  0.00  0.00    +0.000 A 
ATOM     14  C   UNL     1       3.702   2.763  20.192  0.00  0.00    +0.000 A 
ATOM     15  C   UNL     1       2.849   2.359  21.207  0.00  0.00    +0.000 A 
ATOM     16  C   UNL     1       1.898   3.261  21.729  0.00  0.00    +0.000 A 
ATOM     17  C   UNL     1       1.763   4.580  21.228  0.00  0.00    +0.000 A 
ATOM     18  C   UNL     1       2.586   4.988  20.195  0.00  0.00    +0.000 A 
ENDROOT
BRANCH   1  19
ATOM     19  N   UNL     1       5.235   6.915  16.861  0.00  0.00    +0.000 N 
ATOM     20  H   UNL     1       5.977   6.628  17.490  0.00  0.00    +0.000 HD
BRANCH  19  21
ATOM     21  C   UNL     1       5.347   6.617  15.441  0.00  0.00    +0.000 C 
BRANCH  21  22
ATOM     22  C   UNL     1       6.280   5.419  15.268  0.00  0.00    +0.000 C 
BRANCH  22  23
ATOM     23  C   UNL     1       5.654   4.285  14.446  0.00  0.00    +0.000 C 
BRANCH  23  25
ATOM     24  C   UNL     1       5.690   3.291  12.216  0.00  0.00    +0.000 C 
ATOM     25  N   UNL     1       6.491   3.787  13.338  0.00  0.00    +0.000 NA
ATOM     26  C   UNL     1       7.392   4.844  12.869  0.00  0.00    +0.000 C 
ENDBRANCH  23  25
ENDBRANCH  22  23
ENDBRANCH  21  22
ENDBRANCH  19  21
ENDBRANCH   1  19
BRANCH   5  27
ATOM     27  O   UNL     1       2.136  11.207  18.425  0.00  0.00    +0.000 OA
ATOM     28  H   UNL     1       3.084  10.975  18.512  0.00  0.00    +0.000 HD
ENDBRANCH   5  27
TORSDOF 6
ENDMDL
MODEL 6
REMARK VINA RESULT:      -7.0      2.285      5.759
REMARK  Name = 
REMARK  8 active torsions:
REMARK  status: ('A' for Active; 'I' for Inactive)
REMARK    1  A    between atoms: C_1  and  N_2
REMARK    2  A    between atoms: N_2  and  C_3
REMARK    3  A    between atoms: N_2  and  C_4
REMARK    4  A    between atoms: C_4  and  C_5
REMARK    5  A    between atoms: C_5  and  C_6
REMARK    6  A    between atoms: C_6  and  N_7
REMARK    7  A    between atoms: N_7  and  C_8
REMARK    8  A    between atoms: C_12  and  O_13
REMARK                            x       y       z     vdW  Elec       q    Type
REMARK                         _______ _______ _______ _____ _____    ______ ____
ROOT
ATOM      1  C   UNL     1       3.446   6.242  18.066  0.00  0.00    +0.000 A 
ATOM      2  N   UNL     1       3.841   5.062  18.539  0.00  0.00    +0.000 NA
ATOM      3  C   UNL     1       3.214   4.566  19.604  0.00  0.00    +0.000 A 
ATOM      4  C   UNL     1       3.625   3.330  19.982  0.00  0.00    +0.000 A 
ATOM      5  C   UNL     1       2.597   2.446  19.833  0.00  0.00    +0.000 A 
ATOM      6  C   UNL     1       1.366   2.777  20.378  0.00  0.00    +0.000 A 
ATOM      7  C   UNL     1       1.134   4.136  20.700  0.00  0.00    +0.000 A 
ATOM      8  C   UNL     1       2.047   5.111  20.178  0.00  0.00    +0.000 A 
ATOM      9  C   UNL     1       1.906   6.496  19.943  0.00  0.00    +0.000 A 
ATOM     10  C   UNL     1       2.647   7.020  18.859  0.00  0.00    +0.000 A 
ATOM     11  C   UNL     1       2.323   8.438  18.675  0.00  0.00    +0.000 C 
ATOM     12  O   UNL     1       2.772   9.204  17.861  0.00  0.00    +0.000 OA
ATOM     13  C   UNL     1       1.396   8.772  19.759  0.00  0.00    +0.000 A 
ATOM     14  C   UNL     1       0.967  10.050  20.068  0.00  0.00    +0.000 A 
ATOM     15  C   UNL     1       0.180  10.178  21.202  0.00  0.00    +0.000 A 
ATOM     16  C   UNL     1      -0.159   9.034  21.957  0.00  0.00    +0.000 A 
ATOM     17  C   UNL     1       0.304   7.742  21.607  0.00  0.00    +0.000 A 
ATOM     18  C   UNL     1       1.115   7.602  20.496  0.00  0.00    +0.000 A 
ENDROOT
BRANCH   1  19
ATOM     19  N   UNL     1       3.707   6.564  16.748  0.00  0.00    +0.000 N 
ATOM     20  H   UNL     1       3.126   7.307  16.376  0.00  0.00    +0.000 HD
BRANCH  19  21
ATOM     21  C   UNL     1       5.086   6.441  16.298  0.00  0.00    +0.000 C 
BRANCH  21  22
ATOM     22  C   UNL     1       5.944   7.429  17.086  0.00  0.00    +0.000 C 
BRANCH  22  23
ATOM     23  C   UNL     1       7.291   6.839  17.523  0.00  0.00    +0.000 C 
BRANCH  23  25
ATOM     24  C   UNL     1       7.713   4.434  17.550  0.00  0.00    +0.000 C 
ATOM     25  N   UNL     1       7.198   5.586  18.295  0.00  0.00    +0.000 NA
ATOM     26  C   UNL     1       7.924   5.715  19.562  0.00  0.00    +0.000 C 
ENDBRANCH  23  25
ENDBRANCH  22  23
ENDBRANCH  21  22
ENDBRANCH  19  21
ENDBRANCH   1  19
BRANCH   5  27
ATOM     27  O   UNL     1       2.681   1.545  18.803  0.00  0.00    +0.000 OA
ATOM     28  H   UNL     1       3.570   1.140  18.874  0.00  0.00    +0.000 HD
ENDBRANCH   5  27
TORSDOF 6
ENDMDL
MODEL 7
REMARK VINA RESULT:      -7.0      4.082      5.800
REMARK  Name = 
REMARK  8 active torsions:
REMARK  status: ('A' for Active; 'I' for Inactive)
REMARK    1  A    between atoms: C_1  and  N_2
REMARK    2  A    between atoms: N_2  and  C_3
REMARK    3  A    between atoms: N_2  and  C_4
REMARK    4  A    between atoms: C_4  and  C_5
REMARK    5  A    between atoms: C_5  and  C_6
REMARK    6  A    between atoms: C_6  and  N_7
REMARK    7  A    between atoms: N_7  and  C_8
REMARK    8  A    between atoms: C_12  and  O_13
REMARK                            x       y       z     vdW  Elec       q    Type
REMARK                         _______ _______ _______ _____ _____    ______ ____
ROOT
ATOM      1  C   UNL     1       6.639   6.350  16.591  0.00  0.00    +0.000 A 
ATOM      2  N   UNL     1       5.573   6.632  17.336  0.00  0.00    +0.000 NA
ATOM      3  C   UNL     1       4.463   5.920  17.147  0.00  0.00    +0.000 A 
ATOM      4  C   UNL     1       3.445   6.218  17.992  0.00  0.00    +0.000 A 
ATOM      5  C   UNL     1       3.174   5.134  18.773  0.00  0.00    +0.000 A 
ATOM      6  C   UNL     1       2.995   3.908  18.151  0.00  0.00    +0.000 A 
ATOM      7  C   UNL     1       3.479   3.766  16.828  0.00  0.00    +0.000 A 
ATOM      8  C   UNL     1       4.371   4.773  16.332  0.00  0.00    +0.000 A 
ATOM      9  C   UNL     1       5.329   4.750  15.294  0.00  0.00    +0.000 A 
ATOM     10  C   UNL     1       6.460   5.577  15.475  0.00  0.00    +0.000 A 
ATOM     11  C   UNL     1       7.407   5.370  14.376  0.00  0.00    +0.000 C 
ATOM     12  O   UNL     1       8.467   5.914  14.196  0.00  0.00    +0.000 OA
ATOM     13  C   UNL     1       6.755   4.423  13.469  0.00  0.00    +0.000 A 
ATOM     14  C   UNL     1       7.221   4.079  12.214  0.00  0.00    +0.000 A 
ATOM     15  C   UNL     1       6.404   3.254  11.457  0.00  0.00    +0.000 A 
ATOM     16  C   UNL     1       5.180   2.794  11.990  0.00  0.00    +0.000 A 
ATOM     17  C   UNL     1       4.737   3.173  13.282  0.00  0.00    +0.000 A 
ATOM     18  C   UNL     1       5.527   4.020  14.036  0.00  0.00    +0.000 A 
ENDROOT
BRANCH   1  19
ATOM     19  N   UNL     1       7.896   6.695  17.049  0.00  0.00    +0.000 N 
ATOM     20  H   UNL     1       8.595   6.791  16.322  0.00  0.00    +0.000 HD
BRANCH  19  21
ATOM     21  C   UNL     1       7.959   7.558  18.219  0.00  0.00    +0.000 C 
BRANCH  21  22
ATOM     22  C   UNL     1       8.185   8.994  17.752  0.00  0.00    +0.000 C 
BRANCH  22  23
ATOM     23  C   UNL     1       8.935   9.849  18.782  0.00  0.00    +0.000 C 
BRANCH  23  25
ATOM     24  C   UNL     1       8.831  12.107  17.859  0.00  0.00    +0.000 C 
ATOM     25  N   UNL     1       9.696  10.978  18.214  0.00  0.00    +0.000 NA
ATOM     26  C   UNL     1      10.722  11.426  19.160  0.00  0.00    +0.000 C 
ENDBRANCH  23  25
ENDBRANCH  22  23
ENDBRANCH  21  22
ENDBRANCH  19  21
ENDBRANCH   1  19
BRANCH   5  27
ATOM     27  O   UNL     1       3.541   5.196  20.093  0.00  0.00    +0.000 OA
ATOM     28  H   UNL     1       3.024   4.499  20.547  0.00  0.00    +0.000 HD
ENDBRANCH   5  27
TORSDOF 6
ENDMDL
MODEL 8
REMARK VINA RESULT:      -6.8      2.487      6.523
REMARK  Name = 
REMARK  8 active torsions:
REMARK  status: ('A' for Active; 'I' for Inactive)
REMARK    1  A    between atoms: C_1  and  N_2
REMARK    2  A    between atoms: N_2  and  C_3
REMARK    3  A    between atoms: N_2  and  C_4
REMARK    4  A    between atoms: C_4  and  C_5
REMARK    5  A    between atoms: C_5  and  C_6
REMARK    6  A    between atoms: C_6  and  N_7
REMARK    7  A    between atoms: N_7  and  C_8
REMARK    8  A    between atoms: C_12  and  O_13
REMARK                            x       y       z     vdW  Elec       q    Type
REMARK                         _______ _______ _______ _____ _____    ______ ____
ROOT
ATOM      1  C   UNL     1       3.812   6.811  17.188  0.00  0.00    +0.000 A 
ATOM      2  N   UNL     1       2.965   7.814  16.969  0.00  0.00    +0.000 NA
ATOM      3  C   UNL     1       2.042   8.074  17.895  0.00  0.00    +0.000 A 
ATOM      4  C   UNL     1       1.264   9.154  17.634  0.00  0.00    +0.000 A 
ATOM      5  C   UNL     1       1.482  10.108  18.583  0.00  0.00    +0.000 A 
ATOM      6  C   UNL     1       1.423   9.731  19.916  0.00  0.00    +0.000 A 
ATOM      7  C   UNL     1       1.533   8.351  20.213  0.00  0.00    +0.000 A 
ATOM      8  C   UNL     1       1.991   7.478  19.171  0.00  0.00    +0.000 A 
ATOM      9  C   UNL     1       2.595   6.202  19.214  0.00  0.00    +0.000 A 
ATOM     10  C   UNL     1       3.509   5.913  18.176  0.00  0.00    +0.000 A 
ATOM     11  C   UNL     1       4.127   4.605  18.408  0.00  0.00    +0.000 C 
ATOM     12  O   UNL     1       4.938   4.034  17.724  0.00  0.00    +0.000 OA
ATOM     13  C   UNL     1       3.483   4.075  19.611  0.00  0.00    +0.000 A 
ATOM     14  C   UNL     1       3.642   2.789  20.094  0.00  0.00    +0.000 A 
ATOM     15  C   UNL     1       2.858   2.437  21.181  0.00  0.00    +0.000 A 
ATOM     16  C   UNL     1       1.975   3.381  21.748  0.00  0.00    +0.000 A 
ATOM     17  C   UNL     1       1.839   4.690  21.221  0.00  0.00    +0.000 A 
ATOM     18  C   UNL     1       2.592   5.045  20.118  0.00  0.00    +0.000 A 
ENDROOT
BRANCH   1  19
ATOM     19  N   UNL     1       5.032   6.803  16.540  0.00  0.00    +0.000 N 
ATOM     20  H   UNL     1       4.989   7.071  15.563  0.00  0.00    +0.000 HD
BRANCH  19  21
ATOM     21  C   UNL     1       6.202   7.162  17.327  0.00  0.00    +0.000 C 
BRANCH  21  22
ATOM     22  C   UNL     1       7.430   6.501  16.703  0.00  0.00    +0.000 C 
BRANCH  22  23
ATOM     23  C   UNL     1       7.108   5.169  16.012  0.00  0.00    +0.000 C 
BRANCH  23  25
ATOM     24  C   UNL     1       7.754   5.317  13.662  0.00  0.00    +0.000 C 
ATOM     25  N   UNL     1       6.643   5.292  14.617  0.00  0.00    +0.000 NA
ATOM     26  C   UNL     1       5.736   4.189  14.286  0.00  0.00    +0.000 C 
ENDBRANCH  23  25
ENDBRANCH  22  23
ENDBRANCH  21  22
ENDBRANCH  19  21
ENDBRANCH   1  19
BRANCH   5  27
ATOM     27  O   UNL     1       2.183  11.226  18.209  0.00  0.00    +0.000 OA
ATOM     28  H   UNL     1       1.597  11.717  17.597  0.00  0.00    +0.000 HD
ENDBRANCH   5  27
TORSDOF 6
ENDMDL
MODEL 9
REMARK VINA RESULT:      -6.8      2.770      6.175
REMARK  Name = 
REMARK  8 active torsions:
REMARK  status: ('A' for Active; 'I' for Inactive)
REMARK    1  A    between atoms: C_1  and  N_2
REMARK    2  A    between atoms: N_2  and  C_3
REMARK    3  A    between atoms: N_2  and  C_4
REMARK    4  A    between atoms: C_4  and  C_5
REMARK    5  A    between atoms: C_5  and  C_6
REMARK    6  A    between atoms: C_6  and  N_7
REMARK    7  A    between atoms: N_7  and  C_8
REMARK    8  A    between atoms: C_12  and  O_13
REMARK                            x       y       z     vdW  Elec       q    Type
REMARK                         _______ _______ _______ _____ _____    ______ ____
ROOT
ATOM      1  C   UNL     1       4.513   5.479  17.445  0.00  0.00    +0.000 A 
ATOM      2  N   UNL     1       5.007   4.399  18.048  0.00  0.00    +0.000 NA
ATOM      3  C   UNL     1       4.419   3.977  19.166  0.00  0.00    +0.000 A 
ATOM      4  C   UNL     1       4.934   2.832  19.682  0.00  0.00    +0.000 A 
ATOM      5  C   UNL     1       3.986   1.852  19.640  0.00  0.00    +0.000 A 
ATOM      6  C   UNL     1       2.729   2.136  20.151  0.00  0.00    +0.000 A 
ATOM      7  C   UNL     1       2.380   3.498  20.317  0.00  0.00    +0.000 A 
ATOM      8  C   UNL     1       3.208   4.481  19.681  0.00  0.00    +0.000 A 
ATOM      9  C   UNL     1       2.950   5.814  19.289  0.00  0.00    +0.000 A 
ATOM     10  C   UNL     1       3.647   6.272  18.149  0.00  0.00    +0.000 A 
ATOM     11  C   UNL     1       3.203   7.625  17.806  0.00  0.00    +0.000 C 
ATOM     12  O   UNL     1       3.589   8.329  16.906  0.00  0.00    +0.000 OA
ATOM     13  C   UNL     1       2.247   8.001  18.849  0.00  0.00    +0.000 A 
ATOM     14  C   UNL     1       1.708   9.264  19.012  0.00  0.00    +0.000 A 
ATOM     15  C   UNL     1       0.909   9.454  20.129  0.00  0.00    +0.000 A 
ATOM     16  C   UNL     1       0.667   8.379  21.012  0.00  0.00    +0.000 A 
ATOM     17  C   UNL     1       1.240   7.100  20.810  0.00  0.00    +0.000 A 
ATOM     18  C   UNL     1       2.064   6.904  19.717  0.00  0.00    +0.000 A 
ENDROOT
BRANCH   1  19
ATOM     19  N   UNL     1       4.751   5.669  16.098  0.00  0.00    +0.000 N 
ATOM     20  H   UNL     1       4.017   6.170  15.610  0.00  0.00    +0.000 HD
BRANCH  19  21
ATOM     21  C   UNL     1       6.136   5.856  15.690  0.00  0.00    +0.000 C 
BRANCH  21  22
ATOM     22  C   UNL     1       6.583   4.623  14.908  0.00  0.00    +0.000 C 
BRANCH  22  23
ATOM     23  C   UNL     1       5.496   4.079  13.971  0.00  0.00    +0.000 C 
BRANCH  23  25
ATOM     24  C   UNL     1       4.949   3.178  11.769  0.00  0.00    +0.000 C 
ATOM     25  N   UNL     1       6.002   3.399  12.764  0.00  0.00    +0.000 NA
ATOM     26  C   UNL     1       7.090   4.174  12.163  0.00  0.00    +0.000 C 
ENDBRANCH  23  25
ENDBRANCH  22  23
ENDBRANCH  21  22
ENDBRANCH  19  21
ENDBRANCH   1  19
BRANCH   5  27
ATOM     27  O   UNL     1       4.151   0.849  18.720  0.00  0.00    +0.000 OA
ATOM     28  H   UNL     1       3.688   1.150  17.911  0.00  0.00    +0.000 HD
ENDBRANCH   5  27
TORSDOF 6
ENDMDL
