MODEL 1
REMARK VINA RESULT:      -7.8      0.000      0.000
REMARK  Name = 
REMARK  6 active torsions:
REMARK  status: ('A' for Active; 'I' for Inactive)
REMARK    1  A    between atoms: C_1  and  O_2
REMARK    2  A    between atoms: O_2  and  C_3
REMARK    3  A    between atoms: C_10  and  N_11
REMARK    4  A    between atoms: C_12  and  C_13
REMARK    5  A    between atoms: C_18  and  C_19
REMARK    6  A    between atoms: C_21  and  N_22
REMARK                            x       y       z     vdW  Elec       q    Type
REMARK                         _______ _______ _______ _____ _____    ______ ____
ROOT
ATOM      1  N   UNL     1       2.913   6.121  19.152  0.00  0.00    +0.000 N 
ATOM      2  C   UNL     1       2.772   5.040  20.010  0.00  0.00    +0.000 A 
ATOM      3  C   UNL     1       3.406   3.704  19.863  0.00  0.00    +0.000 C 
ATOM      4  N   UNL     1       1.975   5.339  21.020  0.00  0.00    +0.000 NA
ATOM      5  C   UNL     1       1.587   6.631  20.820  0.00  0.00    +0.000 A 
ATOM      6  C   UNL     1       0.749   7.452  21.572  0.00  0.00    +0.000 A 
ATOM      7  C   UNL     1       0.537   8.746  21.092  0.00  0.00    +0.000 A 
ATOM      8  C   UNL     1       1.142   9.173  19.899  0.00  0.00    +0.000 A 
ATOM      9  N   UNL     1       1.983   8.391  19.162  0.00  0.00    +0.000 NA
ATOM     10  C   UNL     1       2.153   7.151  19.667  0.00  0.00    +0.000 A 
ENDROOT
BRANCH   1  18
ATOM     11  C   UNL     1       6.420   4.216  14.644  0.00  0.00    +0.000 A 
ATOM     12  C   UNL     1       7.395   4.971  15.319  0.00  0.00    +0.000 A 
ATOM     13  C   UNL     1       7.064   5.701  16.466  0.00  0.00    +0.000 A 
ATOM     14  C   UNL     1       5.757   5.669  16.918  0.00  0.00    +0.000 A 
ATOM     15  C   UNL     1       4.787   4.914  16.259  0.00  0.00    +0.000 A 
ATOM     16  C   UNL     1       5.106   4.184  15.121  0.00  0.00    +0.000 A 
ATOM     17  C   UNL     1       3.466   4.981  16.966  0.00  0.00    +0.000 C 
ATOM     18  C   UNL     1       3.680   6.180  17.923  0.00  0.00    +0.000 C 
ATOM     19  C   UNL     1       5.202   6.335  18.140  0.00  0.00    +0.000 C 
BRANCH  11  21
ATOM     20  C   UNL     1       5.615   3.491  12.528  0.00  0.00    +0.000 C 
ATOM     21  O   UNL     1       6.641   3.467  13.516  0.00  0.00    +0.000 OA
ENDBRANCH  11  21
ENDBRANCH   1  18
BRANCH   8  22
ATOM     22  C   UNL     1       0.882  10.523  19.354  0.00  0.00    +0.000 A 
ATOM     23  C   UNL     1       1.888  11.265  18.725  0.00  0.00    +0.000 A 
ATOM     24  C   UNL     1       1.598  12.525  18.218  0.00  0.00    +0.000 A 
ATOM     25  N   UNL     1       0.377  13.084  18.294  0.00  0.00    +0.000 NA
ATOM     26  C   UNL     1      -0.598  12.372  18.878  0.00  0.00    +0.000 A 
ATOM     27  N   UNL     1      -1.881  12.916  18.858  0.00  0.00    +0.000 N 
ATOM     28  C   UNL     1      -0.391  11.107  19.409  0.00  0.00    +0.000 A 
ATOM     29  H   UNL     1      -1.811  13.857  18.481  0.00  0.00    +0.000 HD
ATOM     30  H   UNL     1      -2.340  12.885  19.757  0.00  0.00    +0.000 HD
BRANCH  24  31
ATOM     31  N   UNL     1       2.566  13.239  17.515  0.00  0.00    +0.000 N 
ATOM     32  H   UNL     1       3.218  12.645  17.022  0.00  0.00    +0.000 HD
ATOM     33  H   UNL     1       3.014  13.879  18.164  0.00  0.00    +0.000 HD
ENDBRANCH  24  31
ENDBRANCH   8  22
TORSDOF 4
ENDMDL
MODEL 2
REMARK VINA RESULT:      -7.7      0.085      1.501
REMARK  Name = 
REMARK  6 active torsions:
REMARK  status: ('A' for Active; 'I' for Inactive)
REMARK    1  A    between atoms: C_1  and  O_2
REMARK    2  A    between atoms: O_2  and  C_3
REMARK    3  A    between atoms: C_10  and  N_11
REMARK    4  A    between atoms: C_12  and  C_13
REMARK    5  A    between atoms: C_18  and  C_19
REMARK    6  A    between atoms: C_21  and  N_22
REMARK                            x       y       z     vdW  Elec       q    Type
REMARK                         _______ _______ _______ _____ _____    ______ ____
ROOT
ATOM      1  N   UNL     1       2.896   6.129  19.151  0.00  0.00    +0.000 N 
ATOM      2  C   UNL     1       2.764   5.061  20.025  0.00  0.00    +0.000 A 
ATOM      3  C   UNL     1       3.395   3.722  19.890  0.00  0.00    +0.000 C 
ATOM      4  N   UNL     1       1.981   5.375  21.041  0.00  0.00    +0.000 NA
ATOM      5  C   UNL     1       1.591   6.665  20.828  0.00  0.00    +0.000 A 
ATOM      6  C   UNL     1       0.763   7.497  21.579  0.00  0.00    +0.000 A 
ATOM      7  C   UNL     1       0.546   8.784  21.083  0.00  0.00    +0.000 A 
ATOM      8  C   UNL     1       1.137   9.194  19.878  0.00  0.00    +0.000 A 
ATOM      9  N   UNL     1       1.968   8.400  19.141  0.00  0.00    +0.000 NA
ATOM     10  C   UNL     1       2.143   7.167  19.661  0.00  0.00    +0.000 A 
ENDROOT
BRANCH   1  18
ATOM     11  C   UNL     1       6.407   4.180  14.666  0.00  0.00    +0.000 A 
ATOM     12  C   UNL     1       7.367   4.983  15.305  0.00  0.00    +0.000 A 
ATOM     13  C   UNL     1       7.028   5.741  16.432  0.00  0.00    +0.000 A 
ATOM     14  C   UNL     1       5.728   5.686  16.899  0.00  0.00    +0.000 A 
ATOM     15  C   UNL     1       4.772   4.884  16.276  0.00  0.00    +0.000 A 
ATOM     16  C   UNL     1       5.100   4.126  15.159  0.00  0.00    +0.000 A 
ATOM     17  C   UNL     1       3.458   4.936  16.996  0.00  0.00    +0.000 C 
ATOM     18  C   UNL     1       3.648   6.170  17.912  0.00  0.00    +0.000 C 
ATOM     19  C   UNL     1       5.166   6.375  18.106  0.00  0.00    +0.000 C 
BRANCH  11  21
ATOM     20  C   UNL     1       5.662   3.467  12.524  0.00  0.00    +0.000 C 
ATOM     21  O   UNL     1       6.637   3.401  13.560  0.00  0.00    +0.000 OA
ENDBRANCH  11  21
ENDBRANCH   1  18
BRANCH   8  22
ATOM     22  C   UNL     1       0.872  10.536  19.317  0.00  0.00    +0.000 A 
ATOM     23  C   UNL     1      -0.370  11.162  19.471  0.00  0.00    +0.000 A 
ATOM     24  C   UNL     1      -0.574  12.428  18.937  0.00  0.00    +0.000 A 
ATOM     25  N   UNL     1       0.378  13.104  18.269  0.00  0.00    +0.000 NA
ATOM     26  C   UNL     1       1.578  12.521  18.134  0.00  0.00    +0.000 A 
ATOM     27  N   UNL     1       2.586  13.274  17.533  0.00  0.00    +0.000 N 
ATOM     28  C   UNL     1       1.862  11.260  18.638  0.00  0.00    +0.000 A 
ATOM     29  H   UNL     1       2.167  14.133  17.189  0.00  0.00    +0.000 HD
ATOM     30  H   UNL     1       3.088  12.766  16.818  0.00  0.00    +0.000 HD
BRANCH  24  31
ATOM     31  N   UNL     1      -1.775  13.097  19.155  0.00  0.00    +0.000 N 
ATOM     32  H   UNL     1      -2.236  13.376  18.300  0.00  0.00    +0.000 HD
ATOM     33  H   UNL     1      -1.592  13.872  19.785  0.00  0.00    +0.000 HD
ENDBRANCH  24  31
ENDBRANCH   8  22
TORSDOF 4
ENDMDL
MODEL 3
REMARK VINA RESULT:      -7.5      2.946      4.932
REMARK  Name = 
REMARK  6 active torsions:
REMARK  status: ('A' for Active; 'I' for Inactive)
REMARK    1  A    between atoms: C_1  and  O_2
REMARK    2  A    between atoms: O_2  and  C_3
REMARK    3  A    between atoms: C_10  and  N_11
REMARK    4  A    between atoms: C_12  and  C_13
REMARK    5  A    between atoms: C_18  and  C_19
REMARK    6  A    between atoms: C_21  and  N_22
REMARK                            x       y       z     vdW  Elec       q    Type
REMARK                         _______ _______ _______ _____ _____    ______ ____
ROOT
ATOM      1  N   UNL     1       0.632   9.339  20.648  0.00  0.00    +0.000 N 
ATOM      2  C   UNL     1       1.095   9.731  21.895  0.00  0.00    +0.000 A 
ATOM      3  C   UNL     1       2.165   9.074  22.691  0.00  0.00    +0.000 C 
ATOM      4  N   UNL     1       0.453  10.804  22.322  0.00  0.00    +0.000 NA
ATOM      5  C   UNL     1      -0.445  11.116  21.343  0.00  0.00    +0.000 A 
ATOM      6  C   UNL     1      -1.379  12.147  21.267  0.00  0.00    +0.000 A 
ATOM      7  C   UNL     1      -2.172  12.195  20.119  0.00  0.00    +0.000 A 
ATOM      8  C   UNL     1      -2.023  11.233  19.107  0.00  0.00    +0.000 A 
ATOM      9  N   UNL     1      -1.098  10.231  19.155  0.00  0.00    +0.000 NA
ATOM     10  C   UNL     1      -0.360  10.227  20.285  0.00  0.00    +0.000 A 
ENDROOT
BRANCH   1  18
ATOM     11  C   UNL     1       4.196   4.868  18.764  0.00  0.00    +0.000 A 
ATOM     12  C   UNL     1       4.406   5.731  17.675  0.00  0.00    +0.000 A 
ATOM     13  C   UNL     1       3.728   6.953  17.591  0.00  0.00    +0.000 A 
ATOM     14  C   UNL     1       2.845   7.290  18.601  0.00  0.00    +0.000 A 
ATOM     15  C   UNL     1       2.639   6.443  19.690  0.00  0.00    +0.000 A 
ATOM     16  C   UNL     1       3.309   5.229  19.783  0.00  0.00    +0.000 A 
ATOM     17  C   UNL     1       1.692   7.046  20.684  0.00  0.00    +0.000 C 
ATOM     18  C   UNL     1       1.066   8.200  19.863  0.00  0.00    +0.000 C 
ATOM     19  C   UNL     1       2.056   8.557  18.733  0.00  0.00    +0.000 C 
BRANCH  11  21
ATOM     20  C   UNL     1       4.073   2.669  19.658  0.00  0.00    +0.000 C 
ATOM     21  O   UNL     1       4.810   3.653  18.940  0.00  0.00    +0.000 OA
ENDBRANCH  11  21
ENDBRANCH   1  18
BRANCH   8  22
ATOM     22  C   UNL     1      -2.893  11.244  17.911  0.00  0.00    +0.000 A 
ATOM     23  C   UNL     1      -2.455  10.737  16.682  0.00  0.00    +0.000 A 
ATOM     24  C   UNL     1      -3.309  10.758  15.587  0.00  0.00    +0.000 A 
ATOM     25  N   UNL     1      -4.562  11.243  15.642  0.00  0.00    +0.000 NA
ATOM     26  C   UNL     1      -4.997  11.712  16.821  0.00  0.00    +0.000 A 
ATOM     27  N   UNL     1      -6.330  12.114  16.891  0.00  0.00    +0.000 N 
ATOM     28  C   UNL     1      -4.208  11.727  17.962  0.00  0.00    +0.000 A 
ATOM     29  H   UNL     1      -6.713  12.079  15.951  0.00  0.00    +0.000 HD
ATOM     30  H   UNL     1      -6.450  13.016  17.333  0.00  0.00    +0.000 HD
BRANCH  24  31
ATOM     31  N   UNL     1      -2.917  10.181  14.381  0.00  0.00    +0.000 N 
ATOM     32  H   UNL     1      -2.548  10.852  13.721  0.00  0.00    +0.000 HD
ATOM     33  H   UNL     1      -3.704   9.650  14.019  0.00  0.00    +0.000 HD
ENDBRANCH  24  31
ENDBRANCH   8  22
TORSDOF 4
ENDMDL
MODEL 4
REMARK VINA RESULT:      -7.4      1.017      1.914
REMARK  Name = 
REMARK  6 active torsions:
REMARK  status: ('A' for Active; 'I' for Inactive)
REMARK    1  A    between atoms: C_1  and  O_2
REMARK    2  A    between atoms: O_2  and  C_3
REMARK    3  A    between atoms: C_10  and  N_11
REMARK    4  A    between atoms: C_12  and  C_13
REMARK    5  A    between atoms: C_18  and  C_19
REMARK    6  A    between atoms: C_21  and  N_22
REMARK                            x       y       z     vdW  Elec       q    Type
REMARK                         _______ _______ _______ _____ _____    ______ ____
ROOT
ATOM      1  N   UNL     1       3.511   5.283  18.482  0.00  0.00    +0.000 N 
ATOM      2  C   UNL     1       3.532   4.121  19.238  0.00  0.00    +0.000 A 
ATOM      3  C   UNL     1       4.228   2.853  18.894  0.00  0.00    +0.000 C 
ATOM      4  N   UNL     1       2.834   4.267  20.350  0.00  0.00    +0.000 NA
ATOM      5  C   UNL     1       2.347   5.541  20.320  0.00  0.00    +0.000 A 
ATOM      6  C   UNL     1       1.547   6.225  21.233  0.00  0.00    +0.000 A 
ATOM      7  C   UNL     1       1.204   7.539  20.908  0.00  0.00    +0.000 A 
ATOM      8  C   UNL     1       1.647   8.117  19.709  0.00  0.00    +0.000 A 
ATOM      9  N   UNL     1       2.448   7.470  18.814  0.00  0.00    +0.000 NA
ATOM     10  C   UNL     1       2.750   6.204  19.173  0.00  0.00    +0.000 A 
ENDROOT
BRANCH   1  18
ATOM     11  C   UNL     1       6.584   4.052  13.454  0.00  0.00    +0.000 A 
ATOM     12  C   UNL     1       7.591   4.792  14.099  0.00  0.00    +0.000 A 
ATOM     13  C   UNL     1       7.355   5.382  15.345  0.00  0.00    +0.000 A 
ATOM     14  C   UNL     1       6.109   5.227  15.926  0.00  0.00    +0.000 A 
ATOM     15  C   UNL     1       5.108   4.487  15.296  0.00  0.00    +0.000 A 
ATOM     16  C   UNL     1       5.334   3.895  14.060  0.00  0.00    +0.000 A 
ATOM     17  C   UNL     1       3.873   4.404  16.141  0.00  0.00    +0.000 C 
ATOM     18  C   UNL     1       4.134   5.511  17.193  0.00  0.00    +0.000 C 
ATOM     19  C   UNL     1       5.661   5.733  17.264  0.00  0.00    +0.000 C 
BRANCH  11  21
ATOM     20  C   UNL     1       5.605   2.656  11.797  0.00  0.00    +0.000 C 
ATOM     21  O   UNL     1       6.714   3.435  12.235  0.00  0.00    +0.000 OA
ENDBRANCH  11  21
ENDBRANCH   1  18
BRANCH   8  22
ATOM     22  C   UNL     1       1.246   9.490  19.330  0.00  0.00    +0.000 A 
ATOM     23  C   UNL     1       0.051  10.057  19.789  0.00  0.00    +0.000 A 
ATOM     24  C   UNL     1      -0.282  11.353  19.417  0.00  0.00    +0.000 A 
ATOM     25  N   UNL     1       0.497  12.113  18.628  0.00  0.00    +0.000 NA
ATOM     26  C   UNL     1       1.653  11.586  18.201  0.00  0.00    +0.000 A 
ATOM     27  N   UNL     1       2.500  12.419  17.471  0.00  0.00    +0.000 N 
ATOM     28  C   UNL     1       2.060  10.300  18.526  0.00  0.00    +0.000 A 
ATOM     29  H   UNL     1       2.003  13.288  17.295  0.00  0.00    +0.000 HD
ATOM     30  H   UNL     1       2.852  11.989  16.628  0.00  0.00    +0.000 HD
BRANCH  24  31
ATOM     31  N   UNL     1      -1.425  11.959  19.934  0.00  0.00    +0.000 N 
ATOM     32  H   UNL     1      -1.592  11.731  20.904  0.00  0.00    +0.000 HD
ATOM     33  H   UNL     1      -2.204  11.726  19.325  0.00  0.00    +0.000 HD
ENDBRANCH  24  31
ENDBRANCH   8  22
TORSDOF 4
ENDMDL
MODEL 5
REMARK VINA RESULT:      -7.4      3.309      6.421
REMARK  Name = 
REMARK  6 active torsions:
REMARK  status: ('A' for Active; 'I' for Inactive)
REMARK    1  A    between atoms: C_1  and  O_2
REMARK    2  A    between atoms: O_2  and  C_3
REMARK    3  A    between atoms: C_10  and  N_11
REMARK    4  A    between atoms: C_12  and  C_13
REMARK    5  A    between atoms: C_18  and  C_19
REMARK    6  A    between atoms: C_21  and  N_22
REMARK                            x       y       z     vdW  Elec       q    Type
REMARK                         _______ _______ _______ _____ _____    ______ ____
ROOT
ATOM      1  N   UNL     1       0.719  11.548  18.923  0.00  0.00    +0.000 N 
ATOM      2  C   UNL     1      -0.657  11.546  18.751  0.00  0.00    +0.000 A 
ATOM      3  C   UNL     1      -1.549  10.357  18.749  0.00  0.00    +0.000 C 
ATOM      4  N   UNL     1      -1.114  12.774  18.581  0.00  0.00    +0.000 NA
ATOM      5  C   UNL     1      -0.023  13.590  18.640  0.00  0.00    +0.000 A 
ATOM      6  C   UNL     1       0.080  14.974  18.522  0.00  0.00    +0.000 A 
ATOM      7  C   UNL     1       1.361  15.522  18.620  0.00  0.00    +0.000 A 
ATOM      8  C   UNL     1       2.478  14.695  18.818  0.00  0.00    +0.000 A 
ATOM      9  N   UNL     1       2.393  13.341  18.958  0.00  0.00    +0.000 NA
ATOM     10  C   UNL     1       1.136  12.861  18.854  0.00  0.00    +0.000 A 
ENDROOT
BRANCH   1  18
ATOM     11  C   UNL     1       2.637   5.854  18.546  0.00  0.00    +0.000 A 
ATOM     12  C   UNL     1       2.262   5.824  19.901  0.00  0.00    +0.000 A 
ATOM     13  C   UNL     1       1.778   6.975  20.533  0.00  0.00    +0.000 A 
ATOM     14  C   UNL     1       1.682   8.143  19.798  0.00  0.00    +0.000 A 
ATOM     15  C   UNL     1       2.043   8.177  18.451  0.00  0.00    +0.000 A 
ATOM     16  C   UNL     1       2.522   7.039  17.814  0.00  0.00    +0.000 A 
ATOM     17  C   UNL     1       1.792   9.528  17.850  0.00  0.00    +0.000 C 
ATOM     18  C   UNL     1       1.588  10.403  19.112  0.00  0.00    +0.000 C 
ATOM     19  C   UNL     1       1.152   9.466  20.260  0.00  0.00    +0.000 C 
BRANCH  11  21
ATOM     20  C   UNL     1       2.265   3.650  17.736  0.00  0.00    +0.000 C 
ATOM     21  O   UNL     1       3.121   4.784  17.836  0.00  0.00    +0.000 OA
ENDBRANCH  11  21
ENDBRANCH   1  18
BRANCH   8  22
ATOM     22  C   UNL     1       3.844  15.260  18.871  0.00  0.00    +0.000 A 
ATOM     23  C   UNL     1       4.896  14.701  18.137  0.00  0.00    +0.000 A 
ATOM     24  C   UNL     1       6.162  15.269  18.207  0.00  0.00    +0.000 A 
ATOM     25  N   UNL     1       6.439  16.353  18.954  0.00  0.00    +0.000 NA
ATOM     26  C   UNL     1       5.432  16.907  19.645  0.00  0.00    +0.000 A 
ATOM     27  N   UNL     1       5.708  18.089  20.331  0.00  0.00    +0.000 N 
ATOM     28  C   UNL     1       4.140  16.402  19.629  0.00  0.00    +0.000 A 
ATOM     29  H   UNL     1       6.708  18.258  20.265  0.00  0.00    +0.000 HD
ATOM     30  H   UNL     1       5.371  18.084  21.284  0.00  0.00    +0.000 HD
BRANCH  24  31
ATOM     31  N   UNL     1       7.197  14.776  17.417  0.00  0.00    +0.000 N 
ATOM     32  H   UNL     1       6.954  14.710  16.439  0.00  0.00    +0.000 HD
ATOM     33  H   UNL     1       7.503  13.894  17.818  0.00  0.00    +0.000 HD
ENDBRANCH  24  31
ENDBRANCH   8  22
TORSDOF 4
ENDMDL
MODEL 6
REMARK VINA RESULT:      -7.4      4.155      7.621
REMARK  Name = 
REMARK  6 active torsions:
REMARK  status: ('A' for Active; 'I' for Inactive)
REMARK    1  A    between atoms: C_1  and  O_2
REMARK    2  A    between atoms: O_2  and  C_3
REMARK    3  A    between atoms: C_10  and  N_11
REMARK    4  A    between atoms: C_12  and  C_13
REMARK    5  A    between atoms: C_18  and  C_19
REMARK    6  A    between atoms: C_21  and  N_22
REMARK                            x       y       z     vdW  Elec       q    Type
REMARK                         _______ _______ _______ _____ _____    ______ ____
ROOT
ATOM      1  N   UNL     1      -0.344  12.503  20.284  0.00  0.00    +0.000 N 
ATOM      2  C   UNL     1       0.650  13.459  20.427  0.00  0.00    +0.000 A 
ATOM      3  C   UNL     1       2.101  13.275  20.163  0.00  0.00    +0.000 C 
ATOM      4  N   UNL     1       0.146  14.607  20.843  0.00  0.00    +0.000 NA
ATOM      5  C   UNL     1      -1.196  14.399  20.977  0.00  0.00    +0.000 A 
ATOM      6  C   UNL     1      -2.209  15.263  21.387  0.00  0.00    +0.000 A 
ATOM      7  C   UNL     1      -3.504  14.741  21.429  0.00  0.00    +0.000 A 
ATOM      8  C   UNL     1      -3.745  13.402  21.081  0.00  0.00    +0.000 A 
ATOM      9  N   UNL     1      -2.769  12.549  20.658  0.00  0.00    +0.000 NA
ATOM     10  C   UNL     1      -1.537  13.101  20.636  0.00  0.00    +0.000 A 
ENDROOT
BRANCH   1  18
ATOM     11  C   UNL     1       2.291   7.137  19.569  0.00  0.00    +0.000 A 
ATOM     12  C   UNL     1       2.412   7.572  18.238  0.00  0.00    +0.000 A 
ATOM     13  C   UNL     1       1.880   8.803  17.837  0.00  0.00    +0.000 A 
ATOM     14  C   UNL     1       1.228   9.580  18.778  0.00  0.00    +0.000 A 
ATOM     15  C   UNL     1       1.112   9.159  20.103  0.00  0.00    +0.000 A 
ATOM     16  C   UNL     1       1.639   7.940  20.510  0.00  0.00    +0.000 A 
ATOM     17  C   UNL     1       0.426  10.191  20.948  0.00  0.00    +0.000 C 
ATOM     18  C   UNL     1      -0.189  11.121  19.874  0.00  0.00    +0.000 C 
ATOM     19  C   UNL     1       0.630  10.939  18.577  0.00  0.00    +0.000 C 
BRANCH  11  21
ATOM     20  C   UNL     1       3.899   5.397  19.384  0.00  0.00    +0.000 C 
ATOM     21  O   UNL     1       2.777   5.953  20.061  0.00  0.00    +0.000 OA
ENDBRANCH  11  21
ENDBRANCH   1  18
BRANCH   8  22
ATOM     22  C   UNL     1      -5.104  12.824  21.173  0.00  0.00    +0.000 A 
ATOM     23  C   UNL     1      -5.646  12.058  20.135  0.00  0.00    +0.000 A 
ATOM     24  C   UNL     1      -6.922  11.525  20.268  0.00  0.00    +0.000 A 
ATOM     25  N   UNL     1      -7.681  11.704  21.362  0.00  0.00    +0.000 NA
ATOM     26  C   UNL     1      -7.162  12.421  22.370  0.00  0.00    +0.000 A 
ATOM     27  N   UNL     1      -7.916  12.511  23.540  0.00  0.00    +0.000 N 
ATOM     28  C   UNL     1      -5.897  12.986  22.318  0.00  0.00    +0.000 A 
ATOM     29  H   UNL     1      -8.821  12.084  23.358  0.00  0.00    +0.000 HD
ATOM     30  H   UNL     1      -7.990  13.454  23.894  0.00  0.00    +0.000 HD
BRANCH  24  31
ATOM     31  N   UNL     1      -7.440  10.691  19.280  0.00  0.00    +0.000 N 
ATOM     32  H   UNL     1      -7.045  10.865  18.366  0.00  0.00    +0.000 HD
ATOM     33  H   UNL     1      -8.452  10.770  19.304  0.00  0.00    +0.000 HD
ENDBRANCH  24  31
ENDBRANCH   8  22
TORSDOF 4
ENDMDL
MODEL 7
REMARK VINA RESULT:      -7.4      3.298      6.490
REMARK  Name = 
REMARK  6 active torsions:
REMARK  status: ('A' for Active; 'I' for Inactive)
REMARK    1  A    between atoms: C_1  and  O_2
REMARK    2  A    between atoms: O_2  and  C_3
REMARK    3  A    between atoms: C_10  and  N_11
REMARK    4  A    between atoms: C_12  and  C_13
REMARK    5  A    between atoms: C_18  and  C_19
REMARK    6  A    between atoms: C_21  and  N_22
REMARK                            x       y       z     vdW  Elec       q    Type
REMARK                         _______ _______ _______ _____ _____    ______ ____
ROOT
ATOM      1  N   UNL     1       0.690  11.557  18.922  0.00  0.00    +0.000 N 
ATOM      2  C   UNL     1      -0.690  11.547  18.782  0.00  0.00    +0.000 A 
ATOM      3  C   UNL     1      -1.575  10.353  18.813  0.00  0.00    +0.000 C 
ATOM      4  N   UNL     1      -1.157  12.771  18.611  0.00  0.00    +0.000 NA
ATOM      5  C   UNL     1      -0.069  13.593  18.635  0.00  0.00    +0.000 A 
ATOM      6  C   UNL     1       0.023  14.976  18.500  0.00  0.00    +0.000 A 
ATOM      7  C   UNL     1       1.303  15.532  18.562  0.00  0.00    +0.000 A 
ATOM      8  C   UNL     1       2.429  14.712  18.742  0.00  0.00    +0.000 A 
ATOM      9  N   UNL     1       2.355  13.359  18.898  0.00  0.00    +0.000 NA
ATOM     10  C   UNL     1       1.098  12.872  18.829  0.00  0.00    +0.000 A 
ENDROOT
BRANCH   1  18
ATOM     11  C   UNL     1       2.642   5.876  18.534  0.00  0.00    +0.000 A 
ATOM     12  C   UNL     1       2.284   5.847  19.893  0.00  0.00    +0.000 A 
ATOM     13  C   UNL     1       1.801   6.996  20.528  0.00  0.00    +0.000 A 
ATOM     14  C   UNL     1       1.687   8.161  19.792  0.00  0.00    +0.000 A 
ATOM     15  C   UNL     1       2.030   8.195  18.440  0.00  0.00    +0.000 A 
ATOM     16  C   UNL     1       2.509   7.059  17.800  0.00  0.00    +0.000 A 
ATOM     17  C   UNL     1       1.762   9.542  17.840  0.00  0.00    +0.000 C 
ATOM     18  C   UNL     1       1.568  10.419  19.102  0.00  0.00    +0.000 C 
ATOM     19  C   UNL     1       1.154   9.482  20.258  0.00  0.00    +0.000 C 
BRANCH  11  21
ATOM     20  C   UNL     1       2.226   3.719  17.625  0.00  0.00    +0.000 C 
ATOM     21  O   UNL     1       3.123   4.808  17.820  0.00  0.00    +0.000 OA
ENDBRANCH  11  21
ENDBRANCH   1  18
BRANCH   8  22
ATOM     22  C   UNL     1       3.793  15.284  18.757  0.00  0.00    +0.000 A 
ATOM     23  C   UNL     1       4.099  16.431  19.498  0.00  0.00    +0.000 A 
ATOM     24  C   UNL     1       5.395  16.929  19.491  0.00  0.00    +0.000 A 
ATOM     25  N   UNL     1       6.397  16.356  18.802  0.00  0.00    +0.000 NA
ATOM     26  C   UNL     1       6.118  15.245  18.105  0.00  0.00    +0.000 A 
ATOM     27  N   UNL     1       7.186  14.602  17.480  0.00  0.00    +0.000 N 
ATOM     28  C   UNL     1       4.851  14.684  18.059  0.00  0.00    +0.000 A 
ATOM     29  H   UNL     1       8.006  15.193  17.584  0.00  0.00    +0.000 HD
ATOM     30  H   UNL     1       6.996  14.358  16.518  0.00  0.00    +0.000 HD
BRANCH  24  31
ATOM     31  N   UNL     1       5.733  18.019  20.290  0.00  0.00    +0.000 N 
ATOM     32  H   UNL     1       6.626  17.913  20.751  0.00  0.00    +0.000 HD
ATOM     33  H   UNL     1       4.965  18.184  20.934  0.00  0.00    +0.000 HD
ENDBRANCH  24  31
ENDBRANCH   8  22
TORSDOF 4
ENDMDL
MODEL 8
REMARK VINA RESULT:      -7.4      4.022      7.477
REMARK  Name = 
REMARK  6 active torsions:
REMARK  status: ('A' for Active; 'I' for Inactive)
REMARK    1  A    between atoms: C_1  and  O_2
REMARK    2  A    between atoms: O_2  and  C_3
REMARK    3  A    between atoms: C_10  and  N_11
REMARK    4  A    between atoms: C_12  and  C_13
REMARK    5  A    between atoms: C_18  and  C_19
REMARK    6  A    between atoms: C_21  and  N_22
REMARK                            x       y       z     vdW  Elec       q    Type
REMARK                         _______ _______ _______ _____ _____    ______ ____
ROOT
ATOM      1  N   UNL     1      -0.178  12.343  20.229  0.00  0.00    +0.000 N 
ATOM      2  C   UNL     1       0.828  13.282  20.405  0.00  0.00    +0.000 A 
ATOM      3  C   UNL     1       2.283  13.073  20.186  0.00  0.00    +0.000 C 
ATOM      4  N   UNL     1       0.331  14.437  20.809  0.00  0.00    +0.000 NA
ATOM      5  C   UNL     1      -1.017  14.253  20.900  0.00  0.00    +0.000 A 
ATOM      6  C   UNL     1      -2.028  15.133  21.280  0.00  0.00    +0.000 A 
ATOM      7  C   UNL     1      -3.332  14.634  21.281  0.00  0.00    +0.000 A 
ATOM      8  C   UNL     1      -3.586  13.300  20.922  0.00  0.00    +0.000 A 
ATOM      9  N   UNL     1      -2.612  12.431  20.527  0.00  0.00    +0.000 NA
ATOM     10  C   UNL     1      -1.370  12.961  20.545  0.00  0.00    +0.000 A 
ENDROOT
BRANCH   1  18
ATOM     11  C   UNL     1       2.409   6.952  19.529  0.00  0.00    +0.000 A 
ATOM     12  C   UNL     1       2.541   7.385  18.199  0.00  0.00    +0.000 A 
ATOM     13  C   UNL     1       2.022   8.621  17.795  0.00  0.00    +0.000 A 
ATOM     14  C   UNL     1       1.374   9.404  18.732  0.00  0.00    +0.000 A 
ATOM     15  C   UNL     1       1.247   8.985  20.057  0.00  0.00    +0.000 A 
ATOM     16  C   UNL     1       1.761   7.762  20.468  0.00  0.00    +0.000 A 
ATOM     17  C   UNL     1       0.567  10.024  20.898  0.00  0.00    +0.000 C 
ATOM     18  C   UNL     1      -0.034  10.960  19.820  0.00  0.00    +0.000 C 
ATOM     19  C   UNL     1       0.789  10.769  18.528  0.00  0.00    +0.000 C 
BRANCH  11  21
ATOM     20  C   UNL     1       4.015   5.208  19.368  0.00  0.00    +0.000 C 
ATOM     21  O   UNL     1       2.881   5.763  20.025  0.00  0.00    +0.000 OA
ENDBRANCH  11  21
ENDBRANCH   1  18
BRANCH   8  22
ATOM     22  C   UNL     1      -4.956  12.746  20.970  0.00  0.00    +0.000 A 
ATOM     23  C   UNL     1      -5.776  12.915  22.092  0.00  0.00    +0.000 A 
ATOM     24  C   UNL     1      -7.060  12.387  22.091  0.00  0.00    +0.000 A 
ATOM     25  N   UNL     1      -7.575  11.711  21.049  0.00  0.00    +0.000 NA
ATOM     26  C   UNL     1      -6.804  11.562  19.962  0.00  0.00    +0.000 A 
ATOM     27  N   UNL     1      -7.385  10.953  18.850  0.00  0.00    +0.000 N 
ATOM     28  C   UNL     1      -5.512  12.059  19.881  0.00  0.00    +0.000 A 
ATOM     29  H   UNL     1      -8.303  10.616  19.127  0.00  0.00    +0.000 HD
ATOM     30  H   UNL     1      -6.806  10.231  18.444  0.00  0.00    +0.000 HD
BRANCH  24  31
ATOM     31  N   UNL     1      -7.916  12.619  23.166  0.00  0.00    +0.000 N 
ATOM     32  H   UNL     1      -7.547  12.287  24.046  0.00  0.00    +0.000 HD
ATOM     33  H   UNL     1      -8.823  12.225  22.934  0.00  0.00    +0.000 HD
ENDBRANCH  24  31
ENDBRANCH   8  22
TORSDOF 4
ENDMDL
MODEL 9
REMARK VINA RESULT:      -7.4      2.943      5.089
REMARK  Name = 
REMARK  6 active torsions:
REMARK  status: ('A' for Active; 'I' for Inactive)
REMARK    1  A    between atoms: C_1  and  O_2
REMARK    2  A    between atoms: O_2  and  C_3
REMARK    3  A    between atoms: C_10  and  N_11
REMARK    4  A    between atoms: C_12  and  C_13
REMARK    5  A    between atoms: C_18  and  C_19
REMARK    6  A    between atoms: C_21  and  N_22
REMARK                            x       y       z     vdW  Elec       q    Type
REMARK                         _______ _______ _______ _____ _____    ______ ____
ROOT
ATOM      1  N   UNL     1       0.688   9.280  20.629  0.00  0.00    +0.000 N 
ATOM      2  C   UNL     1       1.171   9.688  21.863  0.00  0.00    +0.000 A 
ATOM      3  C   UNL     1       2.256   9.042  22.648  0.00  0.00    +0.000 C 
ATOM      4  N   UNL     1       0.535  10.765  22.288  0.00  0.00    +0.000 NA
ATOM      5  C   UNL     1      -0.380  11.064  21.321  0.00  0.00    +0.000 A 
ATOM      6  C   UNL     1      -1.317  12.092  21.248  0.00  0.00    +0.000 A 
ATOM      7  C   UNL     1      -2.130  12.125  20.113  0.00  0.00    +0.000 A 
ATOM      8  C   UNL     1      -1.996  11.151  19.111  0.00  0.00    +0.000 A 
ATOM      9  N   UNL     1      -1.070  10.150  19.155  0.00  0.00    +0.000 NA
ATOM     10  C   UNL     1      -0.312  10.161  20.272  0.00  0.00    +0.000 A 
ENDROOT
BRANCH   1  18
ATOM     11  C   UNL     1       4.190   4.739  18.796  0.00  0.00    +0.000 A 
ATOM     12  C   UNL     1       4.431   5.597  17.709  0.00  0.00    +0.000 A 
ATOM     13  C   UNL     1       3.778   6.832  17.616  0.00  0.00    +0.000 A 
ATOM     14  C   UNL     1       2.888   7.186  18.613  0.00  0.00    +0.000 A 
ATOM     15  C   UNL     1       2.652   6.344  19.700  0.00  0.00    +0.000 A 
ATOM     16  C   UNL     1       3.297   5.118  19.802  0.00  0.00    +0.000 A 
ATOM     17  C   UNL     1       1.703   6.967  20.680  0.00  0.00    +0.000 C 
ATOM     18  C   UNL     1       1.110   8.133  19.850  0.00  0.00    +0.000 C 
ATOM     19  C   UNL     1       2.122   8.469  18.733  0.00  0.00    +0.000 C 
BRANCH  11  21
ATOM     20  C   UNL     1       4.158   2.650  19.929  0.00  0.00    +0.000 C 
ATOM     21  O   UNL     1       4.777   3.513  18.980  0.00  0.00    +0.000 OA
ENDBRANCH  11  21
ENDBRANCH   1  18
BRANCH   8  22
ATOM     22  C   UNL     1      -2.887  11.145  17.930  0.00  0.00    +0.000 A 
ATOM     23  C   UNL     1      -4.172  11.699  17.979  0.00  0.00    +0.000 A 
ATOM     24  C   UNL     1      -4.972  11.682  16.844  0.00  0.00    +0.000 A 
ATOM     25  N   UNL     1      -4.572  11.156  15.673  0.00  0.00    +0.000 NA
ATOM     26  C   UNL     1      -3.335  10.641  15.611  0.00  0.00    +0.000 A 
ATOM     27  N   UNL     1      -2.895  10.195  14.366  0.00  0.00    +0.000 N 
ATOM     28  C   UNL     1      -2.474  10.619  16.698  0.00  0.00    +0.000 A 
ATOM     29  H   UNL     1      -3.681  10.244  13.724  0.00  0.00    +0.000 HD
ATOM     30  H   UNL     1      -2.470   9.278  14.399  0.00  0.00    +0.000 HD
BRANCH  24  31
ATOM     31  N   UNL     1      -6.217  12.304  16.853  0.00  0.00    +0.000 N 
ATOM     32  H   UNL     1      -6.988  11.651  16.872  0.00  0.00    +0.000 HD
ATOM     33  H   UNL     1      -6.253  12.947  16.067  0.00  0.00    +0.000 HD
ENDBRANCH  24  31
ENDBRANCH   8  22
TORSDOF 4
ENDMDL
