MODEL 1
REMARK VINA RESULT:      -6.7      0.000      0.000
REMARK  Name = 
REMARK  3 active torsions:
REMARK  status: ('A' for Active; 'I' for Inactive)
REMARK    1  A    between atoms: C_5  and  C_6
REMARK    2  A    between atoms: C_6  and  C_7
REMARK    3  A    between atoms: C_7  and  N_8
REMARK                            x       y       z     vdW  Elec       q    Type
REMARK                         _______ _______ _______ _____ _____    ______ ____
ROOT
ATOM      1  C   UNL     1      -6.067  12.900  19.695  0.00  0.00    +0.000 C 
ATOM      2  O   UNL     1      -6.453  14.250  19.252  0.00  0.00    +0.000 OA
ATOM      3  C   UNL     1      -7.157  14.924  20.313  0.00  0.00    +0.000 C 
ATOM      4  C   UNL     1      -6.483  14.372  21.511  0.00  0.00    +0.000 A 
ATOM      5  C   UNL     1      -6.556  14.840  22.817  0.00  0.00    +0.000 A 
ATOM      6 CL   UNL     1      -7.658  16.082  23.256  0.00  0.00    +0.000 Cl
ATOM      7  C   UNL     1      -5.729  14.274  23.777  0.00  0.00    +0.000 A 
ATOM      8  C   UNL     1      -4.876  13.232  23.408  0.00  0.00    +0.000 A 
ATOM      9 CL   UNL     1      -3.759  12.622  24.573  0.00  0.00    +0.000 Cl
ATOM     10  C   UNL     1      -4.902  12.678  22.115  0.00  0.00    +0.000 A 
ATOM     11  C   UNL     1      -5.715  13.251  21.146  0.00  0.00    +0.000 A 
ENDROOT
BRANCH   1  16
ATOM     12 CL   UNL     1      -2.489   9.823  15.876  0.00  0.00    +0.000 Cl
ATOM     13  C   UNL     1      -3.407  10.844  16.911  0.00  0.00    +0.000 A 
ATOM     14  C   UNL     1      -2.983  11.092  18.211  0.00  0.00    +0.000 A 
ATOM     15  C   UNL     1      -3.782  11.856  19.083  0.00  0.00    +0.000 A 
ATOM     16  C   UNL     1      -5.031  12.372  18.685  0.00  0.00    +0.000 A 
ATOM     17  C   UNL     1      -5.363  12.202  17.311  0.00  0.00    +0.000 A 
ATOM     18 CL   UNL     1      -6.757  12.912  16.561  0.00  0.00    +0.000 Cl
ATOM     19  C   UNL     1      -4.577  11.424  16.449  0.00  0.00    +0.000 A 
ENDBRANCH   1  16
BRANCH   1  20
ATOM     20  C   UNL     1      -7.385  12.042  19.643  0.00  0.00    +0.000 C 
BRANCH  20  21
ATOM     21  N   UNL     1      -7.343  10.684  20.134  0.00  0.00    +0.000 N 
ATOM     22  C   UNL     1      -6.910   9.595  19.422  0.00  0.00    +0.000 A 
ATOM     23  C   UNL     1      -7.248   8.507  20.193  0.00  0.00    +0.000 A 
ATOM     24  N   UNL     1      -7.857   8.912  21.354  0.00  0.00    +0.000 NA
ATOM     25  C   UNL     1      -7.916  10.225  21.277  0.00  0.00    +0.000 A 
ENDBRANCH  20  21
ENDBRANCH   1  20
TORSDOF 3
ENDMDL
MODEL 2
REMARK VINA RESULT:      -6.4      4.276      6.240
REMARK  Name = 
REMARK  3 active torsions:
REMARK  status: ('A' for Active; 'I' for Inactive)
REMARK    1  A    between atoms: C_5  and  C_6
REMARK    2  A    between atoms: C_6  and  C_7
REMARK    3  A    between atoms: C_7  and  N_8
REMARK                            x       y       z     vdW  Elec       q    Type
REMARK                         _______ _______ _______ _____ _____    ______ ____
ROOT
ATOM      1  C   UNL     1      -2.981  12.778  21.951  0.00  0.00    +0.000 C 
ATOM      2  O   UNL     1      -3.881  12.430  23.062  0.00  0.00    +0.000 OA
ATOM      3  C   UNL     1      -5.206  12.925  22.785  0.00  0.00    +0.000 C 
ATOM      4  C   UNL     1      -5.268  12.791  21.310  0.00  0.00    +0.000 A 
ATOM      5  C   UNL     1      -6.391  12.871  20.498  0.00  0.00    +0.000 A 
ATOM      6 CL   UNL     1      -7.914  13.350  21.130  0.00  0.00    +0.000 Cl
ATOM      7  C   UNL     1      -6.262  12.568  19.149  0.00  0.00    +0.000 A 
ATOM      8  C   UNL     1      -5.005  12.229  18.647  0.00  0.00    +0.000 A 
ATOM      9 CL   UNL     1      -4.876  11.728  17.002  0.00  0.00    +0.000 Cl
ATOM     10  C   UNL     1      -3.851  12.278  19.450  0.00  0.00    +0.000 A 
ATOM     11  C   UNL     1      -3.975  12.563  20.804  0.00  0.00    +0.000 A 
ENDROOT
BRANCH   1  16
ATOM     12 CL   UNL     1       1.521   8.707  21.976  0.00  0.00    +0.000 Cl
ATOM     13  C   UNL     1       0.355   9.966  22.072  0.00  0.00    +0.000 A 
ATOM     14  C   UNL     1      -0.544  10.013  23.131  0.00  0.00    +0.000 A 
ATOM     15  C   UNL     1      -1.555  10.993  23.160  0.00  0.00    +0.000 A 
ATOM     16  C   UNL     1      -1.704  11.935  22.123  0.00  0.00    +0.000 A 
ATOM     17  C   UNL     1      -0.686  11.930  21.128  0.00  0.00    +0.000 A 
ATOM     18 CL   UNL     1      -0.565  13.113  19.865  0.00  0.00    +0.000 Cl
ATOM     19  C   UNL     1       0.308  10.941  21.089  0.00  0.00    +0.000 A 
ENDBRANCH   1  16
BRANCH   1  20
ATOM     20  C   UNL     1      -2.666  14.311  22.123  0.00  0.00    +0.000 C 
BRANCH  20  21
ATOM     21  N   UNL     1      -1.834  14.723  23.230  0.00  0.00    +0.000 N 
ATOM     22  C   UNL     1      -2.237  14.809  24.538  0.00  0.00    +0.000 A 
ATOM     23  C   UNL     1      -1.203  15.439  25.189  0.00  0.00    +0.000 A 
ATOM     24  N   UNL     1      -0.184  15.719  24.314  0.00  0.00    +0.000 NA
ATOM     25  C   UNL     1      -0.604  15.294  23.142  0.00  0.00    +0.000 A 
ENDBRANCH  20  21
ENDBRANCH   1  20
TORSDOF 3
ENDMDL
MODEL 3
REMARK VINA RESULT:      -6.3      4.245      6.009
REMARK  Name = 
REMARK  3 active torsions:
REMARK  status: ('A' for Active; 'I' for Inactive)
REMARK    1  A    between atoms: C_5  and  C_6
REMARK    2  A    between atoms: C_6  and  C_7
REMARK    3  A    between atoms: C_7  and  N_8
REMARK                            x       y       z     vdW  Elec       q    Type
REMARK                         _______ _______ _______ _____ _____    ______ ____
ROOT
ATOM      1  C   UNL     1      -3.112  12.942  22.494  0.00  0.00    +0.000 C 
ATOM      2  O   UNL     1      -3.421  12.809  23.927  0.00  0.00    +0.000 OA
ATOM      3  C   UNL     1      -4.717  13.381  24.196  0.00  0.00    +0.000 C 
ATOM      4  C   UNL     1      -5.440  13.076  22.940  0.00  0.00    +0.000 A 
ATOM      5  C   UNL     1      -6.807  13.155  22.707  0.00  0.00    +0.000 A 
ATOM      6 CL   UNL     1      -7.869  13.837  23.871  0.00  0.00    +0.000 Cl
ATOM      7  C   UNL     1      -7.308  12.682  21.502  0.00  0.00    +0.000 A 
ATOM      8  C   UNL     1      -6.421  12.176  20.551  0.00  0.00    +0.000 A 
ATOM      9 CL   UNL     1      -7.060  11.471  19.112  0.00  0.00    +0.000 Cl
ATOM     10  C   UNL     1      -5.028  12.221  20.742  0.00  0.00    +0.000 A 
ATOM     11  C   UNL     1      -4.521  12.677  21.952  0.00  0.00    +0.000 A 
ENDROOT
BRANCH   1  16
ATOM     12 CL   UNL     1       0.822   8.553  21.041  0.00  0.00    +0.000 Cl
ATOM     13  C   UNL     1      -0.146   9.900  21.492  0.00  0.00    +0.000 A 
ATOM     14  C   UNL     1      -0.522  10.082  22.817  0.00  0.00    +0.000 A 
ATOM     15  C   UNL     1      -1.389  11.136  23.169  0.00  0.00    +0.000 A 
ATOM     16  C   UNL     1      -1.914  12.018  22.204  0.00  0.00    +0.000 A 
ATOM     17  C   UNL     1      -1.401  11.871  20.883  0.00  0.00    +0.000 A 
ATOM     18 CL   UNL     1      -1.764  12.957  19.581  0.00  0.00    +0.000 Cl
ATOM     19  C   UNL     1      -0.555  10.809  20.531  0.00  0.00    +0.000 A 
ENDBRANCH   1  16
BRANCH   1  20
ATOM     20  C   UNL     1      -2.717  14.450  22.281  0.00  0.00    +0.000 C 
BRANCH  20  21
ATOM     21  N   UNL     1      -1.650  15.003  23.083  0.00  0.00    +0.000 N 
ATOM     22  C   UNL     1      -1.816  15.737  24.229  0.00  0.00    +0.000 A 
ATOM     23  C   UNL     1      -0.566  16.228  24.524  0.00  0.00    +0.000 A 
ATOM     24  N   UNL     1       0.349  15.796  23.597  0.00  0.00    +0.000 NA
ATOM     25  C   UNL     1      -0.339  15.079  22.734  0.00  0.00    +0.000 A 
ENDBRANCH  20  21
ENDBRANCH   1  20
TORSDOF 3
ENDMDL
MODEL 4
REMARK VINA RESULT:      -6.3      5.702      8.794
REMARK  Name = 
REMARK  3 active torsions:
REMARK  status: ('A' for Active; 'I' for Inactive)
REMARK    1  A    between atoms: C_5  and  C_6
REMARK    2  A    between atoms: C_6  and  C_7
REMARK    3  A    between atoms: C_7  and  N_8
REMARK                            x       y       z     vdW  Elec       q    Type
REMARK                         _______ _______ _______ _____ _____    ______ ____
ROOT
ATOM      1  C   UNL     1       0.768  10.163  19.966  0.00  0.00    +0.000 C 
ATOM      2  O   UNL     1       0.994   9.854  21.388  0.00  0.00    +0.000 OA
ATOM      3  C   UNL     1       1.021   8.425  21.574  0.00  0.00    +0.000 C 
ATOM      4  C   UNL     1       1.625   7.973  20.299  0.00  0.00    +0.000 A 
ATOM      5  C   UNL     1       2.137   6.717  20.001  0.00  0.00    +0.000 A 
ATOM      6 CL   UNL     1       1.949   5.400  21.086  0.00  0.00    +0.000 Cl
ATOM      7  C   UNL     1       2.799   6.535  18.795  0.00  0.00    +0.000 A 
ATOM      8  C   UNL     1       2.898   7.607  17.906  0.00  0.00    +0.000 A 
ATOM      9 CL   UNL     1       3.832   7.410  16.470  0.00  0.00    +0.000 Cl
ATOM     10  C   UNL     1       2.263   8.837  18.159  0.00  0.00    +0.000 A 
ATOM     11  C   UNL     1       1.614   9.031  19.372  0.00  0.00    +0.000 A 
ENDROOT
BRANCH   1  16
ATOM     12 CL   UNL     1       1.134  16.063  18.585  0.00  0.00    +0.000 Cl
ATOM     13  C   UNL     1       1.184  14.415  19.073  0.00  0.00    +0.000 A 
ATOM     14  C   UNL     1       1.897  13.483  18.327  0.00  0.00    +0.000 A 
ATOM     15  C   UNL     1       1.863  12.120  18.679  0.00  0.00    +0.000 A 
ATOM     16  C   UNL     1       1.102  11.653  19.769  0.00  0.00    +0.000 A 
ATOM     17  C   UNL     1       0.495  12.657  20.577  0.00  0.00    +0.000 A 
ATOM     18 CL   UNL     1      -0.331  12.327  22.066  0.00  0.00    +0.000 Cl
ATOM     19  C   UNL     1       0.512  14.011  20.214  0.00  0.00    +0.000 A 
ENDBRANCH   1  16
BRANCH   1  20
ATOM     20  C   UNL     1      -0.762   9.896  19.711  0.00  0.00    +0.000 C 
BRANCH  20  21
ATOM     21  N   UNL     1      -1.356  10.400  18.494  0.00  0.00    +0.000 N 
ATOM     22  C   UNL     1      -2.184  11.490  18.408  0.00  0.00    +0.000 A 
ATOM     23  C   UNL     1      -2.672  11.465  17.122  0.00  0.00    +0.000 A 
ATOM     24  N   UNL     1      -2.148  10.402  16.430  0.00  0.00    +0.000 NA
ATOM     25  C   UNL     1      -1.378   9.771  17.290  0.00  0.00    +0.000 A 
ENDBRANCH  20  21
ENDBRANCH   1  20
TORSDOF 3
ENDMDL
MODEL 5
REMARK VINA RESULT:      -6.2      4.730      7.441
REMARK  Name = 
REMARK  3 active torsions:
REMARK  status: ('A' for Active; 'I' for Inactive)
REMARK    1  A    between atoms: C_5  and  C_6
REMARK    2  A    between atoms: C_6  and  C_7
REMARK    3  A    between atoms: C_7  and  N_8
REMARK                            x       y       z     vdW  Elec       q    Type
REMARK                         _______ _______ _______ _____ _____    ______ ____
ROOT
ATOM      1  C   UNL     1      -0.913  11.247  19.522  0.00  0.00    +0.000 C 
ATOM      2  O   UNL     1      -1.844  11.492  20.636  0.00  0.00    +0.000 OA
ATOM      3  C   UNL     1      -2.974  12.251  20.163  0.00  0.00    +0.000 C 
ATOM      4  C   UNL     1      -3.113  11.742  18.779  0.00  0.00    +0.000 A 
ATOM      5  C   UNL     1      -4.187  11.915  17.915  0.00  0.00    +0.000 A 
ATOM      6 CL   UNL     1      -5.485  12.966  18.310  0.00  0.00    +0.000 Cl
ATOM      7  C   UNL     1      -4.190  11.230  16.708  0.00  0.00    +0.000 A 
ATOM      8  C   UNL     1      -3.101  10.418  16.385  0.00  0.00    +0.000 A 
ATOM      9 CL   UNL     1      -3.170   9.470  14.946  0.00  0.00    +0.000 Cl
ATOM     10  C   UNL     1      -1.960  10.352  17.207  0.00  0.00    +0.000 A 
ATOM     11  C   UNL     1      -1.959  11.021  18.424  0.00  0.00    +0.000 A 
ENDROOT
BRANCH   1  16
ATOM     12 CL   UNL     1       2.275   6.236  20.777  0.00  0.00    +0.000 Cl
ATOM     13  C   UNL     1       1.499   7.747  20.516  0.00  0.00    +0.000 A 
ATOM     14  C   UNL     1       0.583   8.235  21.440  0.00  0.00    +0.000 A 
ATOM     15  C   UNL     1      -0.117   9.430  21.181  0.00  0.00    +0.000 A 
ATOM     16  C   UNL     1       0.067  10.153  19.986  0.00  0.00    +0.000 A 
ATOM     17  C   UNL     1       1.106   9.685  19.131  0.00  0.00    +0.000 A 
ATOM     18 CL   UNL     1       1.630  10.521  17.704  0.00  0.00    +0.000 Cl
ATOM     19  C   UNL     1       1.787   8.485  19.380  0.00  0.00    +0.000 A 
ENDBRANCH   1  16
BRANCH   1  20
ATOM     20  C   UNL     1      -0.160  12.609  19.290  0.00  0.00    +0.000 C 
BRANCH  20  21
ATOM     21  N   UNL     1       0.464  13.253  20.423  0.00  0.00    +0.000 N 
ATOM     22  C   UNL     1      -0.089  14.266  21.164  0.00  0.00    +0.000 A 
ATOM     23  C   UNL     1       0.926  14.707  21.980  0.00  0.00    +0.000 A 
ATOM     24  N   UNL     1       2.068  13.976  21.763  0.00  0.00    +0.000 NA
ATOM     25  C   UNL     1       1.761  13.126  20.806  0.00  0.00    +0.000 A 
ENDBRANCH  20  21
ENDBRANCH   1  20
TORSDOF 3
ENDMDL
MODEL 6
REMARK VINA RESULT:      -6.0      4.081      6.862
REMARK  Name = 
REMARK  3 active torsions:
REMARK  status: ('A' for Active; 'I' for Inactive)
REMARK    1  A    between atoms: C_5  and  C_6
REMARK    2  A    between atoms: C_6  and  C_7
REMARK    3  A    between atoms: C_7  and  N_8
REMARK                            x       y       z     vdW  Elec       q    Type
REMARK                         _______ _______ _______ _____ _____    ______ ____
ROOT
ATOM      1  C   UNL     1      -2.263  13.381  21.984  0.00  0.00    +0.000 C 
ATOM      2  O   UNL     1      -2.009  14.831  21.986  0.00  0.00    +0.000 OA
ATOM      3  C   UNL     1      -0.840  15.118  21.194  0.00  0.00    +0.000 C 
ATOM      4  C   UNL     1      -0.931  14.077  20.145  0.00  0.00    +0.000 A 
ATOM      5  C   UNL     1      -0.223  14.010  18.952  0.00  0.00    +0.000 A 
ATOM      6 CL   UNL     1       1.059  15.101  18.616  0.00  0.00    +0.000 Cl
ATOM      7  C   UNL     1      -0.561  13.030  18.029  0.00  0.00    +0.000 A 
ATOM      8  C   UNL     1      -1.575  12.123  18.342  0.00  0.00    +0.000 A 
ATOM      9 CL   UNL     1      -2.077  10.992  17.141  0.00  0.00    +0.000 Cl
ATOM     10  C   UNL     1      -2.196  12.116  19.605  0.00  0.00    +0.000 A 
ATOM     11  C   UNL     1      -1.874  13.105  20.526  0.00  0.00    +0.000 A 
ENDROOT
BRANCH   1  16
ATOM     12 CL   UNL     1      -7.735  13.563  24.604  0.00  0.00    +0.000 Cl
ATOM     13  C   UNL     1      -6.236  13.350  23.791  0.00  0.00    +0.000 A 
ATOM     14  C   UNL     1      -5.198  12.656  24.401  0.00  0.00    +0.000 A 
ATOM     15  C   UNL     1      -3.943  12.560  23.770  0.00  0.00    +0.000 A 
ATOM     16  C   UNL     1      -3.689  13.171  22.526  0.00  0.00    +0.000 A 
ATOM     17  C   UNL     1      -4.815  13.760  21.882  0.00  0.00    +0.000 A 
ATOM     18 CL   UNL     1      -4.778  14.404  20.272  0.00  0.00    +0.000 Cl
ATOM     19  C   UNL     1      -6.059  13.872  22.520  0.00  0.00    +0.000 A 
ENDBRANCH   1  16
BRANCH   1  20
ATOM     20  C   UNL     1      -1.197  12.761  22.962  0.00  0.00    +0.000 C 
BRANCH  20  21
ATOM     21  N   UNL     1      -0.630  11.473  22.637  0.00  0.00    +0.000 N 
ATOM     22  C   UNL     1      -1.003  10.277  23.195  0.00  0.00    +0.000 A 
ATOM     23  C   UNL     1      -0.066   9.371  22.757  0.00  0.00    +0.000 A 
ATOM     24  N   UNL     1       0.849   9.984  21.938  0.00  0.00    +0.000 NA
ATOM     25  C   UNL     1       0.492  11.251  21.904  0.00  0.00    +0.000 A 
ENDBRANCH  20  21
ENDBRANCH   1  20
TORSDOF 3
ENDMDL
MODEL 7
REMARK VINA RESULT:      -6.0      4.603      7.450
REMARK  Name = 
REMARK  3 active torsions:
REMARK  status: ('A' for Active; 'I' for Inactive)
REMARK    1  A    between atoms: C_5  and  C_6
REMARK    2  A    between atoms: C_6  and  C_7
REMARK    3  A    between atoms: C_7  and  N_8
REMARK                            x       y       z     vdW  Elec       q    Type
REMARK                         _______ _______ _______ _____ _____    ______ ____
ROOT
ATOM      1  C   UNL     1      -1.555  11.583  18.882  0.00  0.00    +0.000 C 
ATOM      2  O   UNL     1      -1.501  10.670  17.728  0.00  0.00    +0.000 OA
ATOM      3  C   UNL     1      -0.222  10.005  17.699  0.00  0.00    +0.000 C 
ATOM      4  C   UNL     1       0.079   9.879  19.144  0.00  0.00    +0.000 A 
ATOM      5  C   UNL     1       1.055   9.094  19.743  0.00  0.00    +0.000 A 
ATOM      6 CL   UNL     1       2.228   8.264  18.803  0.00  0.00    +0.000 Cl
ATOM      7  C   UNL     1       1.080   8.999  21.127  0.00  0.00    +0.000 A 
ATOM      8  C   UNL     1       0.148   9.721  21.874  0.00  0.00    +0.000 A 
ATOM      9 CL   UNL     1       0.101   9.498  23.583  0.00  0.00    +0.000 Cl
ATOM     10  C   UNL     1      -0.753  10.615  21.265  0.00  0.00    +0.000 A 
ATOM     11  C   UNL     1      -0.795  10.701  19.880  0.00  0.00    +0.000 A 
ENDROOT
BRANCH   1  16
ATOM     12 CL   UNL     1      -7.433  12.227  20.257  0.00  0.00    +0.000 Cl
ATOM     13  C   UNL     1      -5.783  12.202  19.775  0.00  0.00    +0.000 A 
ATOM     14  C   UNL     1      -5.413  11.628  18.565  0.00  0.00    +0.000 A 
ATOM     15  C   UNL     1      -4.053  11.530  18.214  0.00  0.00    +0.000 A 
ATOM     16  C   UNL     1      -3.031  11.983  19.071  0.00  0.00    +0.000 A 
ATOM     17  C   UNL     1      -3.461  12.677  20.238  0.00  0.00    +0.000 A 
ATOM     18 CL   UNL     1      -2.384  13.478  21.337  0.00  0.00    +0.000 Cl
ATOM     19  C   UNL     1      -4.815  12.756  20.596  0.00  0.00    +0.000 A 
ENDBRANCH   1  16
BRANCH   1  20
ATOM     20  C   UNL     1      -0.686  12.831  18.479  0.00  0.00    +0.000 C 
BRANCH  20  21
ATOM     21  N   UNL     1       0.521  13.101  19.226  0.00  0.00    +0.000 N 
ATOM     22  C   UNL     1       0.593  13.847  20.374  0.00  0.00    +0.000 A 
ATOM     23  C   UNL     1       1.938  14.016  20.606  0.00  0.00    +0.000 A 
ATOM     24  N   UNL     1       2.675  13.379  19.639  0.00  0.00    +0.000 NA
ATOM     25  C   UNL     1       1.792  12.857  18.814  0.00  0.00    +0.000 A 
ENDBRANCH  20  21
ENDBRANCH   1  20
TORSDOF 3
ENDMDL
MODEL 8
REMARK VINA RESULT:      -6.0      4.797      6.774
REMARK  Name = 
REMARK  3 active torsions:
REMARK  status: ('A' for Active; 'I' for Inactive)
REMARK    1  A    between atoms: C_5  and  C_6
REMARK    2  A    between atoms: C_6  and  C_7
REMARK    3  A    between atoms: C_7  and  N_8
REMARK                            x       y       z     vdW  Elec       q    Type
REMARK                         _______ _______ _______ _____ _____    ______ ____
ROOT
ATOM      1  C   UNL     1      -0.220  11.741  20.807  0.00  0.00    +0.000 C 
ATOM      2  O   UNL     1      -0.131  11.209  22.177  0.00  0.00    +0.000 OA
ATOM      3  C   UNL     1      -0.991  11.971  23.048  0.00  0.00    +0.000 C 
ATOM      4  C   UNL     1      -2.104  12.318  22.134  0.00  0.00    +0.000 A 
ATOM      5  C   UNL     1      -3.351  12.826  22.470  0.00  0.00    +0.000 A 
ATOM      6 CL   UNL     1      -3.707  13.318  24.076  0.00  0.00    +0.000 Cl
ATOM      7  C   UNL     1      -4.314  12.945  21.478  0.00  0.00    +0.000 A 
ATOM      8  C   UNL     1      -3.988  12.584  20.169  0.00  0.00    +0.000 A 
ATOM      9 CL   UNL     1      -5.225  12.612  18.968  0.00  0.00    +0.000 Cl
ATOM     10  C   UNL     1      -2.683  12.195  19.814  0.00  0.00    +0.000 A 
ATOM     11  C   UNL     1      -1.720  12.057  20.805  0.00  0.00    +0.000 A 
ENDROOT
BRANCH   1  16
ATOM     12 CL   UNL     1       3.224   7.789  17.746  0.00  0.00    +0.000 Cl
ATOM     13  C   UNL     1       2.111   8.859  18.502  0.00  0.00    +0.000 A 
ATOM     14  C   UNL     1       1.928  10.145  18.010  0.00  0.00    +0.000 A 
ATOM     15  C   UNL     1       1.082  11.048  18.684  0.00  0.00    +0.000 A 
ATOM     16  C   UNL     1       0.418  10.694  19.874  0.00  0.00    +0.000 A 
ATOM     17  C   UNL     1       0.534   9.331  20.269  0.00  0.00    +0.000 A 
ATOM     18 CL   UNL     1      -0.343   8.631  21.592  0.00  0.00    +0.000 Cl
ATOM     19  C   UNL     1       1.392   8.439  19.609  0.00  0.00    +0.000 A 
ENDBRANCH   1  16
BRANCH   1  20
ATOM     20  C   UNL     1       0.621  13.071  20.811  0.00  0.00    +0.000 C 
BRANCH  20  21
ATOM     21  N   UNL     1       0.061  14.242  20.178  0.00  0.00    +0.000 N 
ATOM     22  C   UNL     1       0.141  14.536  18.841  0.00  0.00    +0.000 A 
ATOM     23  C   UNL     1      -0.328  15.825  18.730  0.00  0.00    +0.000 A 
ATOM     24  N   UNL     1      -0.702  16.306  19.960  0.00  0.00    +0.000 NA
ATOM     25  C   UNL     1      -0.435  15.337  20.810  0.00  0.00    +0.000 A 
ENDBRANCH  20  21
ENDBRANCH   1  20
TORSDOF 3
ENDMDL
MODEL 9
REMARK VINA RESULT:      -5.9      4.790      6.630
REMARK  Name = 
REMARK  3 active torsions:
REMARK  status: ('A' for Active; 'I' for Inactive)
REMARK    1  A    between atoms: C_5  and  C_6
REMARK    2  A    between atoms: C_6  and  C_7
REMARK    3  A    between atoms: C_7  and  N_8
REMARK                            x       y       z     vdW  Elec       q    Type
REMARK                         _______ _______ _______ _____ _____    ______ ____
ROOT
ATOM      1  C   UNL     1      -1.020  12.125  19.651  0.00  0.00    +0.000 C 
ATOM      2  O   UNL     1      -1.082  12.239  18.184  0.00  0.00    +0.000 OA
ATOM      3  C   UNL     1      -2.304  11.642  17.705  0.00  0.00    +0.000 C 
ATOM      4  C   UNL     1      -3.236  11.945  18.816  0.00  0.00    +0.000 A 
ATOM      5  C   UNL     1      -4.621  11.844  18.813  0.00  0.00    +0.000 A 
ATOM      6 CL   UNL     1      -5.458  11.133  17.494  0.00  0.00    +0.000 Cl
ATOM      7  C   UNL     1      -5.327  12.319  19.910  0.00  0.00    +0.000 A 
ATOM      8  C   UNL     1      -4.624  12.849  20.993  0.00  0.00    +0.000 A 
ATOM      9 CL   UNL     1      -5.510  13.554  22.293  0.00  0.00    +0.000 Cl
ATOM     10  C   UNL     1      -3.218  12.826  21.042  0.00  0.00    +0.000 A 
ATOM     11  C   UNL     1      -2.505  12.369  19.941  0.00  0.00    +0.000 A 
ENDROOT
BRANCH   1  16
ATOM     12 CL   UNL     1       3.576  15.063  22.314  0.00  0.00    +0.000 Cl
ATOM     13  C   UNL     1       2.266  14.372  21.442  0.00  0.00    +0.000 A 
ATOM     14  C   UNL     1       0.954  14.686  21.778  0.00  0.00    +0.000 A 
ATOM     15  C   UNL     1      -0.117  14.050  21.122  0.00  0.00    +0.000 A 
ATOM     16  C   UNL     1       0.096  13.072  20.130  0.00  0.00    +0.000 A 
ATOM     17  C   UNL     1       1.449  12.877  19.730  0.00  0.00    +0.000 A 
ATOM     18 CL   UNL     1       1.927  11.864  18.407  0.00  0.00    +0.000 Cl
ATOM     19  C   UNL     1       2.515  13.496  20.399  0.00  0.00    +0.000 A 
ENDBRANCH   1  16
BRANCH   1  20
ATOM     20  C   UNL     1      -0.643  10.625  19.945  0.00  0.00    +0.000 C 
BRANCH  20  21
ATOM     21  N   UNL     1      -0.084  10.296  21.236  0.00  0.00    +0.000 N 
ATOM     22  C   UNL     1       1.000   9.484  21.448  0.00  0.00    +0.000 A 
ATOM     23  C   UNL     1       1.035   9.283  22.808  0.00  0.00    +0.000 A 
ATOM     24  N   UNL     1       0.013   9.964  23.420  0.00  0.00    +0.000 NA
ATOM     25  C   UNL     1      -0.653  10.545  22.444  0.00  0.00    +0.000 A 
ENDBRANCH  20  21
ENDBRANCH   1  20
TORSDOF 3
ENDMDL
