MODEL 1
REMARK VINA RESULT:      -8.5      0.000      0.000
REMARK  Name = 
REMARK  10 active torsions:
REMARK  status: ('A' for Active; 'I' for Inactive)
REMARK    1  A    between atoms: C_1  and  N_2
REMARK    2  A    between atoms: N_2  and  C_3
REMARK    3  A    between atoms: N_2  and  C_4
REMARK    4  A    between atoms: C_4  and  C_5
REMARK    5  A    between atoms: C_5  and  N_6
REMARK    6  A    between atoms: N_6  and  S_7
REMARK    7  A    between atoms: S_7  and  C_10
REMARK    8  A    between atoms: C_13  and  N_14
REMARK    9  A    between atoms: C_16  and  C_17
REMARK   10  A    between atoms: C_24  and  N_25
REMARK                            x       y       z     vdW  Elec       q    Type
REMARK                         _______ _______ _______ _____ _____    ______ ____
ROOT
ATOM      1  N   UNL     1       2.290   5.848  18.537  0.00  0.00    +0.000 N 
ATOM      2  N   UNL     1       1.558   4.760  19.039  0.00  0.00    +0.000 NA
ATOM      3  C   UNL     1       2.498   3.806  19.209  0.00  0.00    +0.000 A 
ATOM      4  C   UNL     1       3.707   4.326  18.755  0.00  0.00    +0.000 A 
ATOM      5  C   UNL     1       3.365   5.269  17.779  0.00  0.00    +0.000 A 
ATOM      6  C   UNL     1       4.534   5.638  16.912  0.00  0.00    +0.000 A 
ATOM      7  C   UNL     1       4.869   4.790  15.807  0.00  0.00    +0.000 A 
ATOM      8  C   UNL     1       6.198   4.669  15.311  0.00  0.00    +0.000 A 
ATOM      9  C   UNL     1       7.179   5.534  15.790  0.00  0.00    +0.000 A 
ATOM     10  C   UNL     1       6.918   6.269  16.936  0.00  0.00    +0.000 A 
ATOM     11  C   UNL     1       5.689   6.073  17.591  0.00  0.00    +0.000 A 
ATOM     12  C   UNL     1       5.794   5.554  19.049  0.00  0.00    +0.000 C 
ATOM     13  C   UNL     1       5.132   4.120  19.125  0.00  0.00    +0.000 C 
ENDROOT
BRANCH   1  17
ATOM     14  C   UNL     1       1.204   9.686  20.271  0.00  0.00    +0.000 A 
ATOM     15  C   UNL     1       1.307   8.547  21.036  0.00  0.00    +0.000 A 
ATOM     16  C   UNL     1       1.655   7.314  20.422  0.00  0.00    +0.000 A 
ATOM     17  C   UNL     1       1.928   7.187  19.020  0.00  0.00    +0.000 A 
ATOM     18  C   UNL     1       1.858   8.361  18.265  0.00  0.00    +0.000 A 
ATOM     19  C   UNL     1       1.465   9.597  18.883  0.00  0.00    +0.000 A 
BRANCH  14  20
ATOM     20  S   UNL     1       0.533  11.186  21.026  0.00  0.00    +0.000 S 
ATOM     21  O   UNL     1      -0.723  11.501  20.374  0.00  0.00    +0.000 OA
ATOM     22  O   UNL     1       1.625  12.136  21.036  0.00  0.00    +0.000 OA
BRANCH  20  23
ATOM     23  N   UNL     1       0.211  10.814  22.647  0.00  0.00    +0.000 NA
ATOM     24  H   UNL     1       0.730   9.987  22.946  0.00  0.00    +0.000 HD
BRANCH  23  25
ATOM     25  C   UNL     1      -1.211  10.685  23.083  0.00  0.00    +0.000 C 
BRANCH  25  26
ATOM     26  C   UNL     1      -1.851  12.060  23.320  0.00  0.00    +0.000 C 
BRANCH  26  28
ATOM     27  C   UNL     1      -3.994  12.548  24.372  0.00  0.00    +0.000 C 
ATOM     28  N   UNL     1      -3.325  12.031  23.173  0.00  0.00    +0.000 NA
ATOM     29  C   UNL     1      -3.710  12.839  22.012  0.00  0.00    +0.000 C 
ENDBRANCH  26  28
ENDBRANCH  25  26
ENDBRANCH  23  25
ENDBRANCH  20  23
ENDBRANCH  14  20
ENDBRANCH   1  17
BRANCH   3  30
ATOM     30  C   UNL     1       2.286   2.478  19.792  0.00  0.00    +0.000 C 
ATOM     31  N   UNL     1       1.689   1.550  18.991  0.00  0.00    +0.000 N 
ATOM     32  O   UNL     1       2.643   2.185  20.930  0.00  0.00    +0.000 OA
ATOM     33  H   UNL     1       1.483   1.769  18.026  0.00  0.00    +0.000 HD
ATOM     34  H   UNL     1       1.651   0.599  19.326  0.00  0.00    +0.000 HD
ENDBRANCH   3  30
BRANCH   8  35
ATOM     35  N   UNL     1       6.595   3.594  14.479  0.00  0.00    +0.000 N 
ATOM     36  H   UNL     1       6.223   2.707  14.818  0.00  0.00    +0.000 HD
ATOM     37  H   UNL     1       7.609   3.505  14.415  0.00  0.00    +0.000 HD
ENDBRANCH   8  35
TORSDOF 8
ENDMDL
MODEL 2
REMARK VINA RESULT:      -8.5      2.020      2.639
REMARK  Name = 
REMARK  10 active torsions:
REMARK  status: ('A' for Active; 'I' for Inactive)
REMARK    1  A    between atoms: C_1  and  N_2
REMARK    2  A    between atoms: N_2  and  C_3
REMARK    3  A    between atoms: N_2  and  C_4
REMARK    4  A    between atoms: C_4  and  C_5
REMARK    5  A    between atoms: C_5  and  N_6
REMARK    6  A    between atoms: N_6  and  S_7
REMARK    7  A    between atoms: S_7  and  C_10
REMARK    8  A    between atoms: C_13  and  N_14
REMARK    9  A    between atoms: C_16  and  C_17
REMARK   10  A    between atoms: C_24  and  N_25
REMARK                            x       y       z     vdW  Elec       q    Type
REMARK                         _______ _______ _______ _____ _____    ______ ____
ROOT
ATOM      1  N   UNL     1       2.305   5.915  18.423  0.00  0.00    +0.000 N 
ATOM      2  N   UNL     1       1.542   4.855  18.936  0.00  0.00    +0.000 NA
ATOM      3  C   UNL     1       2.455   3.881  19.135  0.00  0.00    +0.000 A 
ATOM      4  C   UNL     1       3.682   4.363  18.686  0.00  0.00    +0.000 A 
ATOM      5  C   UNL     1       3.376   5.296  17.688  0.00  0.00    +0.000 A 
ATOM      6  C   UNL     1       4.563   5.621  16.830  0.00  0.00    +0.000 A 
ATOM      7  C   UNL     1       4.890   4.744  15.744  0.00  0.00    +0.000 A 
ATOM      8  C   UNL     1       6.222   4.583  15.267  0.00  0.00    +0.000 A 
ATOM      9  C   UNL     1       7.217   5.432  15.743  0.00  0.00    +0.000 A 
ATOM     10  C   UNL     1       6.961   6.193  16.872  0.00  0.00    +0.000 A 
ATOM     11  C   UNL     1       5.721   6.039  17.515  0.00  0.00    +0.000 A 
ATOM     12  C   UNL     1       5.795   5.545  18.983  0.00  0.00    +0.000 C 
ATOM     13  C   UNL     1       5.097   4.130  19.077  0.00  0.00    +0.000 C 
ENDROOT
BRANCH   1  17
ATOM     14  C   UNL     1       1.332  10.026  19.456  0.00  0.00    +0.000 A 
ATOM     15  C   UNL     1       1.591   9.645  18.160  0.00  0.00    +0.000 A 
ATOM     16  C   UNL     1       1.915   8.292  17.873  0.00  0.00    +0.000 A 
ATOM     17  C   UNL     1       1.971   7.271  18.878  0.00  0.00    +0.000 A 
ATOM     18  C   UNL     1       1.666   7.667  20.183  0.00  0.00    +0.000 A 
ATOM     19  C   UNL     1       1.381   9.044  20.475  0.00  0.00    +0.000 A 
BRANCH  14  20
ATOM     20  S   UNL     1       1.157  11.786  19.831  0.00  0.00    +0.000 S 
ATOM     21  O   UNL     1       2.204  12.507  19.133  0.00  0.00    +0.000 OA
ATOM     22  O   UNL     1       1.031  11.867  21.270  0.00  0.00    +0.000 OA
BRANCH  20  23
ATOM     23  N   UNL     1      -0.335  12.274  19.195  0.00  0.00    +0.000 NA
ATOM     24  H   UNL     1      -0.512  13.263  19.384  0.00  0.00    +0.000 HD
BRANCH  23  25
ATOM     25  C   UNL     1      -1.554  11.484  19.540  0.00  0.00    +0.000 C 
BRANCH  25  26
ATOM     26  C   UNL     1      -2.044  10.658  18.343  0.00  0.00    +0.000 C 
BRANCH  26  28
ATOM     27  C   UNL     1      -2.675  10.914  16.004  0.00  0.00    +0.000 C 
ATOM     28  N   UNL     1      -2.782  11.477  17.354  0.00  0.00    +0.000 NA
ATOM     29  C   UNL     1      -4.193  11.550  17.742  0.00  0.00    +0.000 C 
ENDBRANCH  26  28
ENDBRANCH  25  26
ENDBRANCH  23  25
ENDBRANCH  20  23
ENDBRANCH  14  20
ENDBRANCH   1  17
BRANCH   3  30
ATOM     30  C   UNL     1       2.205   2.569  19.738  0.00  0.00    +0.000 C 
ATOM     31  N   UNL     1       2.121   1.512  18.882  0.00  0.00    +0.000 N 
ATOM     32  O   UNL     1       2.098   2.403  20.951  0.00  0.00    +0.000 OA
ATOM     33  H   UNL     1       2.302   1.640  17.896  0.00  0.00    +0.000 HD
ATOM     34  H   UNL     1       2.077   0.587  19.284  0.00  0.00    +0.000 HD
ENDBRANCH   3  30
BRANCH   8  35
ATOM     35  N   UNL     1       6.602   3.483  14.459  0.00  0.00    +0.000 N 
ATOM     36  H   UNL     1       7.524   3.133  14.720  0.00  0.00    +0.000 HD
ATOM     37  H   UNL     1       6.627   3.719  13.467  0.00  0.00    +0.000 HD
ENDBRANCH   8  35
TORSDOF 8
ENDMDL
MODEL 3
REMARK VINA RESULT:      -8.5      2.358      2.964
REMARK  Name = 
REMARK  10 active torsions:
REMARK  status: ('A' for Active; 'I' for Inactive)
REMARK    1  A    between atoms: C_1  and  N_2
REMARK    2  A    between atoms: N_2  and  C_3
REMARK    3  A    between atoms: N_2  and  C_4
REMARK    4  A    between atoms: C_4  and  C_5
REMARK    5  A    between atoms: C_5  and  N_6
REMARK    6  A    between atoms: N_6  and  S_7
REMARK    7  A    between atoms: S_7  and  C_10
REMARK    8  A    between atoms: C_13  and  N_14
REMARK    9  A    between atoms: C_16  and  C_17
REMARK   10  A    between atoms: C_24  and  N_25
REMARK                            x       y       z     vdW  Elec       q    Type
REMARK                         _______ _______ _______ _____ _____    ______ ____
ROOT
ATOM      1  N   UNL     1       2.822   5.451  18.856  0.00  0.00    +0.000 N 
ATOM      2  N   UNL     1       2.527   4.372  19.705  0.00  0.00    +0.000 NA
ATOM      3  C   UNL     1       3.683   3.676  19.735  0.00  0.00    +0.000 A 
ATOM      4  C   UNL     1       4.576   4.313  18.878  0.00  0.00    +0.000 A 
ATOM      5  C   UNL     1       3.783   4.946  17.914  0.00  0.00    +0.000 A 
ATOM      6  C   UNL     1       4.572   5.344  16.701  0.00  0.00    +0.000 A 
ATOM      7  C   UNL     1       4.818   4.364  15.685  0.00  0.00    +0.000 A 
ATOM      8  C   UNL     1       5.970   4.403  14.849  0.00  0.00    +0.000 A 
ATOM      9  C   UNL     1       6.797   5.522  14.889  0.00  0.00    +0.000 A 
ATOM     10  C   UNL     1       6.658   6.416  15.939  0.00  0.00    +0.000 A 
ATOM     11  C   UNL     1       5.717   6.128  16.943  0.00  0.00    +0.000 A 
ATOM     12  C   UNL     1       6.305   5.957  18.368  0.00  0.00    +0.000 C 
ATOM     13  C   UNL     1       6.054   4.471  18.845  0.00  0.00    +0.000 C 
ENDROOT
BRANCH   1  17
ATOM     14  C   UNL     1       1.247   9.433  19.618  0.00  0.00    +0.000 A 
ATOM     15  C   UNL     1       1.699   9.057  18.374  0.00  0.00    +0.000 A 
ATOM     16  C   UNL     1       2.214   7.748  18.176  0.00  0.00    +0.000 A 
ATOM     17  C   UNL     1       2.276   6.766  19.219  0.00  0.00    +0.000 A 
ATOM     18  C   UNL     1       1.775   7.151  20.466  0.00  0.00    +0.000 A 
ATOM     19  C   UNL     1       1.294   8.489  20.671  0.00  0.00    +0.000 A 
BRANCH  14  20
ATOM     20  S   UNL     1       0.818  11.166  19.903  0.00  0.00    +0.000 S 
ATOM     21  O   UNL     1       1.395  11.960  18.836  0.00  0.00    +0.000 OA
ATOM     22  O   UNL     1       1.152  11.426  21.287  0.00  0.00    +0.000 OA
BRANCH  20  23
ATOM     23  N   UNL     1      -0.869  11.276  19.793  0.00  0.00    +0.000 NA
ATOM     24  H   UNL     1      -1.313  10.386  20.026  0.00  0.00    +0.000 HD
BRANCH  23  25
ATOM     25  C   UNL     1      -1.471  11.809  18.534  0.00  0.00    +0.000 C 
BRANCH  25  26
ATOM     26  C   UNL     1      -2.389  10.773  17.871  0.00  0.00    +0.000 C 
BRANCH  26  28
ATOM     27  C   UNL     1      -2.766  10.384  15.496  0.00  0.00    +0.000 C 
ATOM     28  N   UNL     1      -3.013  11.283  16.628  0.00  0.00    +0.000 NA
ATOM     29  C   UNL     1      -4.458  11.422  16.835  0.00  0.00    +0.000 C 
ENDBRANCH  26  28
ENDBRANCH  25  26
ENDBRANCH  23  25
ENDBRANCH  20  23
ENDBRANCH  14  20
ENDBRANCH   1  17
BRANCH   3  30
ATOM     30  C   UNL     1       3.955   2.485  20.545  0.00  0.00    +0.000 C 
ATOM     31  N   UNL     1       4.945   1.660  20.100  0.00  0.00    +0.000 N 
ATOM     32  O   UNL     1       3.353   2.235  21.586  0.00  0.00    +0.000 OA
ATOM     33  H   UNL     1       5.499   1.919  19.295  0.00  0.00    +0.000 HD
ATOM     34  H   UNL     1       5.234   0.907  20.707  0.00  0.00    +0.000 HD
ENDBRANCH   3  30
BRANCH   8  35
ATOM     35  N   UNL     1       6.398   3.274  14.107  0.00  0.00    +0.000 N 
ATOM     36  H   UNL     1       5.657   2.576  14.035  0.00  0.00    +0.000 HD
ATOM     37  H   UNL     1       7.214   2.823  14.519  0.00  0.00    +0.000 HD
ENDBRANCH   8  35
TORSDOF 8
ENDMDL
MODEL 4
REMARK VINA RESULT:      -8.4      1.871      2.345
REMARK  Name = 
REMARK  10 active torsions:
REMARK  status: ('A' for Active; 'I' for Inactive)
REMARK    1  A    between atoms: C_1  and  N_2
REMARK    2  A    between atoms: N_2  and  C_3
REMARK    3  A    between atoms: N_2  and  C_4
REMARK    4  A    between atoms: C_4  and  C_5
REMARK    5  A    between atoms: C_5  and  N_6
REMARK    6  A    between atoms: N_6  and  S_7
REMARK    7  A    between atoms: S_7  and  C_10
REMARK    8  A    between atoms: C_13  and  N_14
REMARK    9  A    between atoms: C_16  and  C_17
REMARK   10  A    between atoms: C_24  and  N_25
REMARK                            x       y       z     vdW  Elec       q    Type
REMARK                         _______ _______ _______ _____ _____    ______ ____
ROOT
ATOM      1  N   UNL     1       2.309   5.777  18.486  0.00  0.00    +0.000 N 
ATOM      2  N   UNL     1       1.557   4.667  18.903  0.00  0.00    +0.000 NA
ATOM      3  C   UNL     1       2.481   3.690  19.018  0.00  0.00    +0.000 A 
ATOM      4  C   UNL     1       3.703   4.223  18.617  0.00  0.00    +0.000 A 
ATOM      5  C   UNL     1       3.387   5.237  17.704  0.00  0.00    +0.000 A 
ATOM      6  C   UNL     1       4.573   5.649  16.880  0.00  0.00    +0.000 A 
ATOM      7  C   UNL     1       4.911   4.875  15.723  0.00  0.00    +0.000 A 
ATOM      8  C   UNL     1       6.246   4.771  15.237  0.00  0.00    +0.000 A 
ATOM      9  C   UNL     1       7.231   5.586  15.788  0.00  0.00    +0.000 A 
ATOM     10  C   UNL     1       6.964   6.243  16.979  0.00  0.00    +0.000 A 
ATOM     11  C   UNL     1       5.724   6.019  17.603  0.00  0.00    +0.000 A 
ATOM     12  C   UNL     1       5.802   5.399  19.022  0.00  0.00    +0.000 C 
ATOM     13  C   UNL     1       5.120   3.973  18.989  0.00  0.00    +0.000 C 
ENDROOT
BRANCH   1  17
ATOM     14  C   UNL     1       1.242   9.499  20.469  0.00  0.00    +0.000 A 
ATOM     15  C   UNL     1       1.297   8.303  21.149  0.00  0.00    +0.000 A 
ATOM     16  C   UNL     1       1.640   7.112  20.455  0.00  0.00    +0.000 A 
ATOM     17  C   UNL     1       1.958   7.084  19.058  0.00  0.00    +0.000 A 
ATOM     18  C   UNL     1       1.938   8.313  18.391  0.00  0.00    +0.000 A 
ATOM     19  C   UNL     1       1.549   9.508  19.087  0.00  0.00    +0.000 A 
BRANCH  14  20
ATOM     20  S   UNL     1       0.577  10.953  21.312  0.00  0.00    +0.000 S 
ATOM     21  O   UNL     1       1.425  12.087  21.001  0.00  0.00    +0.000 OA
ATOM     22  O   UNL     1       0.359  10.541  22.683  0.00  0.00    +0.000 OA
BRANCH  20  23
ATOM     23  N   UNL     1      -0.956  11.240  20.653  0.00  0.00    +0.000 NA
ATOM     24  H   UNL     1      -1.511  10.383  20.622  0.00  0.00    +0.000 HD
BRANCH  23  25
ATOM     25  C   UNL     1      -1.050  11.933  19.333  0.00  0.00    +0.000 C 
BRANCH  25  26
ATOM     26  C   UNL     1      -2.502  11.997  18.837  0.00  0.00    +0.000 C 
BRANCH  26  28
ATOM     27  C   UNL     1      -1.909  10.229  17.270  0.00  0.00    +0.000 C 
ATOM     28  N   UNL     1      -2.652  11.479  17.458  0.00  0.00    +0.000 NA
ATOM     29  C   UNL     1      -4.073  11.249  17.180  0.00  0.00    +0.000 C 
ENDBRANCH  26  28
ENDBRANCH  25  26
ENDBRANCH  23  25
ENDBRANCH  20  23
ENDBRANCH  14  20
ENDBRANCH   1  17
BRANCH   3  30
ATOM     30  C   UNL     1       2.244   2.328  19.503  0.00  0.00    +0.000 C 
ATOM     31  N   UNL     1       2.540   1.315  18.640  0.00  0.00    +0.000 N 
ATOM     32  O   UNL     1       1.827   2.086  20.633  0.00  0.00    +0.000 OA
ATOM     33  H   UNL     1       2.970   1.516  17.748  0.00  0.00    +0.000 HD
ATOM     34  H   UNL     1       2.506   0.371  18.998  0.00  0.00    +0.000 HD
ENDBRANCH   3  30
BRANCH   8  35
ATOM     35  N   UNL     1       6.640   3.751  14.337  0.00  0.00    +0.000 N 
ATOM     36  H   UNL     1       5.837   3.212  14.013  0.00  0.00    +0.000 HD
ATOM     37  H   UNL     1       7.307   3.100  14.753  0.00  0.00    +0.000 HD
ENDBRANCH   8  35
TORSDOF 8
ENDMDL
MODEL 5
REMARK VINA RESULT:      -8.3      1.044      1.526
REMARK  Name = 
REMARK  10 active torsions:
REMARK  status: ('A' for Active; 'I' for Inactive)
REMARK    1  A    between atoms: C_1  and  N_2
REMARK    2  A    between atoms: N_2  and  C_3
REMARK    3  A    between atoms: N_2  and  C_4
REMARK    4  A    between atoms: C_4  and  C_5
REMARK    5  A    between atoms: C_5  and  N_6
REMARK    6  A    between atoms: N_6  and  S_7
REMARK    7  A    between atoms: S_7  and  C_10
REMARK    8  A    between atoms: C_13  and  N_14
REMARK    9  A    between atoms: C_16  and  C_17
REMARK   10  A    between atoms: C_24  and  N_25
REMARK                            x       y       z     vdW  Elec       q    Type
REMARK                         _______ _______ _______ _____ _____    ______ ____
ROOT
ATOM      1  N   UNL     1       2.322   5.920  18.449  0.00  0.00    +0.000 N 
ATOM      2  N   UNL     1       1.553   4.867  18.970  0.00  0.00    +0.000 NA
ATOM      3  C   UNL     1       2.459   3.886  19.163  0.00  0.00    +0.000 A 
ATOM      4  C   UNL     1       3.687   4.356  18.705  0.00  0.00    +0.000 A 
ATOM      5  C   UNL     1       3.381   5.290  17.708  0.00  0.00    +0.000 A 
ATOM      6  C   UNL     1       4.565   5.603  16.840  0.00  0.00    +0.000 A 
ATOM      7  C   UNL     1       4.876   4.722  15.754  0.00  0.00    +0.000 A 
ATOM      8  C   UNL     1       6.203   4.548  15.268  0.00  0.00    +0.000 A 
ATOM      9  C   UNL     1       7.210   5.389  15.735  0.00  0.00    +0.000 A 
ATOM     10  C   UNL     1       6.968   6.154  16.864  0.00  0.00    +0.000 A 
ATOM     11  C   UNL     1       5.731   6.012  17.517  0.00  0.00    +0.000 A 
ATOM     12  C   UNL     1       5.812   5.520  18.985  0.00  0.00    +0.000 C 
ATOM     13  C   UNL     1       5.102   4.111  19.086  0.00  0.00    +0.000 C 
ENDROOT
BRANCH   1  17
ATOM     14  C   UNL     1       1.405  10.043  19.485  0.00  0.00    +0.000 A 
ATOM     15  C   UNL     1       1.692   9.666  18.193  0.00  0.00    +0.000 A 
ATOM     16  C   UNL     1       1.996   8.308  17.906  0.00  0.00    +0.000 A 
ATOM     17  C   UNL     1       2.003   7.280  18.904  0.00  0.00    +0.000 A 
ATOM     18  C   UNL     1       1.669   7.673  20.204  0.00  0.00    +0.000 A 
ATOM     19  C   UNL     1       1.405   9.054  20.497  0.00  0.00    +0.000 A 
BRANCH  14  20
ATOM     20  S   UNL     1       1.255  11.804  19.866  0.00  0.00    +0.000 S 
ATOM     21  O   UNL     1       2.032  12.548  18.894  0.00  0.00    +0.000 OA
ATOM     22  O   UNL     1       1.530  11.919  21.283  0.00  0.00    +0.000 OA
BRANCH  20  23
ATOM     23  N   UNL     1      -0.377  12.210  19.665  0.00  0.00    +0.000 NA
ATOM     24  H   UNL     1      -0.503  13.224  19.627  0.00  0.00    +0.000 HD
BRANCH  23  25
ATOM     25  C   UNL     1      -1.382  11.627  20.602  0.00  0.00    +0.000 C 
BRANCH  25  26
ATOM     26  C   UNL     1      -1.960  12.696  21.540  0.00  0.00    +0.000 C 
BRANCH  26  28
ATOM     27  C   UNL     1      -3.194  12.299  23.602  0.00  0.00    +0.000 C 
ATOM     28  N   UNL     1      -1.872  12.305  22.966  0.00  0.00    +0.000 NA
ATOM     29  C   UNL     1      -1.275  10.970  23.066  0.00  0.00    +0.000 C 
ENDBRANCH  26  28
ENDBRANCH  25  26
ENDBRANCH  23  25
ENDBRANCH  20  23
ENDBRANCH  14  20
ENDBRANCH   1  17
BRANCH   3  30
ATOM     30  C   UNL     1       2.201   2.577  19.771  0.00  0.00    +0.000 C 
ATOM     31  N   UNL     1       1.927   1.552  18.915  0.00  0.00    +0.000 N 
ATOM     32  O   UNL     1       2.249   2.384  20.983  0.00  0.00    +0.000 OA
ATOM     33  H   UNL     1       1.981   1.696  17.916  0.00  0.00    +0.000 HD
ATOM     34  H   UNL     1       1.873   0.622  19.302  0.00  0.00    +0.000 HD
ENDBRANCH   3  30
BRANCH   8  35
ATOM     35  N   UNL     1       6.568   3.443  14.459  0.00  0.00    +0.000 N 
ATOM     36  H   UNL     1       5.910   2.671  14.568  0.00  0.00    +0.000 HD
ATOM     37  H   UNL     1       7.501   3.093  14.675  0.00  0.00    +0.000 HD
ENDBRANCH   8  35
TORSDOF 8
ENDMDL
MODEL 6
REMARK VINA RESULT:      -8.3      2.243      2.822
REMARK  Name = 
REMARK  10 active torsions:
REMARK  status: ('A' for Active; 'I' for Inactive)
REMARK    1  A    between atoms: C_1  and  N_2
REMARK    2  A    between atoms: N_2  and  C_3
REMARK    3  A    between atoms: N_2  and  C_4
REMARK    4  A    between atoms: C_4  and  C_5
REMARK    5  A    between atoms: C_5  and  N_6
REMARK    6  A    between atoms: N_6  and  S_7
REMARK    7  A    between atoms: S_7  and  C_10
REMARK    8  A    between atoms: C_13  and  N_14
REMARK    9  A    between atoms: C_16  and  C_17
REMARK   10  A    between atoms: C_24  and  N_25
REMARK                            x       y       z     vdW  Elec       q    Type
REMARK                         _______ _______ _______ _____ _____    ______ ____
ROOT
ATOM      1  N   UNL     1       2.407   6.063  18.940  0.00  0.00    +0.000 N 
ATOM      2  N   UNL     1       1.847   5.049  19.733  0.00  0.00    +0.000 NA
ATOM      3  C   UNL     1       2.876   4.197  19.921  0.00  0.00    +0.000 A 
ATOM      4  C   UNL     1       3.962   4.689  19.202  0.00  0.00    +0.000 A 
ATOM      5  C   UNL     1       3.409   5.414  18.139  0.00  0.00    +0.000 A 
ATOM      6  C   UNL     1       4.408   5.679  17.051  0.00  0.00    +0.000 A 
ATOM      7  C   UNL     1       4.653   4.659  16.074  0.00  0.00    +0.000 A 
ATOM      8  C   UNL     1       5.904   4.523  15.409  0.00  0.00    +0.000 A 
ATOM      9  C   UNL     1       6.867   5.515  15.572  0.00  0.00    +0.000 A 
ATOM     10  C   UNL     1       6.711   6.435  16.597  0.00  0.00    +0.000 A 
ATOM     11  C   UNL     1       5.608   6.296  17.457  0.00  0.00    +0.000 A 
ATOM     12  C   UNL     1       5.961   6.065  18.950  0.00  0.00    +0.000 C 
ATOM     13  C   UNL     1       5.437   4.636  19.378  0.00  0.00    +0.000 C 
ENDROOT
BRANCH   1  17
ATOM     14  C   UNL     1       1.267  10.225  19.480  0.00  0.00    +0.000 A 
ATOM     15  C   UNL     1       1.646   9.730  18.254  0.00  0.00    +0.000 A 
ATOM     16  C   UNL     1       2.020   8.365  18.129  0.00  0.00    +0.000 A 
ATOM     17  C   UNL     1       2.008   7.446  19.230  0.00  0.00    +0.000 A 
ATOM     18  C   UNL     1       1.581   7.956  20.460  0.00  0.00    +0.000 A 
ATOM     19  C   UNL     1       1.245   9.347  20.590  0.00  0.00    +0.000 A 
BRANCH  14  20
ATOM     20  S   UNL     1       1.025  12.007  19.665  0.00  0.00    +0.000 S 
ATOM     21  O   UNL     1       1.456  12.654  18.441  0.00  0.00    +0.000 OA
ATOM     22  O   UNL     1       1.622  12.351  20.937  0.00  0.00    +0.000 OA
BRANCH  20  23
ATOM     23  N   UNL     1      -0.641  12.258  19.839  0.00  0.00    +0.000 NA
ATOM     24  H   UNL     1      -0.897  12.371  20.822  0.00  0.00    +0.000 HD
BRANCH  23  25
ATOM     25  C   UNL     1      -1.583  11.294  19.195  0.00  0.00    +0.000 C 
BRANCH  25  26
ATOM     26  C   UNL     1      -1.825  11.648  17.721  0.00  0.00    +0.000 C 
BRANCH  26  28
ATOM     27  C   UNL     1      -3.225   9.656  17.633  0.00  0.00    +0.000 C 
ATOM     28  N   UNL     1      -2.240  10.475  16.918  0.00  0.00    +0.000 NA
ATOM     29  C   UNL     1      -2.815  10.935  15.651  0.00  0.00    +0.000 C 
ENDBRANCH  26  28
ENDBRANCH  25  26
ENDBRANCH  23  25
ENDBRANCH  20  23
ENDBRANCH  14  20
ENDBRANCH   1  17
BRANCH   3  30
ATOM     30  C   UNL     1       2.860   2.991  20.754  0.00  0.00    +0.000 C 
ATOM     31  N   UNL     1       2.179   3.074  21.932  0.00  0.00    +0.000 N 
ATOM     32  O   UNL     1       3.402   1.941  20.417  0.00  0.00    +0.000 OA
ATOM     33  H   UNL     1       1.657   3.909  22.160  0.00  0.00    +0.000 HD
ATOM     34  H   UNL     1       2.048   2.222  22.457  0.00  0.00    +0.000 HD
ENDBRANCH   3  30
BRANCH   8  35
ATOM     35  N   UNL     1       6.267   3.335  14.728  0.00  0.00    +0.000 N 
ATOM     36  H   UNL     1       6.689   3.542  13.822  0.00  0.00    +0.000 HD
ATOM     37  H   UNL     1       5.470   2.719  14.568  0.00  0.00    +0.000 HD
ENDBRANCH   8  35
TORSDOF 8
ENDMDL
MODEL 7
REMARK VINA RESULT:      -8.2      1.006      1.168
REMARK  Name = 
REMARK  10 active torsions:
REMARK  status: ('A' for Active; 'I' for Inactive)
REMARK    1  A    between atoms: C_1  and  N_2
REMARK    2  A    between atoms: N_2  and  C_3
REMARK    3  A    between atoms: N_2  and  C_4
REMARK    4  A    between atoms: C_4  and  C_5
REMARK    5  A    between atoms: C_5  and  N_6
REMARK    6  A    between atoms: N_6  and  S_7
REMARK    7  A    between atoms: S_7  and  C_10
REMARK    8  A    between atoms: C_13  and  N_14
REMARK    9  A    between atoms: C_16  and  C_17
REMARK   10  A    between atoms: C_24  and  N_25
REMARK                            x       y       z     vdW  Elec       q    Type
REMARK                         _______ _______ _______ _____ _____    ______ ____
ROOT
ATOM      1  N   UNL     1       2.311   5.832  18.369  0.00  0.00    +0.000 N 
ATOM      2  N   UNL     1       1.539   4.727  18.760  0.00  0.00    +0.000 NA
ATOM      3  C   UNL     1       2.453   3.745  18.903  0.00  0.00    +0.000 A 
ATOM      4  C   UNL     1       3.690   4.270  18.542  0.00  0.00    +0.000 A 
ATOM      5  C   UNL     1       3.410   5.287  17.620  0.00  0.00    +0.000 A 
ATOM      6  C   UNL     1       4.624   5.691  16.835  0.00  0.00    +0.000 A 
ATOM      7  C   UNL     1       4.994   4.916  15.688  0.00  0.00    +0.000 A 
ATOM      8  C   UNL     1       6.343   4.804  15.245  0.00  0.00    +0.000 A 
ATOM      9  C   UNL     1       7.315   5.613  15.827  0.00  0.00    +0.000 A 
ATOM     10  C   UNL     1       7.014   6.270  17.010  0.00  0.00    +0.000 A 
ATOM     11  C   UNL     1       5.754   6.054  17.594  0.00  0.00    +0.000 A 
ATOM     12  C   UNL     1       5.783   5.432  19.014  0.00  0.00    +0.000 C 
ATOM     13  C   UNL     1       5.093   4.010  18.959  0.00  0.00    +0.000 C 
ENDROOT
BRANCH   1  17
ATOM     14  C   UNL     1       1.237   9.566  20.325  0.00  0.00    +0.000 A 
ATOM     15  C   UNL     1       1.368   8.390  21.027  0.00  0.00    +0.000 A 
ATOM     16  C   UNL     1       1.710   7.193  20.342  0.00  0.00    +0.000 A 
ATOM     17  C   UNL     1       1.951   7.142  18.930  0.00  0.00    +0.000 A 
ATOM     18  C   UNL     1       1.854   8.353  18.238  0.00  0.00    +0.000 A 
ATOM     19  C   UNL     1       1.466   9.551  18.928  0.00  0.00    +0.000 A 
BRANCH  14  20
ATOM     20  S   UNL     1       0.574  11.018  21.172  0.00  0.00    +0.000 S 
ATOM     21  O   UNL     1       1.500  12.118  20.985  0.00  0.00    +0.000 OA
ATOM     22  O   UNL     1       0.216  10.565  22.499  0.00  0.00    +0.000 OA
BRANCH  20  23
ATOM     23  N   UNL     1      -0.880  11.413  20.398  0.00  0.00    +0.000 NA
ATOM     24  H   UNL     1      -0.944  10.965  19.482  0.00  0.00    +0.000 HD
BRANCH  23  25
ATOM     25  C   UNL     1      -1.253  12.853  20.264  0.00  0.00    +0.000 C 
BRANCH  25  26
ATOM     26  C   UNL     1      -1.975  13.363  21.519  0.00  0.00    +0.000 C 
BRANCH  26  28
ATOM     27  C   UNL     1      -3.030  12.360  23.473  0.00  0.00    +0.000 C 
ATOM     28  N   UNL     1      -3.001  12.413  22.007  0.00  0.00    +0.000 NA
ATOM     29  C   UNL     1      -4.317  12.823  21.507  0.00  0.00    +0.000 C 
ENDBRANCH  26  28
ENDBRANCH  25  26
ENDBRANCH  23  25
ENDBRANCH  20  23
ENDBRANCH  14  20
ENDBRANCH   1  17
BRANCH   3  30
ATOM     30  C   UNL     1       2.192   2.383  19.380  0.00  0.00    +0.000 C 
ATOM     31  N   UNL     1       2.604   1.366  18.571  0.00  0.00    +0.000 N 
ATOM     32  O   UNL     1       1.657   2.147  20.460  0.00  0.00    +0.000 OA
ATOM     33  H   UNL     1       3.126   1.566  17.729  0.00  0.00    +0.000 HD
ATOM     34  H   UNL     1       2.550   0.427  18.937  0.00  0.00    +0.000 HD
ENDBRANCH   3  30
BRANCH   8  35
ATOM     35  N   UNL     1       6.759   3.782  14.357  0.00  0.00    +0.000 N 
ATOM     36  H   UNL     1       6.915   4.148  13.417  0.00  0.00    +0.000 HD
ATOM     37  H   UNL     1       6.078   3.024  14.288  0.00  0.00    +0.000 HD
ENDBRANCH   8  35
TORSDOF 8
ENDMDL
MODEL 8
REMARK VINA RESULT:      -8.1      2.282      3.061
REMARK  Name = 
REMARK  10 active torsions:
REMARK  status: ('A' for Active; 'I' for Inactive)
REMARK    1  A    between atoms: C_1  and  N_2
REMARK    2  A    between atoms: N_2  and  C_3
REMARK    3  A    between atoms: N_2  and  C_4
REMARK    4  A    between atoms: C_4  and  C_5
REMARK    5  A    between atoms: C_5  and  N_6
REMARK    6  A    between atoms: N_6  and  S_7
REMARK    7  A    between atoms: S_7  and  C_10
REMARK    8  A    between atoms: C_13  and  N_14
REMARK    9  A    between atoms: C_16  and  C_17
REMARK   10  A    between atoms: C_24  and  N_25
REMARK                            x       y       z     vdW  Elec       q    Type
REMARK                         _______ _______ _______ _____ _____    ______ ____
ROOT
ATOM      1  N   UNL     1       2.264   5.821  18.465  0.00  0.00    +0.000 N 
ATOM      2  N   UNL     1       1.496   4.719  18.873  0.00  0.00    +0.000 NA
ATOM      3  C   UNL     1       2.413   3.740  19.023  0.00  0.00    +0.000 A 
ATOM      4  C   UNL     1       3.647   4.263  18.649  0.00  0.00    +0.000 A 
ATOM      5  C   UNL     1       3.361   5.268  17.717  0.00  0.00    +0.000 A 
ATOM      6  C   UNL     1       4.569   5.666  16.921  0.00  0.00    +0.000 A 
ATOM      7  C   UNL     1       4.935   4.878  15.781  0.00  0.00    +0.000 A 
ATOM      8  C   UNL     1       6.281   4.763  15.333  0.00  0.00    +0.000 A 
ATOM      9  C   UNL     1       7.255   5.581  15.901  0.00  0.00    +0.000 A 
ATOM     10  C   UNL     1       6.960   6.251  17.077  0.00  0.00    +0.000 A 
ATOM     11  C   UNL     1       5.703   6.039  17.670  0.00  0.00    +0.000 A 
ATOM     12  C   UNL     1       5.740   5.434  19.097  0.00  0.00    +0.000 C 
ATOM     13  C   UNL     1       5.053   4.011  19.062  0.00  0.00    +0.000 C 
ENDROOT
BRANCH   1  17
ATOM     14  C   UNL     1       1.176   9.571  20.382  0.00  0.00    +0.000 A 
ATOM     15  C   UNL     1       1.250   8.391  21.086  0.00  0.00    +0.000 A 
ATOM     16  C   UNL     1       1.600   7.189  20.413  0.00  0.00    +0.000 A 
ATOM     17  C   UNL     1       1.905   7.136  19.013  0.00  0.00    +0.000 A 
ATOM     18  C   UNL     1       1.864   8.350  18.322  0.00  0.00    +0.000 A 
ATOM     19  C   UNL     1       1.468   9.555  18.997  0.00  0.00    +0.000 A 
BRANCH  14  20
ATOM     20  S   UNL     1       0.503  11.035  21.202  0.00  0.00    +0.000 S 
ATOM     21  O   UNL     1       0.346  10.735  22.612  0.00  0.00    +0.000 OA
ATOM     22  O   UNL     1      -0.629  11.444  20.398  0.00  0.00    +0.000 OA
BRANCH  20  23
ATOM     23  N   UNL     1       1.664  12.258  21.046  0.00  0.00    +0.000 NA
ATOM     24  H   UNL     1       1.978  12.587  21.961  0.00  0.00    +0.000 HD
BRANCH  23  25
ATOM     25  C   UNL     1       1.352  13.436  20.183  0.00  0.00    +0.000 C 
BRANCH  25  26
ATOM     26  C   UNL     1       2.472  13.696  19.166  0.00  0.00    +0.000 C 
BRANCH  26  28
ATOM     27  C   UNL     1       2.535  16.074  19.695  0.00  0.00    +0.000 C 
ATOM     28  N   UNL     1       2.437  15.075  18.626  0.00  0.00    +0.000 NA
ATOM     29  C   UNL     1       3.549  15.255  17.687  0.00  0.00    +0.000 C 
ENDBRANCH  26  28
ENDBRANCH  25  26
ENDBRANCH  23  25
ENDBRANCH  20  23
ENDBRANCH  14  20
ENDBRANCH   1  17
BRANCH   3  30
ATOM     30  C   UNL     1       2.157   2.384  19.517  0.00  0.00    +0.000 C 
ATOM     31  N   UNL     1       2.347   1.367  18.628  0.00  0.00    +0.000 N 
ATOM     32  O   UNL     1       1.814   2.149  20.673  0.00  0.00    +0.000 OA
ATOM     33  H   UNL     1       2.719   1.559  17.708  0.00  0.00    +0.000 HD
ATOM     34  H   UNL     1       2.301   0.423  18.982  0.00  0.00    +0.000 HD
ENDBRANCH   3  30
BRANCH   8  35
ATOM     35  N   UNL     1       6.695   3.732  14.454  0.00  0.00    +0.000 N 
ATOM     36  H   UNL     1       6.367   3.902  13.503  0.00  0.00    +0.000 HD
ATOM     37  H   UNL     1       6.354   2.815  14.742  0.00  0.00    +0.000 HD
ENDBRANCH   8  35
TORSDOF 8
ENDMDL
MODEL 9
REMARK VINA RESULT:      -8.1      1.375      1.797
REMARK  Name = 
REMARK  10 active torsions:
REMARK  status: ('A' for Active; 'I' for Inactive)
REMARK    1  A    between atoms: C_1  and  N_2
REMARK    2  A    between atoms: N_2  and  C_3
REMARK    3  A    between atoms: N_2  and  C_4
REMARK    4  A    between atoms: C_4  and  C_5
REMARK    5  A    between atoms: C_5  and  N_6
REMARK    6  A    between atoms: N_6  and  S_7
REMARK    7  A    between atoms: S_7  and  C_10
REMARK    8  A    between atoms: C_13  and  N_14
REMARK    9  A    between atoms: C_16  and  C_17
REMARK   10  A    between atoms: C_24  and  N_25
REMARK                            x       y       z     vdW  Elec       q    Type
REMARK                         _______ _______ _______ _____ _____    ______ ____
ROOT
ATOM      1  N   UNL     1       2.805   5.453  18.899  0.00  0.00    +0.000 N 
ATOM      2  N   UNL     1       2.516   4.369  19.743  0.00  0.00    +0.000 NA
ATOM      3  C   UNL     1       3.675   3.676  19.768  0.00  0.00    +0.000 A 
ATOM      4  C   UNL     1       4.564   4.321  18.912  0.00  0.00    +0.000 A 
ATOM      5  C   UNL     1       3.765   4.956  17.952  0.00  0.00    +0.000 A 
ATOM      6  C   UNL     1       4.550   5.363  16.739  0.00  0.00    +0.000 A 
ATOM      7  C   UNL     1       4.797   4.388  15.718  0.00  0.00    +0.000 A 
ATOM      8  C   UNL     1       5.948   4.435  14.880  0.00  0.00    +0.000 A 
ATOM      9  C   UNL     1       6.770   5.558  14.923  0.00  0.00    +0.000 A 
ATOM     10  C   UNL     1       6.631   6.446  15.978  0.00  0.00    +0.000 A 
ATOM     11  C   UNL     1       5.694   6.149  16.983  0.00  0.00    +0.000 A 
ATOM     12  C   UNL     1       6.286   5.974  18.406  0.00  0.00    +0.000 C 
ATOM     13  C   UNL     1       6.041   4.484  18.876  0.00  0.00    +0.000 C 
ENDROOT
BRANCH   1  17
ATOM     14  C   UNL     1       1.221   9.427  19.685  0.00  0.00    +0.000 A 
ATOM     15  C   UNL     1       1.682   9.062  18.441  0.00  0.00    +0.000 A 
ATOM     16  C   UNL     1       2.200   7.755  18.236  0.00  0.00    +0.000 A 
ATOM     17  C   UNL     1       2.256   6.764  19.270  0.00  0.00    +0.000 A 
ATOM     18  C   UNL     1       1.746   7.138  20.517  0.00  0.00    +0.000 A 
ATOM     19  C   UNL     1       1.263   8.473  20.731  0.00  0.00    +0.000 A 
BRANCH  14  20
ATOM     20  S   UNL     1       0.789  11.157  19.983  0.00  0.00    +0.000 S 
ATOM     21  O   UNL     1       1.196  11.933  18.828  0.00  0.00    +0.000 OA
ATOM     22  O   UNL     1       1.300  11.463  21.302  0.00  0.00    +0.000 OA
BRANCH  20  23
ATOM     23  N   UNL     1      -0.899  11.225  20.099  0.00  0.00    +0.000 NA
ATOM     24  H   UNL     1      -1.340  10.537  19.485  0.00  0.00    +0.000 HD
BRANCH  23  25
ATOM     25  C   UNL     1      -1.577  12.544  19.923  0.00  0.00    +0.000 C 
BRANCH  25  26
ATOM     26  C   UNL     1      -2.484  12.871  21.117  0.00  0.00    +0.000 C 
BRANCH  26  28
ATOM     27  C   UNL     1      -1.050  13.548  22.966  0.00  0.00    +0.000 C 
ATOM     28  N   UNL     1      -1.882  12.475  22.411  0.00  0.00    +0.000 NA
ATOM     29  C   UNL     1      -2.950  12.144  23.359  0.00  0.00    +0.000 C 
ENDBRANCH  26  28
ENDBRANCH  25  26
ENDBRANCH  23  25
ENDBRANCH  20  23
ENDBRANCH  14  20
ENDBRANCH   1  17
BRANCH   3  30
ATOM     30  C   UNL     1       3.952   2.482  20.570  0.00  0.00    +0.000 C 
ATOM     31  N   UNL     1       4.933   1.654  20.110  0.00  0.00    +0.000 N 
ATOM     32  O   UNL     1       3.364   2.233  21.619  0.00  0.00    +0.000 OA
ATOM     33  H   UNL     1       5.476   1.912  19.298  0.00  0.00    +0.000 HD
ATOM     34  H   UNL     1       5.226   0.898  20.711  0.00  0.00    +0.000 HD
ENDBRANCH   3  30
BRANCH   8  35
ATOM     35  N   UNL     1       6.377   3.313  14.130  0.00  0.00    +0.000 N 
ATOM     36  H   UNL     1       7.395   3.278  14.065  0.00  0.00    +0.000 HD
ATOM     37  H   UNL     1       6.002   3.311  13.182  0.00  0.00    +0.000 HD
ENDBRANCH   8  35
TORSDOF 8
ENDMDL
