MODEL 1
REMARK VINA RESULT:      -8.0      0.000      0.000
REMARK  Name = 
REMARK  5 active torsions:
REMARK  status: ('A' for Active; 'I' for Inactive)
REMARK    1  A    between atoms: C_1  and  S_2
REMARK    2  A    between atoms: S_2  and  C_3
REMARK    3  A    between atoms: C_6  and  N_7
REMARK    4  A    between atoms: C_12  and  C_13
REMARK    5  A    between atoms: C_16  and  O_17
REMARK                            x       y       z     vdW  Elec       q    Type
REMARK                         _______ _______ _______ _____ _____    ______ ____
ROOT
ATOM      1  N   UNL     1       6.777   6.242  18.117  0.00  0.00    +0.000 N 
ATOM      2  C   UNL     1       7.871   6.294  18.950  0.00  0.00    +0.000 C 
ATOM      3  O   UNL     1       8.295   5.400  19.674  0.00  0.00    +0.000 OA
ATOM      4  O   UNL     1       8.547   7.492  18.877  0.00  0.00    +0.000 OA
ATOM      5  C   UNL     1       7.833   8.182  17.924  0.00  0.00    +0.000 C 
ATOM      6  C   UNL     1       8.060   9.465  17.613  0.00  0.00    +0.000 C 
ATOM      7  C   UNL     1       6.740   7.371  17.355  0.00  0.00    +0.000 C 
ATOM      8  O   UNL     1       5.997   7.729  16.461  0.00  0.00    +0.000 OA
ENDROOT
BRANCH   6   9
ATOM      9  C   UNL     1       9.083  10.264  18.295  0.00  0.00    +0.000 A 
ATOM     10  C   UNL     1       9.226  10.204  19.686  0.00  0.00    +0.000 A 
ATOM     11  C   UNL     1      10.202  10.972  20.332  0.00  0.00    +0.000 A 
ATOM     12  C   UNL     1      11.035  11.806  19.588  0.00  0.00    +0.000 A 
ATOM     13  C   UNL     1      10.887  11.885  18.201  0.00  0.00    +0.000 A 
ATOM     14 BR   UNL     1      11.989  13.018  17.151  0.00  0.00    +0.000 Br
ATOM     15  C   UNL     1       9.914  11.117  17.556  0.00  0.00    +0.000 A 
BRANCH  12  16
ATOM     16  O   UNL     1      11.997  12.544  20.218  0.00  0.00    +0.000 OA
ATOM     17  H   UNL     1      12.827  12.493  19.717  0.00  0.00    +0.000 HD
ENDBRANCH  12  16
ENDBRANCH   6   9
BRANCH   1  21
ATOM     18  C   UNL     1       3.900   3.095  18.058  0.00  0.00    +0.000 A 
ATOM     19  C   UNL     1       4.089   3.868  19.199  0.00  0.00    +0.000 A 
ATOM     20  C   UNL     1       5.044   4.892  19.210  0.00  0.00    +0.000 A 
ATOM     21  C   UNL     1       5.833   5.179  18.083  0.00  0.00    +0.000 A 
ATOM     22  C   UNL     1       5.624   4.400  16.936  0.00  0.00    +0.000 A 
ATOM     23  C   UNL     1       4.680   3.358  16.931  0.00  0.00    +0.000 A 
BRANCH  18  25
ATOM     24  C   UNL     1       1.342   2.621  18.942  0.00  0.00    +0.000 C 
ATOM     25  S   UNL     1       2.704   1.778  18.096  0.00  0.00    +0.000 S 
ENDBRANCH  18  25
ENDBRANCH   1  21
TORSDOF 4
ENDMDL
MODEL 2
REMARK VINA RESULT:      -7.9      6.787      8.967
REMARK  Name = 
REMARK  5 active torsions:
REMARK  status: ('A' for Active; 'I' for Inactive)
REMARK    1  A    between atoms: C_1  and  S_2
REMARK    2  A    between atoms: S_2  and  C_3
REMARK    3  A    between atoms: C_6  and  N_7
REMARK    4  A    between atoms: C_12  and  C_13
REMARK    5  A    between atoms: C_16  and  O_17
REMARK                            x       y       z     vdW  Elec       q    Type
REMARK                         _______ _______ _______ _____ _____    ______ ____
ROOT
ATOM      1  N   UNL     1       1.148   9.315  19.480  0.00  0.00    +0.000 N 
ATOM      2  C   UNL     1       1.898   9.248  18.329  0.00  0.00    +0.000 C 
ATOM      3  O   UNL     1       1.996  10.103  17.455  0.00  0.00    +0.000 OA
ATOM      4  O   UNL     1       2.635   8.088  18.233  0.00  0.00    +0.000 OA
ATOM      5  C   UNL     1       2.330   7.441  19.409  0.00  0.00    +0.000 C 
ATOM      6  C   UNL     1       2.730   6.195  19.695  0.00  0.00    +0.000 C 
ATOM      7  C   UNL     1       1.443   8.246  20.270  0.00  0.00    +0.000 C 
ATOM      8  O   UNL     1       1.069   7.924  21.382  0.00  0.00    +0.000 OA
ENDROOT
BRANCH   6   9
ATOM      9  C   UNL     1       3.513   5.391  18.750  0.00  0.00    +0.000 A 
ATOM     10  C   UNL     1       2.879   4.519  17.858  0.00  0.00    +0.000 A 
ATOM     11  C   UNL     1       3.631   3.752  16.962  0.00  0.00    +0.000 A 
ATOM     12  C   UNL     1       5.021   3.852  16.958  0.00  0.00    +0.000 A 
ATOM     13  C   UNL     1       5.663   4.706  17.857  0.00  0.00    +0.000 A 
ATOM     14 BR   UNL     1       7.554   4.862  17.897  0.00  0.00    +0.000 Br
ATOM     15  C   UNL     1       4.912   5.474  18.751  0.00  0.00    +0.000 A 
BRANCH  12  16
ATOM     16  O   UNL     1       5.754   3.112  16.072  0.00  0.00    +0.000 OA
ATOM     17  H   UNL     1       6.609   3.544  15.918  0.00  0.00    +0.000 HD
ENDBRANCH  12  16
ENDBRANCH   6   9
BRANCH   1  21
ATOM     18  C   UNL     1      -1.623  12.429  20.379  0.00  0.00    +0.000 A 
ATOM     19  C   UNL     1      -0.445  12.290  21.106  0.00  0.00    +0.000 A 
ATOM     20  C   UNL     1       0.452  11.258  20.808  0.00  0.00    +0.000 A 
ATOM     21  C   UNL     1       0.204  10.338  19.775  0.00  0.00    +0.000 A 
ATOM     22  C   UNL     1      -0.981  10.497  19.043  0.00  0.00    +0.000 A 
ATOM     23  C   UNL     1      -1.893  11.521  19.355  0.00  0.00    +0.000 A 
BRANCH  18  25
ATOM     24  C   UNL     1      -4.328  12.855  20.600  0.00  0.00    +0.000 C 
ATOM     25  S   UNL     1      -2.757  13.731  20.813  0.00  0.00    +0.000 S 
ENDBRANCH  18  25
ENDBRANCH   1  21
TORSDOF 4
ENDMDL
MODEL 3
REMARK VINA RESULT:      -7.9      6.788      9.005
REMARK  Name = 
REMARK  5 active torsions:
REMARK  status: ('A' for Active; 'I' for Inactive)
REMARK    1  A    between atoms: C_1  and  S_2
REMARK    2  A    between atoms: S_2  and  C_3
REMARK    3  A    between atoms: C_6  and  N_7
REMARK    4  A    between atoms: C_12  and  C_13
REMARK    5  A    between atoms: C_16  and  O_17
REMARK                            x       y       z     vdW  Elec       q    Type
REMARK                         _______ _______ _______ _____ _____    ______ ____
ROOT
ATOM      1  N   UNL     1       1.156   9.330  19.509  0.00  0.00    +0.000 N 
ATOM      2  C   UNL     1       1.907   9.268  18.358  0.00  0.00    +0.000 C 
ATOM      3  O   UNL     1       2.011  10.129  17.492  0.00  0.00    +0.000 OA
ATOM      4  O   UNL     1       2.635   8.103  18.253  0.00  0.00    +0.000 OA
ATOM      5  C   UNL     1       2.323   7.448  19.423  0.00  0.00    +0.000 C 
ATOM      6  C   UNL     1       2.714   6.196  19.698  0.00  0.00    +0.000 C 
ATOM      7  C   UNL     1       1.442   8.252  20.290  0.00  0.00    +0.000 C 
ATOM      8  O   UNL     1       1.065   7.923  21.399  0.00  0.00    +0.000 OA
ENDROOT
BRANCH   6   9
ATOM      9  C   UNL     1       3.491   5.395  18.746  0.00  0.00    +0.000 A 
ATOM     10  C   UNL     1       2.851   4.531  17.851  0.00  0.00    +0.000 A 
ATOM     11  C   UNL     1       3.598   3.766  16.947  0.00  0.00    +0.000 A 
ATOM     12  C   UNL     1       4.989   3.860  16.942  0.00  0.00    +0.000 A 
ATOM     13  C   UNL     1       5.637   4.706  17.844  0.00  0.00    +0.000 A 
ATOM     14 BR   UNL     1       7.528   4.854  17.881  0.00  0.00    +0.000 Br
ATOM     15  C   UNL     1       4.891   5.472  18.745  0.00  0.00    +0.000 A 
BRANCH  12  16
ATOM     16  O   UNL     1       5.717   3.123  16.050  0.00  0.00    +0.000 OA
ATOM     17  H   UNL     1       6.310   3.708  15.552  0.00  0.00    +0.000 HD
ENDBRANCH  12  16
ENDBRANCH   6   9
BRANCH   1  21
ATOM     18  C   UNL     1      -1.707  12.363  20.402  0.00  0.00    +0.000 A 
ATOM     19  C   UNL     1      -1.922  11.461  19.365  0.00  0.00    +0.000 A 
ATOM     20  C   UNL     1      -0.970  10.476  19.075  0.00  0.00    +0.000 A 
ATOM     21  C   UNL     1       0.220  10.358  19.812  0.00  0.00    +0.000 A 
ATOM     22  C   UNL     1       0.419  11.266  20.862  0.00  0.00    +0.000 A 
ATOM     23  C   UNL     1      -0.527  12.269  21.141  0.00  0.00    +0.000 A 
BRANCH  18  25
ATOM     24  C   UNL     1      -3.986  12.743  21.887  0.00  0.00    +0.000 C 
ATOM     25  S   UNL     1      -2.922  13.624  20.715  0.00  0.00    +0.000 S 
ENDBRANCH  18  25
ENDBRANCH   1  21
TORSDOF 4
ENDMDL
MODEL 4
REMARK VINA RESULT:      -7.7      7.319      9.541
REMARK  Name = 
REMARK  5 active torsions:
REMARK  status: ('A' for Active; 'I' for Inactive)
REMARK    1  A    between atoms: C_1  and  S_2
REMARK    2  A    between atoms: S_2  and  C_3
REMARK    3  A    between atoms: C_6  and  N_7
REMARK    4  A    between atoms: C_12  and  C_13
REMARK    5  A    between atoms: C_16  and  O_17
REMARK                            x       y       z     vdW  Elec       q    Type
REMARK                         _______ _______ _______ _____ _____    ______ ____
ROOT
ATOM      1  N   UNL     1       1.107   9.700  19.648  0.00  0.00    +0.000 N 
ATOM      2  C   UNL     1       1.118   8.662  20.551  0.00  0.00    +0.000 C 
ATOM      3  O   UNL     1       0.582   8.631  21.652  0.00  0.00    +0.000 OA
ATOM      4  O   UNL     1       1.779   7.548  20.082  0.00  0.00    +0.000 OA
ATOM      5  C   UNL     1       2.157   7.934  18.816  0.00  0.00    +0.000 C 
ATOM      6  C   UNL     1       2.948   7.199  18.022  0.00  0.00    +0.000 C 
ATOM      7  C   UNL     1       1.664   9.282  18.478  0.00  0.00    +0.000 C 
ATOM      8  O   UNL     1       1.817   9.832  17.403  0.00  0.00    +0.000 OA
ENDROOT
BRANCH   6   9
ATOM      9  C   UNL     1       3.511   5.916  18.455  0.00  0.00    +0.000 A 
ATOM     10  C   UNL     1       4.871   5.800  18.762  0.00  0.00    +0.000 A 
ATOM     11  C   UNL     1       5.404   4.572  19.171  0.00  0.00    +0.000 A 
ATOM     12  C   UNL     1       4.577   3.454  19.269  0.00  0.00    +0.000 A 
ATOM     13  C   UNL     1       3.222   3.557  18.947  0.00  0.00    +0.000 A 
ATOM     14 BR   UNL     1       2.063   2.058  19.051  0.00  0.00    +0.000 Br
ATOM     15  C   UNL     1       2.689   4.784  18.541  0.00  0.00    +0.000 A 
BRANCH  12  16
ATOM     16  O   UNL     1       5.095   2.259  19.682  0.00  0.00    +0.000 OA
ATOM     17  H   UNL     1       5.859   2.028  19.129  0.00  0.00    +0.000 HD
ENDBRANCH  12  16
ENDBRANCH   6   9
BRANCH   1  21
ATOM     18  C   UNL     1      -0.462  13.578  20.477  0.00  0.00    +0.000 A 
ATOM     19  C   UNL     1      -1.274  12.576  19.957  0.00  0.00    +0.000 A 
ATOM     20  C   UNL     1      -0.745  11.309  19.679  0.00  0.00    +0.000 A 
ATOM     21  C   UNL     1       0.606  11.004  19.917  0.00  0.00    +0.000 A 
ATOM     22  C   UNL     1       1.410  12.020  20.453  0.00  0.00    +0.000 A 
ATOM     23  C   UNL     1       0.885  13.298  20.713  0.00  0.00    +0.000 A 
BRANCH  18  25
ATOM     24  C   UNL     1      -0.554  16.067  19.320  0.00  0.00    +0.000 C 
ATOM     25  S   UNL     1      -1.162  15.186  20.781  0.00  0.00    +0.000 S 
ENDBRANCH  18  25
ENDBRANCH   1  21
TORSDOF 4
ENDMDL
MODEL 5
REMARK VINA RESULT:      -7.5      1.168      1.480
REMARK  Name = 
REMARK  5 active torsions:
REMARK  status: ('A' for Active; 'I' for Inactive)
REMARK    1  A    between atoms: C_1  and  S_2
REMARK    2  A    between atoms: S_2  and  C_3
REMARK    3  A    between atoms: C_6  and  N_7
REMARK    4  A    between atoms: C_12  and  C_13
REMARK    5  A    between atoms: C_16  and  O_17
REMARK                            x       y       z     vdW  Elec       q    Type
REMARK                         _______ _______ _______ _____ _____    ______ ____
ROOT
ATOM      1  N   UNL     1       6.833   6.312  18.117  0.00  0.00    +0.000 N 
ATOM      2  C   UNL     1       7.911   6.390  18.968  0.00  0.00    +0.000 C 
ATOM      3  O   UNL     1       8.332   5.514  19.714  0.00  0.00    +0.000 OA
ATOM      4  O   UNL     1       8.574   7.595  18.887  0.00  0.00    +0.000 OA
ATOM      5  C   UNL     1       7.869   8.260  17.910  0.00  0.00    +0.000 C 
ATOM      6  C   UNL     1       8.086   9.541  17.581  0.00  0.00    +0.000 C 
ATOM      7  C   UNL     1       6.797   7.427  17.335  0.00  0.00    +0.000 C 
ATOM      8  O   UNL     1       6.066   7.761  16.422  0.00  0.00    +0.000 OA
ENDROOT
BRANCH   6   9
ATOM      9  C   UNL     1       9.087  10.364  18.269  0.00  0.00    +0.000 A 
ATOM     10  C   UNL     1      10.303  10.675  17.650  0.00  0.00    +0.000 A 
ATOM     11  C   UNL     1      11.256  11.458  18.312  0.00  0.00    +0.000 A 
ATOM     12  C   UNL     1      10.996  11.928  19.599  0.00  0.00    +0.000 A 
ATOM     13  C   UNL     1       9.792  11.607  20.231  0.00  0.00    +0.000 A 
ATOM     14 BR   UNL     1       9.404  12.213  21.986  0.00  0.00    +0.000 Br
ATOM     15  C   UNL     1       8.840  10.828  19.568  0.00  0.00    +0.000 A 
BRANCH  12  16
ATOM     16  O   UNL     1      11.921  12.704  20.239  0.00  0.00    +0.000 OA
ATOM     17  H   UNL     1      12.507  12.140  20.769  0.00  0.00    +0.000 HD
ENDBRANCH  12  16
ENDBRANCH   6   9
BRANCH   1  21
ATOM     18  C   UNL     1       3.995   3.129  18.059  0.00  0.00    +0.000 A 
ATOM     19  C   UNL     1       4.162   3.916  19.194  0.00  0.00    +0.000 A 
ATOM     20  C   UNL     1       5.104   4.952  19.204  0.00  0.00    +0.000 A 
ATOM     21  C   UNL     1       5.902   5.236  18.083  0.00  0.00    +0.000 A 
ATOM     22  C   UNL     1       5.715   4.443  16.943  0.00  0.00    +0.000 A 
ATOM     23  C   UNL     1       4.784   3.389  16.938  0.00  0.00    +0.000 A 
BRANCH  18  25
ATOM     24  C   UNL     1       1.404   2.657  18.839  0.00  0.00    +0.000 C 
ATOM     25  S   UNL     1       2.814   1.797  18.097  0.00  0.00    +0.000 S 
ENDBRANCH  18  25
ENDBRANCH   1  21
TORSDOF 4
ENDMDL
MODEL 6
REMARK VINA RESULT:      -7.3      7.593      9.344
REMARK  Name = 
REMARK  5 active torsions:
REMARK  status: ('A' for Active; 'I' for Inactive)
REMARK    1  A    between atoms: C_1  and  S_2
REMARK    2  A    between atoms: S_2  and  C_3
REMARK    3  A    between atoms: C_6  and  N_7
REMARK    4  A    between atoms: C_12  and  C_13
REMARK    5  A    between atoms: C_16  and  O_17
REMARK                            x       y       z     vdW  Elec       q    Type
REMARK                         _______ _______ _______ _____ _____    ______ ____
ROOT
ATOM      1  N   UNL     1       0.704  10.095  20.640  0.00  0.00    +0.000 N 
ATOM      2  C   UNL     1       1.332   9.041  21.262  0.00  0.00    +0.000 C 
ATOM      3  O   UNL     1       1.409   8.829  22.467  0.00  0.00    +0.000 OA
ATOM      4  O   UNL     1       1.869   8.134  20.375  0.00  0.00    +0.000 OA
ATOM      5  C   UNL     1       1.514   8.663  19.154  0.00  0.00    +0.000 C 
ATOM      6  C   UNL     1       1.938   8.172  17.982  0.00  0.00    +0.000 C 
ATOM      7  C   UNL     1       0.690   9.879  19.296  0.00  0.00    +0.000 C 
ATOM      8  O   UNL     1       0.206  10.505  18.372  0.00  0.00    +0.000 OA
ENDROOT
BRANCH   6   9
ATOM      9  C   UNL     1       2.856   7.030  17.901  0.00  0.00    +0.000 A 
ATOM     10  C   UNL     1       2.384   5.723  18.058  0.00  0.00    +0.000 A 
ATOM     11  C   UNL     1       3.265   4.638  17.983  0.00  0.00    +0.000 A 
ATOM     12  C   UNL     1       4.623   4.860  17.754  0.00  0.00    +0.000 A 
ATOM     13  C   UNL     1       5.104   6.163  17.613  0.00  0.00    +0.000 A 
ATOM     14 BR   UNL     1       6.945   6.512  17.315  0.00  0.00    +0.000 Br
ATOM     15  C   UNL     1       4.224   7.246  17.686  0.00  0.00    +0.000 A 
BRANCH  12  16
ATOM     16  O   UNL     1       5.480   3.798  17.667  0.00  0.00    +0.000 OA
ATOM     17  H   UNL     1       6.322   4.092  17.284  0.00  0.00    +0.000 HD
ENDBRANCH  12  16
ENDBRANCH   6   9
BRANCH   1  21
ATOM     18  C   UNL     1      -0.893  13.465  22.710  0.00  0.00    +0.000 A 
ATOM     19  C   UNL     1      -1.402  12.188  22.924  0.00  0.00    +0.000 A 
ATOM     20  C   UNL     1      -0.876  11.091  22.231  0.00  0.00    +0.000 A 
ATOM     21  C   UNL     1       0.175  11.233  21.310  0.00  0.00    +0.000 A 
ATOM     22  C   UNL     1       0.686  12.524  21.112  0.00  0.00    +0.000 A 
ATOM     23  C   UNL     1       0.145  13.629  21.791  0.00  0.00    +0.000 A 
BRANCH  18  25
ATOM     24  C   UNL     1      -3.102  14.043  24.237  0.00  0.00    +0.000 C 
ATOM     25  S   UNL     1      -1.613  14.840  23.580  0.00  0.00    +0.000 S 
ENDBRANCH  18  25
ENDBRANCH   1  21
TORSDOF 4
ENDMDL
MODEL 7
REMARK VINA RESULT:      -7.3      7.943      9.693
REMARK  Name = 
REMARK  5 active torsions:
REMARK  status: ('A' for Active; 'I' for Inactive)
REMARK    1  A    between atoms: C_1  and  S_2
REMARK    2  A    between atoms: S_2  and  C_3
REMARK    3  A    between atoms: C_6  and  N_7
REMARK    4  A    between atoms: C_12  and  C_13
REMARK    5  A    between atoms: C_16  and  O_17
REMARK                            x       y       z     vdW  Elec       q    Type
REMARK                         _______ _______ _______ _____ _____    ______ ____
ROOT
ATOM      1  N   UNL     1       0.705  10.116  20.608  0.00  0.00    +0.000 N 
ATOM      2  C   UNL     1       1.293   9.038  21.228  0.00  0.00    +0.000 C 
ATOM      3  O   UNL     1       1.346   8.812  22.432  0.00  0.00    +0.000 OA
ATOM      4  O   UNL     1       1.817   8.126  20.339  0.00  0.00    +0.000 OA
ATOM      5  C   UNL     1       1.497   8.677  19.119  0.00  0.00    +0.000 C 
ATOM      6  C   UNL     1       1.924   8.186  17.949  0.00  0.00    +0.000 C 
ATOM      7  C   UNL     1       0.706   9.914  19.261  0.00  0.00    +0.000 C 
ATOM      8  O   UNL     1       0.253  10.563  18.337  0.00  0.00    +0.000 OA
ENDROOT
BRANCH   6   9
ATOM      9  C   UNL     1       2.811   7.019  17.869  0.00  0.00    +0.000 A 
ATOM     10  C   UNL     1       4.179   7.178  17.623  0.00  0.00    +0.000 A 
ATOM     11  C   UNL     1       5.019   6.061  17.545  0.00  0.00    +0.000 A 
ATOM     12  C   UNL     1       4.490   4.781  17.708  0.00  0.00    +0.000 A 
ATOM     13  C   UNL     1       3.123   4.613  17.936  0.00  0.00    +0.000 A 
ATOM     14 BR   UNL     1       2.359   2.890  18.148  0.00  0.00    +0.000 Br
ATOM     15  C   UNL     1       2.284   5.729  18.017  0.00  0.00    +0.000 A 
BRANCH  12  16
ATOM     16  O   UNL     1       5.314   3.692  17.645  0.00  0.00    +0.000 OA
ATOM     17  H   UNL     1       5.320   3.341  16.740  0.00  0.00    +0.000 HD
ENDBRANCH  12  16
ENDBRANCH   6   9
BRANCH   1  21
ATOM     18  C   UNL     1      -0.826  13.509  22.689  0.00  0.00    +0.000 A 
ATOM     19  C   UNL     1      -1.359  12.242  22.901  0.00  0.00    +0.000 A 
ATOM     20  C   UNL     1      -0.854  11.137  22.204  0.00  0.00    +0.000 A 
ATOM     21  C   UNL     1       0.198  11.262  21.282  0.00  0.00    +0.000 A 
ATOM     22  C   UNL     1       0.733  12.543  21.086  0.00  0.00    +0.000 A 
ATOM     23  C   UNL     1       0.214  13.657  21.770  0.00  0.00    +0.000 A 
BRANCH  18  25
ATOM     24  C   UNL     1      -2.978  14.103  24.289  0.00  0.00    +0.000 C 
ATOM     25  S   UNL     1      -1.519  14.895  23.565  0.00  0.00    +0.000 S 
ENDBRANCH  18  25
ENDBRANCH   1  21
TORSDOF 4
ENDMDL
MODEL 8
REMARK VINA RESULT:      -7.3      6.269      7.848
REMARK  Name = 
REMARK  5 active torsions:
REMARK  status: ('A' for Active; 'I' for Inactive)
REMARK    1  A    between atoms: C_1  and  S_2
REMARK    2  A    between atoms: S_2  and  C_3
REMARK    3  A    between atoms: C_6  and  N_7
REMARK    4  A    between atoms: C_12  and  C_13
REMARK    5  A    between atoms: C_16  and  O_17
REMARK                            x       y       z     vdW  Elec       q    Type
REMARK                         _______ _______ _______ _____ _____    ______ ____
ROOT
ATOM      1  N   UNL     1       2.698   7.145  18.613  0.00  0.00    +0.000 N 
ATOM      2  C   UNL     1       2.192   8.365  18.230  0.00  0.00    +0.000 C 
ATOM      3  O   UNL     1       2.299   8.902  17.134  0.00  0.00    +0.000 OA
ATOM      4  O   UNL     1       1.452   8.975  19.219  0.00  0.00    +0.000 OA
ATOM      5  C   UNL     1       1.495   8.051  20.239  0.00  0.00    +0.000 C 
ATOM      6  C   UNL     1       1.006   8.278  21.465  0.00  0.00    +0.000 C 
ATOM      7  C   UNL     1       2.217   6.827  19.847  0.00  0.00    +0.000 C 
ATOM      8  O   UNL     1       2.350   5.840  20.547  0.00  0.00    +0.000 OA
ENDROOT
BRANCH   6   9
ATOM      9  C   UNL     1       0.402   9.562  21.840  0.00  0.00    +0.000 A 
ATOM     10  C   UNL     1      -0.587   9.625  22.827  0.00  0.00    +0.000 A 
ATOM     11  C   UNL     1      -1.162  10.853  23.177  0.00  0.00    +0.000 A 
ATOM     12  C   UNL     1      -0.750  12.020  22.536  0.00  0.00    +0.000 A 
ATOM     13  C   UNL     1       0.225  11.964  21.538  0.00  0.00    +0.000 A 
ATOM     14 BR   UNL     1       0.805  13.526  20.630  0.00  0.00    +0.000 Br
ATOM     15  C   UNL     1       0.800  10.738  21.190  0.00  0.00    +0.000 A 
BRANCH  12  16
ATOM     16  O   UNL     1      -1.301  13.221  22.890  0.00  0.00    +0.000 OA
ATOM     17  H   UNL     1      -1.502  13.219  23.839  0.00  0.00    +0.000 HD
ENDBRANCH  12  16
ENDBRANCH   6   9
BRANCH   1  21
ATOM     18  C   UNL     1       5.449   4.829  16.320  0.00  0.00    +0.000 A 
ATOM     19  C   UNL     1       5.678   6.181  16.557  0.00  0.00    +0.000 A 
ATOM     20  C   UNL     1       4.762   6.933  17.303  0.00  0.00    +0.000 A 
ATOM     21  C   UNL     1       3.597   6.359  17.838  0.00  0.00    +0.000 A 
ATOM     22  C   UNL     1       3.385   4.994  17.601  0.00  0.00    +0.000 A 
ATOM     23  C   UNL     1       4.293   4.242  16.835  0.00  0.00    +0.000 A 
BRANCH  18  25
ATOM     24  C   UNL     1       5.805   4.022  13.718  0.00  0.00    +0.000 C 
ATOM     25  S   UNL     1       6.617   3.916  15.334  0.00  0.00    +0.000 S 
ENDBRANCH  18  25
ENDBRANCH   1  21
TORSDOF 4
ENDMDL
MODEL 9
REMARK VINA RESULT:      -7.3      6.339      7.903
REMARK  Name = 
REMARK  5 active torsions:
REMARK  status: ('A' for Active; 'I' for Inactive)
REMARK    1  A    between atoms: C_1  and  S_2
REMARK    2  A    between atoms: S_2  and  C_3
REMARK    3  A    between atoms: C_6  and  N_7
REMARK    4  A    between atoms: C_12  and  C_13
REMARK    5  A    between atoms: C_16  and  O_17
REMARK                            x       y       z     vdW  Elec       q    Type
REMARK                         _______ _______ _______ _____ _____    ______ ____
ROOT
ATOM      1  N   UNL     1       2.616   7.205  18.691  0.00  0.00    +0.000 N 
ATOM      2  C   UNL     1       2.101   8.413  18.284  0.00  0.00    +0.000 C 
ATOM      3  O   UNL     1       2.194   8.924  17.174  0.00  0.00    +0.000 OA
ATOM      4  O   UNL     1       1.371   9.045  19.266  0.00  0.00    +0.000 OA
ATOM      5  C   UNL     1       1.428   8.146  20.308  0.00  0.00    +0.000 C 
ATOM      6  C   UNL     1       0.952   8.401  21.534  0.00  0.00    +0.000 C 
ATOM      7  C   UNL     1       2.150   6.915  19.937  0.00  0.00    +0.000 C 
ATOM      8  O   UNL     1       2.294   5.946  20.659  0.00  0.00    +0.000 OA
ENDROOT
BRANCH   6   9
ATOM      9  C   UNL     1       0.348   9.692  21.884  0.00  0.00    +0.000 A 
ATOM     10  C   UNL     1      -0.654   9.771  22.857  0.00  0.00    +0.000 A 
ATOM     11  C   UNL     1      -1.228  11.004  23.184  0.00  0.00    +0.000 A 
ATOM     12  C   UNL     1      -0.804  12.162  22.534  0.00  0.00    +0.000 A 
ATOM     13  C   UNL     1       0.183  12.090  21.549  0.00  0.00    +0.000 A 
ATOM     14 BR   UNL     1       0.780  13.638  20.629  0.00  0.00    +0.000 Br
ATOM     15  C   UNL     1       0.759  10.858  21.224  0.00  0.00    +0.000 A 
BRANCH  12  16
ATOM     16  O   UNL     1      -1.356  13.369  22.865  0.00  0.00    +0.000 OA
ATOM     17  H   UNL     1      -1.266  13.983  22.118  0.00  0.00    +0.000 HD
ENDBRANCH  12  16
ENDBRANCH   6   9
BRANCH   1  21
ATOM     18  C   UNL     1       5.231   4.768  16.363  0.00  0.00    +0.000 A 
ATOM     19  C   UNL     1       4.062   4.244  16.907  0.00  0.00    +0.000 A 
ATOM     20  C   UNL     1       3.216   5.052  17.677  0.00  0.00    +0.000 A 
ATOM     21  C   UNL     1       3.508   6.404  17.924  0.00  0.00    +0.000 A 
ATOM     22  C   UNL     1       4.684   6.921  17.362  0.00  0.00    +0.000 A 
ATOM     23  C   UNL     1       5.544   6.107  16.605  0.00  0.00    +0.000 A 
BRANCH  18  25
ATOM     24  C   UNL     1       6.870   4.870  14.162  0.00  0.00    +0.000 C 
ATOM     25  S   UNL     1       6.299   3.701  15.422  0.00  0.00    +0.000 S 
ENDBRANCH  18  25
ENDBRANCH   1  21
TORSDOF 4
ENDMDL
