MODEL 1
REMARK VINA RESULT:      -8.3      0.000      0.000
REMARK  Name = 
REMARK  6 active torsions:
REMARK  status: ('A' for Active; 'I' for Inactive)
REMARK    1  A    between atoms: C_1  and  C_2
REMARK    2  A    between atoms: C_6  and  N_7
REMARK    3  A    between atoms: C_11  and  C_12
REMARK    4  A    between atoms: N_14  and  C_15
REMARK    5  A    between atoms: C_15  and  C_16
REMARK    6  A    between atoms: C_23  and  O_24
REMARK                            x       y       z     vdW  Elec       q    Type
REMARK                         _______ _______ _______ _____ _____    ______ ____
ROOT
ATOM      1  C   UNL     1       5.362   4.255  15.620  0.00  0.00    +0.000 C 
ATOM      2  C   UNL     1       4.522   4.257  16.863  0.00  0.00    +0.000 A 
ATOM      3  C   UNL     1       4.232   3.081  17.525  0.00  0.00    +0.000 A 
ATOM      4  C   UNL     1       3.470   3.154  18.684  0.00  0.00    +0.000 A 
ATOM      5  C   UNL     1       3.006   4.399  19.170  0.00  0.00    +0.000 A 
ATOM      6  C   UNL     1       2.213   4.570  20.330  0.00  0.00    +0.000 A 
ATOM      7  C   UNL     1       1.724   5.815  20.747  0.00  0.00    +0.000 A 
ATOM      8  C   UNL     1       2.039   6.954  20.013  0.00  0.00    +0.000 A 
ATOM      9  C   UNL     1       2.856   6.806  18.869  0.00  0.00    +0.000 A 
ATOM     10  C   UNL     1       3.339   5.551  18.430  0.00  0.00    +0.000 A 
ATOM     11  N   UNL     1       4.093   5.459  17.309  0.00  0.00    +0.000 NA
ENDROOT
BRANCH   8  12
ATOM     12  C   UNL     1       1.488   8.299  20.385  0.00  0.00    +0.000 C 
ATOM     13  O   UNL     1       1.450   8.618  21.570  0.00  0.00    +0.000 OA
ATOM     14  N   UNL     1       1.065   9.135  19.374  0.00  0.00    +0.000 N 
ATOM     15  H   UNL     1       0.956   8.818  18.425  0.00  0.00    +0.000 HD
BRANCH  14  16
ATOM     16  C   UNL     1       0.583  10.474  19.637  0.00  0.00    +0.000 C 
BRANCH  16  17
ATOM     17  C   UNL     1      -0.756  10.699  18.976  0.00  0.00    +0.000 A 
ATOM     18  C   UNL     1      -1.659  11.650  19.478  0.00  0.00    +0.000 A 
ATOM     19  C   UNL     1      -2.874  11.886  18.828  0.00  0.00    +0.000 A 
ATOM     20  C   UNL     1      -3.191  11.168  17.681  0.00  0.00    +0.000 A 
ATOM     21  F   UNL     1      -4.348  11.409  17.051  0.00  0.00    +0.000 F 
ATOM     22  C   UNL     1      -2.322  10.210  17.175  0.00  0.00    +0.000 A 
ATOM     23  C   UNL     1      -1.106   9.975  17.822  0.00  0.00    +0.000 A 
ENDBRANCH  16  17
ENDBRANCH  14  16
ENDBRANCH   8  12
BRANCH   6  24
ATOM     24  N   UNL     1       1.842   3.430  21.152  0.00  0.00    +0.000 N 
ATOM     25  O   UNL     1       0.772   2.866  20.894  0.00  0.00    +0.000 OA
ATOM     26  O   UNL     1       2.659   3.077  22.013  0.00  0.00    +0.000 OA
ENDBRANCH   6  24
BRANCH   9  27
ATOM     27  O   UNL     1       3.214   7.905  18.108  0.00  0.00    +0.000 OA
ATOM     28  H   UNL     1       4.059   7.722  17.644  0.00  0.00    +0.000 HD
ENDBRANCH   9  27
TORSDOF 5
ENDMDL
MODEL 2
REMARK VINA RESULT:      -8.1      0.411      1.196
REMARK  Name = 
REMARK  6 active torsions:
REMARK  status: ('A' for Active; 'I' for Inactive)
REMARK    1  A    between atoms: C_1  and  C_2
REMARK    2  A    between atoms: C_6  and  N_7
REMARK    3  A    between atoms: C_11  and  C_12
REMARK    4  A    between atoms: N_14  and  C_15
REMARK    5  A    between atoms: C_15  and  C_16
REMARK    6  A    between atoms: C_23  and  O_24
REMARK                            x       y       z     vdW  Elec       q    Type
REMARK                         _______ _______ _______ _____ _____    ______ ____
ROOT
ATOM      1  C   UNL     1       5.587   4.917  15.265  0.00  0.00    +0.000 C 
ATOM      2  C   UNL     1       4.746   4.739  16.494  0.00  0.00    +0.000 A 
ATOM      3  C   UNL     1       4.530   3.486  17.031  0.00  0.00    +0.000 A 
ATOM      4  C   UNL     1       3.762   3.392  18.184  0.00  0.00    +0.000 A 
ATOM      5  C   UNL     1       3.219   4.549  18.790  0.00  0.00    +0.000 A 
ATOM      6  C   UNL     1       2.414   4.550  19.955  0.00  0.00    +0.000 A 
ATOM      7  C   UNL     1       1.846   5.712  20.492  0.00  0.00    +0.000 A 
ATOM      8  C   UNL     1       2.089   6.938  19.880  0.00  0.00    +0.000 A 
ATOM      9  C   UNL     1       2.917   6.960  18.734  0.00  0.00    +0.000 A 
ATOM     10  C   UNL     1       3.480   5.789  18.174  0.00  0.00    +0.000 A 
ATOM     11  N   UNL     1       4.240   5.860  17.056  0.00  0.00    +0.000 NA
ENDROOT
BRANCH   8  12
ATOM     12  C   UNL     1       1.452   8.201  20.382  0.00  0.00    +0.000 C 
ATOM     13  O   UNL     1       1.407   8.402  21.593  0.00  0.00    +0.000 OA
ATOM     14  N   UNL     1       0.962   9.098  19.459  0.00  0.00    +0.000 N 
ATOM     15  H   UNL     1       0.863   8.866  18.484  0.00  0.00    +0.000 HD
BRANCH  14  16
ATOM     16  C   UNL     1       0.393  10.370  19.851  0.00  0.00    +0.000 C 
BRANCH  16  17
ATOM     17  C   UNL     1      -0.828  10.688  19.020  0.00  0.00    +0.000 A 
ATOM     18  C   UNL     1      -1.084  10.005  17.821  0.00  0.00    +0.000 A 
ATOM     19  C   UNL     1      -2.243  10.272  17.087  0.00  0.00    +0.000 A 
ATOM     20  C   UNL     1      -3.143  11.226  17.547  0.00  0.00    +0.000 A 
ATOM     21  F   UNL     1      -4.262  11.467  16.851  0.00  0.00    +0.000 F 
ATOM     22  C   UNL     1      -2.903  11.927  18.721  0.00  0.00    +0.000 A 
ATOM     23  C   UNL     1      -1.747  11.659  19.457  0.00  0.00    +0.000 A 
ENDBRANCH  16  17
ENDBRANCH  14  16
ENDBRANCH   8  12
BRANCH   6  24
ATOM     24  N   UNL     1       2.115   3.312  20.653  0.00  0.00    +0.000 N 
ATOM     25  O   UNL     1       3.023   2.800  21.319  0.00  0.00    +0.000 OA
ATOM     26  O   UNL     1       0.952   2.894  20.573  0.00  0.00    +0.000 OA
ENDBRANCH   6  24
BRANCH   9  27
ATOM     27  O   UNL     1       3.205   8.151  18.092  0.00  0.00    +0.000 OA
ATOM     28  H   UNL     1       3.383   7.978  17.142  0.00  0.00    +0.000 HD
ENDBRANCH   9  27
TORSDOF 5
ENDMDL
MODEL 3
REMARK VINA RESULT:      -7.7      2.751      4.359
REMARK  Name = 
REMARK  6 active torsions:
REMARK  status: ('A' for Active; 'I' for Inactive)
REMARK    1  A    between atoms: C_1  and  C_2
REMARK    2  A    between atoms: C_6  and  N_7
REMARK    3  A    between atoms: C_11  and  C_12
REMARK    4  A    between atoms: N_14  and  C_15
REMARK    5  A    between atoms: C_15  and  C_16
REMARK    6  A    between atoms: C_23  and  O_24
REMARK                            x       y       z     vdW  Elec       q    Type
REMARK                         _______ _______ _______ _____ _____    ______ ____
ROOT
ATOM      1  C   UNL     1       5.500   3.643  13.242  0.00  0.00    +0.000 C 
ATOM      2  C   UNL     1       5.831   4.151  14.613  0.00  0.00    +0.000 A 
ATOM      3  C   UNL     1       7.135   4.429  14.972  0.00  0.00    +0.000 A 
ATOM      4  C   UNL     1       7.372   4.920  16.249  0.00  0.00    +0.000 A 
ATOM      5  C   UNL     1       6.305   5.129  17.156  0.00  0.00    +0.000 A 
ATOM      6  C   UNL     1       6.451   5.610  18.479  0.00  0.00    +0.000 A 
ATOM      7  C   UNL     1       5.376   5.749  19.366  0.00  0.00    +0.000 A 
ATOM      8  C   UNL     1       4.092   5.424  18.940  0.00  0.00    +0.000 A 
ATOM      9  C   UNL     1       3.924   4.972  17.611  0.00  0.00    +0.000 A 
ATOM     10  C   UNL     1       5.005   4.812  16.714  0.00  0.00    +0.000 A 
ATOM     11  N   UNL     1       4.795   4.344  15.461  0.00  0.00    +0.000 NA
ENDROOT
BRANCH   8  12
ATOM     12  C   UNL     1       2.919   5.497  19.872  0.00  0.00    +0.000 C 
ATOM     13  O   UNL     1       2.433   4.452  20.299  0.00  0.00    +0.000 OA
ATOM     14  N   UNL     1       2.446   6.740  20.233  0.00  0.00    +0.000 N 
ATOM     15  H   UNL     1       2.743   7.583  19.771  0.00  0.00    +0.000 HD
BRANCH  14  16
ATOM     16  C   UNL     1       1.363   6.905  21.180  0.00  0.00    +0.000 C 
BRANCH  16  17
ATOM     17  C   UNL     1       0.819   8.313  21.129  0.00  0.00    +0.000 A 
ATOM     18  C   UNL     1       0.071   8.837  22.195  0.00  0.00    +0.000 A 
ATOM     19  C   UNL     1      -0.384  10.158  22.159  0.00  0.00    +0.000 A 
ATOM     20  C   UNL     1      -0.098  10.954  21.057  0.00  0.00    +0.000 A 
ATOM     21  F   UNL     1      -0.520  12.225  21.033  0.00  0.00    +0.000 F 
ATOM     22  C   UNL     1       0.626  10.453  19.983  0.00  0.00    +0.000 A 
ATOM     23  C   UNL     1       1.084   9.134  20.018  0.00  0.00    +0.000 A 
ENDBRANCH  16  17
ENDBRANCH  14  16
ENDBRANCH   8  12
BRANCH   6  24
ATOM     24  N   UNL     1       7.759   5.972  18.999  0.00  0.00    +0.000 N 
ATOM     25  O   UNL     1       8.208   7.082  18.689  0.00  0.00    +0.000 OA
ATOM     26  O   UNL     1       8.298   5.160  19.762  0.00  0.00    +0.000 OA
ENDBRANCH   6  24
BRANCH   9  27
ATOM     27  O   UNL     1       2.668   4.649  17.128  0.00  0.00    +0.000 OA
ATOM     28  H   UNL     1       2.132   4.249  17.846  0.00  0.00    +0.000 HD
ENDBRANCH   9  27
TORSDOF 5
ENDMDL
MODEL 4
REMARK VINA RESULT:      -7.7      2.768      4.449
REMARK  Name = 
REMARK  6 active torsions:
REMARK  status: ('A' for Active; 'I' for Inactive)
REMARK    1  A    between atoms: C_1  and  C_2
REMARK    2  A    between atoms: C_6  and  N_7
REMARK    3  A    between atoms: C_11  and  C_12
REMARK    4  A    between atoms: N_14  and  C_15
REMARK    5  A    between atoms: C_15  and  C_16
REMARK    6  A    between atoms: C_23  and  O_24
REMARK                            x       y       z     vdW  Elec       q    Type
REMARK                         _______ _______ _______ _____ _____    ______ ____
ROOT
ATOM      1  C   UNL     1       5.461   3.628  13.265  0.00  0.00    +0.000 C 
ATOM      2  C   UNL     1       5.800   4.137  14.634  0.00  0.00    +0.000 A 
ATOM      3  C   UNL     1       7.106   4.411  14.987  0.00  0.00    +0.000 A 
ATOM      4  C   UNL     1       7.349   4.904  16.262  0.00  0.00    +0.000 A 
ATOM      5  C   UNL     1       6.287   5.119  17.172  0.00  0.00    +0.000 A 
ATOM      6  C   UNL     1       6.439   5.602  18.494  0.00  0.00    +0.000 A 
ATOM      7  C   UNL     1       5.368   5.746  19.385  0.00  0.00    +0.000 A 
ATOM      8  C   UNL     1       4.081   5.426  18.964  0.00  0.00    +0.000 A 
ATOM      9  C   UNL     1       3.906   4.972  17.637  0.00  0.00    +0.000 A 
ATOM     10  C   UNL     1       4.984   4.805  16.736  0.00  0.00    +0.000 A 
ATOM     11  N   UNL     1       4.767   4.336  15.485  0.00  0.00    +0.000 NA
ENDROOT
BRANCH   8  12
ATOM     12  C   UNL     1       2.912   5.505  19.901  0.00  0.00    +0.000 C 
ATOM     13  O   UNL     1       2.477   4.468  20.397  0.00  0.00    +0.000 OA
ATOM     14  N   UNL     1       2.385   6.745  20.187  0.00  0.00    +0.000 N 
ATOM     15  H   UNL     1       2.641   7.570  19.670  0.00  0.00    +0.000 HD
BRANCH  14  16
ATOM     16  C   UNL     1       1.302   6.921  21.132  0.00  0.00    +0.000 C 
BRANCH  16  17
ATOM     17  C   UNL     1       0.858   8.364  21.172  0.00  0.00    +0.000 A 
ATOM     18  C   UNL     1       1.047   9.209  20.067  0.00  0.00    +0.000 A 
ATOM     19  C   UNL     1       0.585  10.528  20.097  0.00  0.00    +0.000 A 
ATOM     20  C   UNL     1      -0.059  11.006  21.233  0.00  0.00    +0.000 A 
ATOM     21  F   UNL     1      -0.516  12.264  21.252  0.00  0.00    +0.000 F 
ATOM     22  C   UNL     1      -0.243  10.194  22.344  0.00  0.00    +0.000 A 
ATOM     23  C   UNL     1       0.216   8.874  22.315  0.00  0.00    +0.000 A 
ENDBRANCH  16  17
ENDBRANCH  14  16
ENDBRANCH   8  12
BRANCH   6  24
ATOM     24  N   UNL     1       7.750   5.961  19.008  0.00  0.00    +0.000 N 
ATOM     25  O   UNL     1       8.346   5.117  19.689  0.00  0.00    +0.000 OA
ATOM     26  O   UNL     1       8.195   7.067  18.675  0.00  0.00    +0.000 OA
ENDBRANCH   6  24
BRANCH   9  27
ATOM     27  O   UNL     1       2.648   4.652  17.159  0.00  0.00    +0.000 OA
ATOM     28  H   UNL     1       1.995   5.306  17.490  0.00  0.00    +0.000 HD
ENDBRANCH   9  27
TORSDOF 5
ENDMDL
MODEL 5
REMARK VINA RESULT:      -7.7      3.873      8.328
REMARK  Name = 
REMARK  6 active torsions:
REMARK  status: ('A' for Active; 'I' for Inactive)
REMARK    1  A    between atoms: C_1  and  C_2
REMARK    2  A    between atoms: C_6  and  N_7
REMARK    3  A    between atoms: C_11  and  C_12
REMARK    4  A    between atoms: N_14  and  C_15
REMARK    5  A    between atoms: C_15  and  C_16
REMARK    6  A    between atoms: C_23  and  O_24
REMARK                            x       y       z     vdW  Elec       q    Type
REMARK                         _______ _______ _______ _____ _____    ______ ____
ROOT
ATOM      1  C   UNL     1      -5.241  12.015  17.751  0.00  0.00    +0.000 C 
ATOM      2  C   UNL     1      -3.998  11.922  18.585  0.00  0.00    +0.000 A 
ATOM      3  C   UNL     1      -3.903  12.581  19.794  0.00  0.00    +0.000 A 
ATOM      4  C   UNL     1      -2.735  12.434  20.530  0.00  0.00    +0.000 A 
ATOM      5  C   UNL     1      -1.673  11.631  20.051  0.00  0.00    +0.000 A 
ATOM      6  C   UNL     1      -0.441  11.435  20.721  0.00  0.00    +0.000 A 
ATOM      7  C   UNL     1       0.610  10.678  20.187  0.00  0.00    +0.000 A 
ATOM      8  C   UNL     1       0.449  10.063  18.949  0.00  0.00    +0.000 A 
ATOM      9  C   UNL     1      -0.786  10.223  18.280  0.00  0.00    +0.000 A 
ATOM     10  C   UNL     1      -1.846  11.000  18.803  0.00  0.00    +0.000 A 
ATOM     11  N   UNL     1      -2.998  11.147  18.107  0.00  0.00    +0.000 NA
ENDROOT
BRANCH   8  12
ATOM     12  C   UNL     1       1.567   9.295  18.309  0.00  0.00    +0.000 C 
ATOM     13  O   UNL     1       2.182   9.808  17.377  0.00  0.00    +0.000 OA
ATOM     14  N   UNL     1       1.876   8.050  18.810  0.00  0.00    +0.000 N 
ATOM     15  H   UNL     1       1.281   7.571  19.467  0.00  0.00    +0.000 HD
BRANCH  14  16
ATOM     16  C   UNL     1       2.983   7.269  18.298  0.00  0.00    +0.000 C 
BRANCH  16  17
ATOM     17  C   UNL     1       2.783   5.801  18.596  0.00  0.00    +0.000 A 
ATOM     18  C   UNL     1       3.441   5.187  19.674  0.00  0.00    +0.000 A 
ATOM     19  C   UNL     1       3.209   3.841  19.970  0.00  0.00    +0.000 A 
ATOM     20  C   UNL     1       2.327   3.106  19.188  0.00  0.00    +0.000 A 
ATOM     21  F   UNL     1       2.094   1.821  19.485  0.00  0.00    +0.000 F 
ATOM     22  C   UNL     1       1.678   3.687  18.106  0.00  0.00    +0.000 A 
ATOM     23  C   UNL     1       1.906   5.033  17.810  0.00  0.00    +0.000 A 
ENDBRANCH  16  17
ENDBRANCH  14  16
ENDBRANCH   8  12
BRANCH   6  24
ATOM     24  N   UNL     1      -0.196  12.041  22.019  0.00  0.00    +0.000 N 
ATOM     25  O   UNL     1      -0.475  11.373  23.022  0.00  0.00    +0.000 OA
ATOM     26  O   UNL     1       0.329  13.163  22.019  0.00  0.00    +0.000 OA
ENDBRANCH   6  24
BRANCH   9  27
ATOM     27  O   UNL     1      -1.008   9.623  17.053  0.00  0.00    +0.000 OA
ATOM     28  H   UNL     1      -0.391   8.867  16.941  0.00  0.00    +0.000 HD
ENDBRANCH   9  27
TORSDOF 5
ENDMDL
MODEL 6
REMARK VINA RESULT:      -7.6      3.605      7.668
REMARK  Name = 
REMARK  6 active torsions:
REMARK  status: ('A' for Active; 'I' for Inactive)
REMARK    1  A    between atoms: C_1  and  C_2
REMARK    2  A    between atoms: C_6  and  N_7
REMARK    3  A    between atoms: C_11  and  C_12
REMARK    4  A    between atoms: N_14  and  C_15
REMARK    5  A    between atoms: C_15  and  C_16
REMARK    6  A    between atoms: C_23  and  O_24
REMARK                            x       y       z     vdW  Elec       q    Type
REMARK                         _______ _______ _______ _____ _____    ______ ____
ROOT
ATOM      1  C   UNL     1       0.177  14.935  18.783  0.00  0.00    +0.000 C 
ATOM      2  C   UNL     1       0.241  13.674  19.591  0.00  0.00    +0.000 A 
ATOM      3  C   UNL     1      -0.203  13.643  20.897  0.00  0.00    +0.000 A 
ATOM      4  C   UNL     1      -0.139  12.437  21.582  0.00  0.00    +0.000 A 
ATOM      5  C   UNL     1       0.369  11.274  20.957  0.00  0.00    +0.000 A 
ATOM      6  C   UNL     1       0.488  10.008  21.579  0.00  0.00    +0.000 A 
ATOM      7  C   UNL     1       1.050   8.892  20.944  0.00  0.00    +0.000 A 
ATOM      8  C   UNL     1       1.500   9.007  19.633  0.00  0.00    +0.000 A 
ATOM      9  C   UNL     1       1.360  10.256  18.986  0.00  0.00    +0.000 A 
ATOM     10  C   UNL     1       0.811  11.393  19.624  0.00  0.00    +0.000 A 
ATOM     11  N   UNL     1       0.729  12.575  18.971  0.00  0.00    +0.000 NA
ENDROOT
BRANCH   8  12
ATOM     12  C   UNL     1       2.166   7.858  18.933  0.00  0.00    +0.000 C 
ATOM     13  O   UNL     1       2.061   7.765  17.713  0.00  0.00    +0.000 OA
ATOM     14  N   UNL     1       2.890   6.963  19.690  0.00  0.00    +0.000 N 
ATOM     15  H   UNL     1       2.850   6.954  20.696  0.00  0.00    +0.000 HD
BRANCH  14  16
ATOM     16  C   UNL     1       3.620   5.866  19.091  0.00  0.00    +0.000 C 
BRANCH  16  17
ATOM     17  C   UNL     1       2.748   4.637  18.987  0.00  0.00    +0.000 A 
ATOM     18  C   UNL     1       1.709   4.410  19.904  0.00  0.00    +0.000 A 
ATOM     19  C   UNL     1       0.875   3.296  19.767  0.00  0.00    +0.000 A 
ATOM     20  C   UNL     1       1.084   2.405  18.721  0.00  0.00    +0.000 A 
ATOM     21  F   UNL     1       0.273   1.349  18.583  0.00  0.00    +0.000 F 
ATOM     22  C   UNL     1       2.115   2.600  17.812  0.00  0.00    +0.000 A 
ATOM     23  C   UNL     1       2.947   3.714  17.945  0.00  0.00    +0.000 A 
ENDBRANCH  16  17
ENDBRANCH  14  16
ENDBRANCH   8  12
BRANCH   6  24
ATOM     24  N   UNL     1       0.039   9.806  22.946  0.00  0.00    +0.000 N 
ATOM     25  O   UNL     1       0.907   9.673  23.817  0.00  0.00    +0.000 OA
ATOM     26  O   UNL     1      -1.183   9.840  23.141  0.00  0.00    +0.000 OA
ENDBRANCH   6  24
BRANCH   9  27
ATOM     27  O   UNL     1       1.777  10.425  17.677  0.00  0.00    +0.000 OA
ATOM     28  H   UNL     1       1.017  10.291  17.070  0.00  0.00    +0.000 HD
ENDBRANCH   9  27
TORSDOF 5
ENDMDL
MODEL 7
REMARK VINA RESULT:      -7.5      2.316      3.077
REMARK  Name = 
REMARK  6 active torsions:
REMARK  status: ('A' for Active; 'I' for Inactive)
REMARK    1  A    between atoms: C_1  and  C_2
REMARK    2  A    between atoms: C_6  and  N_7
REMARK    3  A    between atoms: C_11  and  C_12
REMARK    4  A    between atoms: N_14  and  C_15
REMARK    5  A    between atoms: C_15  and  C_16
REMARK    6  A    between atoms: C_23  and  O_24
REMARK                            x       y       z     vdW  Elec       q    Type
REMARK                         _______ _______ _______ _____ _____    ______ ____
ROOT
ATOM      1  C   UNL     1       5.310   4.809  15.546  0.00  0.00    +0.000 C 
ATOM      2  C   UNL     1       4.483   4.690  16.791  0.00  0.00    +0.000 A 
ATOM      3  C   UNL     1       4.244   3.460  17.371  0.00  0.00    +0.000 A 
ATOM      4  C   UNL     1       3.492   3.421  18.537  0.00  0.00    +0.000 A 
ATOM      5  C   UNL     1       2.986   4.610  19.114  0.00  0.00    +0.000 A 
ATOM      6  C   UNL     1       2.198   4.668  20.289  0.00  0.00    +0.000 A 
ATOM      7  C   UNL     1       1.667   5.860  20.797  0.00  0.00    +0.000 A 
ATOM      8  C   UNL     1       1.931   7.060  20.143  0.00  0.00    +0.000 A 
ATOM      9  C   UNL     1       2.742   7.025  18.986  0.00  0.00    +0.000 A 
ATOM     10  C   UNL     1       3.268   5.824  18.455  0.00  0.00    +0.000 A 
ATOM     11  N   UNL     1       4.013   5.840  17.325  0.00  0.00    +0.000 NA
ENDROOT
BRANCH   8  12
ATOM     12  C   UNL     1       1.333   8.353  20.614  0.00  0.00    +0.000 C 
ATOM     13  O   UNL     1       1.350   8.613  21.814  0.00  0.00    +0.000 OA
ATOM     14  N   UNL     1       0.807   9.211  19.673  0.00  0.00    +0.000 N 
ATOM     15  H   UNL     1       0.658   8.934  18.717  0.00  0.00    +0.000 HD
BRANCH  14  16
ATOM     16  C   UNL     1       0.272  10.508  20.030  0.00  0.00    +0.000 C 
BRANCH  16  17
ATOM     17  C   UNL     1       1.212  11.610  19.600  0.00  0.00    +0.000 A 
ATOM     18  C   UNL     1       1.886  11.546  18.371  0.00  0.00    +0.000 A 
ATOM     19  C   UNL     1       2.713  12.595  17.961  0.00  0.00    +0.000 A 
ATOM     20  C   UNL     1       2.873  13.706  18.781  0.00  0.00    +0.000 A 
ATOM     21  F   UNL     1       3.652  14.717  18.378  0.00  0.00    +0.000 F 
ATOM     22  C   UNL     1       2.229  13.784  20.010  0.00  0.00    +0.000 A 
ATOM     23  C   UNL     1       1.400  12.738  20.419  0.00  0.00    +0.000 A 
ENDBRANCH  16  17
ENDBRANCH  14  16
ENDBRANCH   8  12
BRANCH   6  24
ATOM     24  N   UNL     1       1.880   3.460  21.030  0.00  0.00    +0.000 N 
ATOM     25  O   UNL     1       2.537   3.228  22.051  0.00  0.00    +0.000 OA
ATOM     26  O   UNL     1       0.931   2.784  20.611  0.00  0.00    +0.000 OA
ENDBRANCH   6  24
BRANCH   9  27
ATOM     27  O   UNL     1       3.050   8.188  18.303  0.00  0.00    +0.000 OA
ATOM     28  H   UNL     1       2.241   8.735  18.204  0.00  0.00    +0.000 HD
ENDBRANCH   9  27
TORSDOF 5
ENDMDL
MODEL 8
REMARK VINA RESULT:      -7.5      2.305      2.859
REMARK  Name = 
REMARK  6 active torsions:
REMARK  status: ('A' for Active; 'I' for Inactive)
REMARK    1  A    between atoms: C_1  and  C_2
REMARK    2  A    between atoms: C_6  and  N_7
REMARK    3  A    between atoms: C_11  and  C_12
REMARK    4  A    between atoms: N_14  and  C_15
REMARK    5  A    between atoms: C_15  and  C_16
REMARK    6  A    between atoms: C_23  and  O_24
REMARK                            x       y       z     vdW  Elec       q    Type
REMARK                         _______ _______ _______ _____ _____    ______ ____
ROOT
ATOM      1  C   UNL     1       5.287   4.852  15.596  0.00  0.00    +0.000 C 
ATOM      2  C   UNL     1       4.464   4.724  16.843  0.00  0.00    +0.000 A 
ATOM      3  C   UNL     1       4.239   3.492  17.423  0.00  0.00    +0.000 A 
ATOM      4  C   UNL     1       3.489   3.445  18.591  0.00  0.00    +0.000 A 
ATOM      5  C   UNL     1       2.971   4.629  19.168  0.00  0.00    +0.000 A 
ATOM      6  C   UNL     1       2.184   4.678  20.344  0.00  0.00    +0.000 A 
ATOM      7  C   UNL     1       1.640   5.865  20.852  0.00  0.00    +0.000 A 
ATOM      8  C   UNL     1       1.890   7.067  20.198  0.00  0.00    +0.000 A 
ATOM      9  C   UNL     1       2.700   7.040  19.039  0.00  0.00    +0.000 A 
ATOM     10  C   UNL     1       3.238   5.845  18.508  0.00  0.00    +0.000 A 
ATOM     11  N   UNL     1       3.981   5.869  17.377  0.00  0.00    +0.000 NA
ENDROOT
BRANCH   8  12
ATOM     12  C   UNL     1       1.278   8.353  20.669  0.00  0.00    +0.000 C 
ATOM     13  O   UNL     1       1.402   8.673  21.849  0.00  0.00    +0.000 OA
ATOM     14  N   UNL     1       0.619   9.139  19.749  0.00  0.00    +0.000 N 
ATOM     15  H   UNL     1       0.389   8.809  18.826  0.00  0.00    +0.000 HD
BRANCH  14  16
ATOM     16  C   UNL     1       0.058  10.427  20.101  0.00  0.00    +0.000 C 
BRANCH  16  17
ATOM     17  C   UNL     1       1.013  11.541  19.741  0.00  0.00    +0.000 A 
ATOM     18  C   UNL     1       1.328  12.549  20.666  0.00  0.00    +0.000 A 
ATOM     19  C   UNL     1       2.251  13.546  20.339  0.00  0.00    +0.000 A 
ATOM     20  C   UNL     1       2.854  13.542  19.088  0.00  0.00    +0.000 A 
ATOM     21  F   UNL     1       3.751  14.488  18.784  0.00  0.00    +0.000 F 
ATOM     22  C   UNL     1       2.546  12.565  18.150  0.00  0.00    +0.000 A 
ATOM     23  C   UNL     1       1.626  11.566  18.476  0.00  0.00    +0.000 A 
ENDBRANCH  16  17
ENDBRANCH  14  16
ENDBRANCH   8  12
BRANCH   6  24
ATOM     24  N   UNL     1       1.880   3.466  21.086  0.00  0.00    +0.000 N 
ATOM     25  O   UNL     1       1.008   2.720  20.626  0.00  0.00    +0.000 OA
ATOM     26  O   UNL     1       2.562   3.247  22.096  0.00  0.00    +0.000 OA
ENDBRANCH   6  24
BRANCH   9  27
ATOM     27  O   UNL     1       2.994   8.207  18.355  0.00  0.00    +0.000 OA
ATOM     28  H   UNL     1       2.505   8.956  18.759  0.00  0.00    +0.000 HD
ENDBRANCH   9  27
TORSDOF 5
ENDMDL
MODEL 9
REMARK VINA RESULT:      -7.5      1.165      1.751
REMARK  Name = 
REMARK  6 active torsions:
REMARK  status: ('A' for Active; 'I' for Inactive)
REMARK    1  A    between atoms: C_1  and  C_2
REMARK    2  A    between atoms: C_6  and  N_7
REMARK    3  A    between atoms: C_11  and  C_12
REMARK    4  A    between atoms: N_14  and  C_15
REMARK    5  A    between atoms: C_15  and  C_16
REMARK    6  A    between atoms: C_23  and  O_24
REMARK                            x       y       z     vdW  Elec       q    Type
REMARK                         _______ _______ _______ _____ _____    ______ ____
ROOT
ATOM      1  C   UNL     1       6.822   5.050  15.065  0.00  0.00    +0.000 C 
ATOM      2  C   UNL     1       5.655   4.826  15.980  0.00  0.00    +0.000 A 
ATOM      3  C   UNL     1       5.177   3.554  16.223  0.00  0.00    +0.000 A 
ATOM      4  C   UNL     1       4.109   3.412  17.099  0.00  0.00    +0.000 A 
ATOM      5  C   UNL     1       3.529   4.541  17.725  0.00  0.00    +0.000 A 
ATOM      6  C   UNL     1       2.431   4.497  18.617  0.00  0.00    +0.000 A 
ATOM      7  C   UNL     1       1.848   5.644  19.171  0.00  0.00    +0.000 A 
ATOM      8  C   UNL     1       2.370   6.895  18.859  0.00  0.00    +0.000 A 
ATOM      9  C   UNL     1       3.486   6.956  17.994  0.00  0.00    +0.000 A 
ATOM     10  C   UNL     1       4.071   5.805  17.415  0.00  0.00    +0.000 A 
ATOM     11  N   UNL     1       5.119   5.920  16.567  0.00  0.00    +0.000 NA
ENDROOT
BRANCH   8  12
ATOM     12  C   UNL     1       1.740   8.155  19.378  0.00  0.00    +0.000 C 
ATOM     13  O   UNL     1       1.568   8.278  20.588  0.00  0.00    +0.000 OA
ATOM     14  N   UNL     1       1.399   9.136  18.473  0.00  0.00    +0.000 N 
ATOM     15  H   UNL     1       1.399   8.975  17.479  0.00  0.00    +0.000 HD
BRANCH  14  16
ATOM     16  C   UNL     1       0.850  10.409  18.891  0.00  0.00    +0.000 C 
BRANCH  16  17
ATOM     17  C   UNL     1      -0.582  10.550  18.430  0.00  0.00    +0.000 A 
ATOM     18  C   UNL     1      -1.093   9.740  17.404  0.00  0.00    +0.000 A 
ATOM     19  C   UNL     1      -2.434   9.845  17.021  0.00  0.00    +0.000 A 
ATOM     20  C   UNL     1      -3.261  10.763  17.657  0.00  0.00    +0.000 A 
ATOM     21  F   UNL     1      -4.549  10.848  17.300  0.00  0.00    +0.000 F 
ATOM     22  C   UNL     1      -2.773  11.586  18.663  0.00  0.00    +0.000 A 
ATOM     23  C   UNL     1      -1.435  11.481  19.049  0.00  0.00    +0.000 A 
ENDBRANCH  16  17
ENDBRANCH  14  16
ENDBRANCH   8  12
BRANCH   6  24
ATOM     24  N   UNL     1       1.831   3.229  18.994  0.00  0.00    +0.000 N 
ATOM     25  O   UNL     1       2.247   2.686  20.024  0.00  0.00    +0.000 OA
ATOM     26  O   UNL     1       0.904   2.819  18.283  0.00  0.00    +0.000 OA
ENDBRANCH   6  24
BRANCH   9  27
ATOM     27  O   UNL     1       4.056   8.172  17.659  0.00  0.00    +0.000 OA
ATOM     28  H   UNL     1       4.953   8.233  18.053  0.00  0.00    +0.000 HD
ENDBRANCH   9  27
TORSDOF 5
ENDMDL
