MODEL 1
REMARK VINA RESULT:      -7.2      0.000      0.000
REMARK  Name = 
REMARK  3 active torsions:
REMARK  status: ('A' for Active; 'I' for Inactive)
REMARK    1  A    between atoms: C_1  and  O_2
REMARK    2  A    between atoms: O_2  and  C_3
REMARK    3  A    between atoms: C_10  and  C_11
REMARK                            x       y       z     vdW  Elec       q    Type
REMARK                         _______ _______ _______ _____ _____    ______ ____
ROOT
ATOM      1  C   UNL     1       2.371   3.857  18.537  0.00  0.00    +0.000 A 
ATOM      2  C   UNL     1       3.369   3.157  19.221  0.00  0.00    +0.000 A 
ATOM      3  C   UNL     1       4.686   3.623  19.211  0.00  0.00    +0.000 A 
ATOM      4  C   UNL     1       5.006   4.781  18.499  0.00  0.00    +0.000 A 
ATOM      5  C   UNL     1       4.022   5.456  17.779  0.00  0.00    +0.000 A 
ATOM      6  C   UNL     1       2.705   5.004  17.812  0.00  0.00    +0.000 A 
ATOM      7  O   UNL     1       4.277   6.544  16.982  0.00  0.00    +0.000 OA
ATOM      8  C   UNL     1       5.653   6.671  16.575  0.00  0.00    +0.000 C 
ATOM      9  C   UNL     1       6.595   6.606  17.768  0.00  0.00    +0.000 C 
ATOM     10  C   UNL     1       6.381   5.314  18.504  0.00  0.00    +0.000 C 
ATOM     11  O   UNL     1       7.268   4.763  19.150  0.00  0.00    +0.000 OA
ENDROOT
BRANCH   8  12
ATOM     12  C   UNL     1       5.960   5.660  15.507  0.00  0.00    +0.000 A 
ATOM     13  C   UNL     1       5.217   4.710  14.831  0.00  0.00    +0.000 A 
ATOM     14  C   UNL     1       6.118   4.014  13.993  0.00  0.00    +0.000 A 
ATOM     15  C   UNL     1       7.345   4.606  14.173  0.00  0.00    +0.000 A 
ATOM     16  O   UNL     1       7.256   5.612  15.080  0.00  0.00    +0.000 OA
ENDBRANCH   8  12
BRANCH   1  18
ATOM     17  C   UNL     1       0.740   2.206  18.991  0.00  0.00    +0.000 C 
ATOM     18  O   UNL     1       1.054   3.493  18.471  0.00  0.00    +0.000 OA
ENDBRANCH   1  18
TORSDOF 2
ENDMDL
MODEL 2
REMARK VINA RESULT:      -7.2      2.126      5.534
REMARK  Name = 
REMARK  3 active torsions:
REMARK  status: ('A' for Active; 'I' for Inactive)
REMARK    1  A    between atoms: C_1  and  O_2
REMARK    2  A    between atoms: O_2  and  C_3
REMARK    3  A    between atoms: C_10  and  C_11
REMARK                            x       y       z     vdW  Elec       q    Type
REMARK                         _______ _______ _______ _____ _____    ______ ____
ROOT
ATOM      1  C   UNL     1       7.252   6.959  17.568  0.00  0.00    +0.000 A 
ATOM      2  C   UNL     1       7.680   6.199  18.659  0.00  0.00    +0.000 A 
ATOM      3  C   UNL     1       6.903   5.132  19.119  0.00  0.00    +0.000 A 
ATOM      4  C   UNL     1       5.688   4.841  18.496  0.00  0.00    +0.000 A 
ATOM      5  C   UNL     1       5.237   5.626  17.437  0.00  0.00    +0.000 A 
ATOM      6  C   UNL     1       6.025   6.673  16.964  0.00  0.00    +0.000 A 
ATOM      7  O   UNL     1       4.015   5.461  16.836  0.00  0.00    +0.000 OA
ATOM      8  C   UNL     1       3.052   4.748  17.637  0.00  0.00    +0.000 C 
ATOM      9  C   UNL     1       3.619   3.431  18.147  0.00  0.00    +0.000 C 
ATOM     10  C   UNL     1       4.869   3.697  18.938  0.00  0.00    +0.000 C 
ATOM     11  O   UNL     1       5.246   2.966  19.848  0.00  0.00    +0.000 OA
ENDROOT
BRANCH   8  12
ATOM     12  C   UNL     1       2.536   5.645  18.726  0.00  0.00    +0.000 A 
ATOM     13  C   UNL     1       2.541   7.011  18.938  0.00  0.00    +0.000 A 
ATOM     14  C   UNL     1       1.958   7.225  20.208  0.00  0.00    +0.000 A 
ATOM     15  C   UNL     1       1.595   5.986  20.676  0.00  0.00    +0.000 A 
ATOM     16  O   UNL     1       1.931   5.024  19.780  0.00  0.00    +0.000 OA
ENDBRANCH   8  12
BRANCH   1  18
ATOM     17  C   UNL     1       8.257   9.066  17.952  0.00  0.00    +0.000 C 
ATOM     18  O   UNL     1       7.924   8.027  17.038  0.00  0.00    +0.000 OA
ENDBRANCH   1  18
TORSDOF 2
ENDMDL
MODEL 3
REMARK VINA RESULT:      -6.7      1.895      3.153
REMARK  Name = 
REMARK  3 active torsions:
REMARK  status: ('A' for Active; 'I' for Inactive)
REMARK    1  A    between atoms: C_1  and  O_2
REMARK    2  A    between atoms: O_2  and  C_3
REMARK    3  A    between atoms: C_10  and  C_11
REMARK                            x       y       z     vdW  Elec       q    Type
REMARK                         _______ _______ _______ _____ _____    ______ ____
ROOT
ATOM      1  C   UNL     1       2.479   3.716  19.627  0.00  0.00    +0.000 A 
ATOM      2  C   UNL     1       2.095   4.992  20.046  0.00  0.00    +0.000 A 
ATOM      3  C   UNL     1       2.516   6.120  19.336  0.00  0.00    +0.000 A 
ATOM      4  C   UNL     1       3.337   5.968  18.217  0.00  0.00    +0.000 A 
ATOM      5  C   UNL     1       3.759   4.699  17.824  0.00  0.00    +0.000 A 
ATOM      6  C   UNL     1       3.317   3.575  18.518  0.00  0.00    +0.000 A 
ATOM      7  O   UNL     1       4.639   4.477  16.795  0.00  0.00    +0.000 OA
ATOM      8  C   UNL     1       5.442   5.620  16.445  0.00  0.00    +0.000 C 
ATOM      9  C   UNL     1       4.582   6.851  16.203  0.00  0.00    +0.000 C 
ATOM     10  C   UNL     1       3.763   7.139  17.429  0.00  0.00    +0.000 C 
ATOM     11  O   UNL     1       3.389   8.269  17.727  0.00  0.00    +0.000 OA
ENDROOT
BRANCH   8  12
ATOM     12  C   UNL     1       6.511   5.824  17.481  0.00  0.00    +0.000 A 
ATOM     13  C   UNL     1       7.020   5.055  18.510  0.00  0.00    +0.000 A 
ATOM     14  C   UNL     1       7.972   5.857  19.181  0.00  0.00    +0.000 A 
ATOM     15  C   UNL     1       8.019   7.048  18.497  0.00  0.00    +0.000 A 
ATOM     16  O   UNL     1       7.146   7.033  17.459  0.00  0.00    +0.000 OA
ENDBRANCH   8  12
BRANCH   1  18
ATOM     17  C   UNL     1       1.594   2.672  21.556  0.00  0.00    +0.000 C 
ATOM     18  O   UNL     1       2.135   2.545  20.246  0.00  0.00    +0.000 OA
ENDBRANCH   1  18
TORSDOF 2
ENDMDL
MODEL 4
REMARK VINA RESULT:      -6.7      1.920      2.738
REMARK  Name = 
REMARK  3 active torsions:
REMARK  status: ('A' for Active; 'I' for Inactive)
REMARK    1  A    between atoms: C_1  and  O_2
REMARK    2  A    between atoms: O_2  and  C_3
REMARK    3  A    between atoms: C_10  and  C_11
REMARK                            x       y       z     vdW  Elec       q    Type
REMARK                         _______ _______ _______ _____ _____    ______ ____
ROOT
ATOM      1  C   UNL     1       2.588   7.317  17.904  0.00  0.00    +0.000 A 
ATOM      2  C   UNL     1       2.361   6.099  18.551  0.00  0.00    +0.000 A 
ATOM      3  C   UNL     1       3.428   5.239  18.821  0.00  0.00    +0.000 A 
ATOM      4  C   UNL     1       4.720   5.591  18.426  0.00  0.00    +0.000 A 
ATOM      5  C   UNL     1       4.943   6.783  17.740  0.00  0.00    +0.000 A 
ATOM      6  C   UNL     1       3.881   7.652  17.494  0.00  0.00    +0.000 A 
ATOM      7  O   UNL     1       6.165   7.154  17.238  0.00  0.00    +0.000 OA
ATOM      8  C   UNL     1       7.088   6.062  17.060  0.00  0.00    +0.000 C 
ATOM      9  C   UNL     1       7.220   5.232  18.328  0.00  0.00    +0.000 C 
ATOM     10  C   UNL     1       5.867   4.718  18.733  0.00  0.00    +0.000 C 
ATOM     11  O   UNL     1       5.715   3.674  19.360  0.00  0.00    +0.000 OA
ENDROOT
BRANCH   8  12
ATOM     12  C   UNL     1       6.695   5.259  15.852  0.00  0.00    +0.000 A 
ATOM     13  C   UNL     1       5.723   4.310  15.594  0.00  0.00    +0.000 A 
ATOM     14  C   UNL     1       5.927   3.874  14.265  0.00  0.00    +0.000 A 
ATOM     15  C   UNL     1       6.979   4.610  13.777  0.00  0.00    +0.000 A 
ATOM     16  O   UNL     1       7.443   5.461  14.727  0.00  0.00    +0.000 OA
ENDBRANCH   8  12
BRANCH   1  18
ATOM     17  C   UNL     1       1.891   9.576  17.963  0.00  0.00    +0.000 C 
ATOM     18  O   UNL     1       1.623   8.231  17.581  0.00  0.00    +0.000 OA
ENDBRANCH   1  18
TORSDOF 2
ENDMDL
MODEL 5
REMARK VINA RESULT:      -6.7      1.808      4.897
REMARK  Name = 
REMARK  3 active torsions:
REMARK  status: ('A' for Active; 'I' for Inactive)
REMARK    1  A    between atoms: C_1  and  O_2
REMARK    2  A    between atoms: O_2  and  C_3
REMARK    3  A    between atoms: C_10  and  C_11
REMARK                            x       y       z     vdW  Elec       q    Type
REMARK                         _______ _______ _______ _____ _____    ______ ____
ROOT
ATOM      1  C   UNL     1       6.517   4.575  14.871  0.00  0.00    +0.000 A 
ATOM      2  C   UNL     1       7.487   5.004  15.780  0.00  0.00    +0.000 A 
ATOM      3  C   UNL     1       7.211   5.014  17.150  0.00  0.00    +0.000 A 
ATOM      4  C   UNL     1       5.954   4.611  17.606  0.00  0.00    +0.000 A 
ATOM      5  C   UNL     1       4.969   4.226  16.699  0.00  0.00    +0.000 A 
ATOM      6  C   UNL     1       5.255   4.192  15.336  0.00  0.00    +0.000 A 
ATOM      7  O   UNL     1       3.685   3.907  17.063  0.00  0.00    +0.000 OA
ATOM      8  C   UNL     1       3.288   4.421  18.349  0.00  0.00    +0.000 C 
ATOM      9  C   UNL     1       4.295   4.054  19.429  0.00  0.00    +0.000 C 
ATOM     10  C   UNL     1       5.651   4.576  19.049  0.00  0.00    +0.000 C 
ATOM     11  O   UNL     1       6.502   4.880  19.879  0.00  0.00    +0.000 OA
ENDROOT
BRANCH   8  12
ATOM     12  C   UNL     1       3.026   5.897  18.245  0.00  0.00    +0.000 A 
ATOM     13  C   UNL     1       3.365   6.878  17.332  0.00  0.00    +0.000 A 
ATOM     14  C   UNL     1       2.877   8.099  17.850  0.00  0.00    +0.000 A 
ATOM     15  C   UNL     1       2.233   7.787  19.024  0.00  0.00    +0.000 A 
ATOM     16  O   UNL     1       2.309   6.453  19.264  0.00  0.00    +0.000 OA
ENDBRANCH   8  12
BRANCH   1  18
ATOM     17  C   UNL     1       5.942   3.511  12.838  0.00  0.00    +0.000 C 
ATOM     18  O   UNL     1       6.671   4.530  13.513  0.00  0.00    +0.000 OA
ENDBRANCH   1  18
TORSDOF 2
ENDMDL
MODEL 6
REMARK VINA RESULT:      -6.6      1.733      3.429
REMARK  Name = 
REMARK  3 active torsions:
REMARK  status: ('A' for Active; 'I' for Inactive)
REMARK    1  A    between atoms: C_1  and  O_2
REMARK    2  A    between atoms: O_2  and  C_3
REMARK    3  A    between atoms: C_10  and  C_11
REMARK                            x       y       z     vdW  Elec       q    Type
REMARK                         _______ _______ _______ _____ _____    ______ ____
ROOT
ATOM      1  C   UNL     1       3.226   4.677  19.583  0.00  0.00    +0.000 A 
ATOM      2  C   UNL     1       2.672   4.974  18.335  0.00  0.00    +0.000 A 
ATOM      3  C   UNL     1       3.476   4.969  17.192  0.00  0.00    +0.000 A 
ATOM      4  C   UNL     1       4.838   4.686  17.304  0.00  0.00    +0.000 A 
ATOM      5  C   UNL     1       5.402   4.435  18.553  0.00  0.00    +0.000 A 
ATOM      6  C   UNL     1       4.594   4.414  19.688  0.00  0.00    +0.000 A 
ATOM      7  O   UNL     1       6.746   4.240  18.754  0.00  0.00    +0.000 OA
ATOM      8  C   UNL     1       7.583   4.753  17.700  0.00  0.00    +0.000 C 
ATOM      9  C   UNL     1       7.133   4.249  16.337  0.00  0.00    +0.000 C 
ATOM     10  C   UNL     1       5.700   4.638  16.108  0.00  0.00    +0.000 C 
ATOM     11  O   UNL     1       5.234   4.825  14.988  0.00  0.00    +0.000 OA
ENDROOT
BRANCH   8  12
ATOM     12  C   UNL     1       7.657   6.251  17.795  0.00  0.00    +0.000 A 
ATOM     13  C   UNL     1       7.172   7.294  17.029  0.00  0.00    +0.000 A 
ATOM     14  C   UNL     1       7.657   8.485  17.617  0.00  0.00    +0.000 A 
ATOM     15  C   UNL     1       8.370   8.102  18.727  0.00  0.00    +0.000 A 
ATOM     16  O   UNL     1       8.366   6.751  18.849  0.00  0.00    +0.000 OA
ENDBRANCH   8  12
BRANCH   1  18
ATOM     17  C   UNL     1       1.259   4.041  20.732  0.00  0.00    +0.000 C 
ATOM     18  O   UNL     1       2.540   4.659  20.767  0.00  0.00    +0.000 OA
ENDBRANCH   1  18
TORSDOF 2
ENDMDL
MODEL 7
REMARK VINA RESULT:      -6.5      2.067      3.358
REMARK  Name = 
REMARK  3 active torsions:
REMARK  status: ('A' for Active; 'I' for Inactive)
REMARK    1  A    between atoms: C_1  and  O_2
REMARK    2  A    between atoms: O_2  and  C_3
REMARK    3  A    between atoms: C_10  and  C_11
REMARK                            x       y       z     vdW  Elec       q    Type
REMARK                         _______ _______ _______ _____ _____    ______ ____
ROOT
ATOM      1  C   UNL     1       3.481   3.718  19.830  0.00  0.00    +0.000 A 
ATOM      2  C   UNL     1       2.845   4.904  20.205  0.00  0.00    +0.000 A 
ATOM      3  C   UNL     1       2.942   6.038  19.394  0.00  0.00    +0.000 A 
ATOM      4  C   UNL     1       3.693   5.988  18.219  0.00  0.00    +0.000 A 
ATOM      5  C   UNL     1       4.367   4.820  17.866  0.00  0.00    +0.000 A 
ATOM      6  C   UNL     1       4.247   3.682  18.662  0.00  0.00    +0.000 A 
ATOM      7  O   UNL     1       5.197   4.721  16.778  0.00  0.00    +0.000 OA
ATOM      8  C   UNL     1       5.688   5.985  16.291  0.00  0.00    +0.000 C 
ATOM      9  C   UNL     1       4.552   6.968  16.053  0.00  0.00    +0.000 C 
ATOM     10  C   UNL     1       3.780   7.159  17.327  0.00  0.00    +0.000 C 
ATOM     11  O   UNL     1       3.178   8.196  17.589  0.00  0.00    +0.000 OA
ENDROOT
BRANCH   8  12
ATOM     12  C   UNL     1       6.753   6.504  17.215  0.00  0.00    +0.000 A 
ATOM     13  C   UNL     1       7.453   5.972  18.281  0.00  0.00    +0.000 A 
ATOM     14  C   UNL     1       8.271   7.009  18.785  0.00  0.00    +0.000 A 
ATOM     15  C   UNL     1       8.055   8.096  17.974  0.00  0.00    +0.000 A 
ATOM     16  O   UNL     1       7.145   7.796  17.013  0.00  0.00    +0.000 OA
ENDBRANCH   8  12
BRANCH   1  18
ATOM     17  C   UNL     1       4.655   1.776  20.499  0.00  0.00    +0.000 C 
ATOM     18  O   UNL     1       3.462   2.552  20.546  0.00  0.00    +0.000 OA
ENDBRANCH   1  18
TORSDOF 2
ENDMDL
MODEL 8
REMARK VINA RESULT:      -6.5      1.673      5.302
REMARK  Name = 
REMARK  3 active torsions:
REMARK  status: ('A' for Active; 'I' for Inactive)
REMARK    1  A    between atoms: C_1  and  O_2
REMARK    2  A    between atoms: O_2  and  C_3
REMARK    3  A    between atoms: C_10  and  C_11
REMARK                            x       y       z     vdW  Elec       q    Type
REMARK                         _______ _______ _______ _____ _____    ______ ____
ROOT
ATOM      1  C   UNL     1       6.194   5.621  16.526  0.00  0.00    +0.000 A 
ATOM      2  C   UNL     1       5.274   6.467  15.902  0.00  0.00    +0.000 A 
ATOM      3  C   UNL     1       4.130   6.885  16.587  0.00  0.00    +0.000 A 
ATOM      4  C   UNL     1       3.900   6.440  17.889  0.00  0.00    +0.000 A 
ATOM      5  C   UNL     1       4.792   5.560  18.498  0.00  0.00    +0.000 A 
ATOM      6  C   UNL     1       5.945   5.164  17.824  0.00  0.00    +0.000 A 
ATOM      7  O   UNL     1       4.587   5.007  19.737  0.00  0.00    +0.000 OA
ATOM      8  C   UNL     1       3.214   5.023  20.173  0.00  0.00    +0.000 C 
ATOM      9  C   UNL     1       2.612   6.415  20.065  0.00  0.00    +0.000 C 
ATOM     10  C   UNL     1       2.720   6.898  18.646  0.00  0.00    +0.000 C 
ATOM     11  O   UNL     1       1.926   7.695  18.155  0.00  0.00    +0.000 OA
ENDROOT
BRANCH   8  12
ATOM     12  C   UNL     1       2.437   3.969  19.436  0.00  0.00    +0.000 A 
ATOM     13  C   UNL     1       1.093   3.674  19.302  0.00  0.00    +0.000 A 
ATOM     14  C   UNL     1       1.014   2.496  18.526  0.00  0.00    +0.000 A 
ATOM     15  C   UNL     1       2.306   2.166  18.196  0.00  0.00    +0.000 A 
ATOM     16  O   UNL     1       3.174   3.060  18.733  0.00  0.00    +0.000 OA
ENDBRANCH   8  12
BRANCH   1  18
ATOM     17  C   UNL     1       7.228   4.716  14.601  0.00  0.00    +0.000 C 
ATOM     18  O   UNL     1       7.341   5.141  15.954  0.00  0.00    +0.000 OA
ENDBRANCH   1  18
TORSDOF 2
ENDMDL
MODEL 9
REMARK VINA RESULT:      -6.4      1.336      5.280
REMARK  Name = 
REMARK  3 active torsions:
REMARK  status: ('A' for Active; 'I' for Inactive)
REMARK    1  A    between atoms: C_1  and  O_2
REMARK    2  A    between atoms: O_2  and  C_3
REMARK    3  A    between atoms: C_10  and  C_11
REMARK                            x       y       z     vdW  Elec       q    Type
REMARK                         _______ _______ _______ _____ _____    ______ ____
ROOT
ATOM      1  C   UNL     1       6.518   5.381  16.046  0.00  0.00    +0.000 A 
ATOM      2  C   UNL     1       5.528   6.300  15.690  0.00  0.00    +0.000 A 
ATOM      3  C   UNL     1       4.489   6.590  16.578  0.00  0.00    +0.000 A 
ATOM      4  C   UNL     1       4.432   5.944  17.814  0.00  0.00    +0.000 A 
ATOM      5  C   UNL     1       5.393   4.993  18.153  0.00  0.00    +0.000 A 
ATOM      6  C   UNL     1       6.443   4.724  17.278  0.00  0.00    +0.000 A 
ATOM      7  O   UNL     1       5.353   4.251  19.307  0.00  0.00    +0.000 OA
ATOM      8  C   UNL     1       4.051   4.178  19.920  0.00  0.00    +0.000 C 
ATOM      9  C   UNL     1       3.448   5.562  20.111  0.00  0.00    +0.000 C 
ATOM     10  C   UNL     1       3.367   6.261  18.783  0.00  0.00    +0.000 C 
ATOM     11  O   UNL     1       2.520   7.113  18.533  0.00  0.00    +0.000 OA
ENDROOT
BRANCH   8  12
ATOM     12  C   UNL     1       3.175   3.241  19.137  0.00  0.00    +0.000 A 
ATOM     13  C   UNL     1       3.399   2.316  18.135  0.00  0.00    +0.000 A 
ATOM     14  C   UNL     1       2.134   1.810  17.761  0.00  0.00    +0.000 A 
ATOM     15  C   UNL     1       1.218   2.421  18.584  0.00  0.00    +0.000 A 
ATOM     16  O   UNL     1       1.841   3.281  19.428  0.00  0.00    +0.000 OA
ENDBRANCH   8  12
BRANCH   1  18
ATOM     17  C   UNL     1       7.279   4.805  13.882  0.00  0.00    +0.000 C 
ATOM     18  O   UNL     1       7.574   5.014  15.258  0.00  0.00    +0.000 OA
ENDBRANCH   1  18
TORSDOF 2
ENDMDL
