MODEL 1
REMARK VINA RESULT:      -7.6      0.000      0.000
REMARK  Name = 
REMARK  9 active torsions:
REMARK  status: ('A' for Active; 'I' for Inactive)
REMARK    1  A    between atoms: C_1  and  C_2
REMARK    2  A    between atoms: C_2  and  O_3
REMARK    3  A    between atoms: O_3  and  C_4
REMARK    4  A    between atoms: C_7  and  O_8
REMARK    5  A    between atoms: O_8  and  C_9
REMARK    6  A    between atoms: C_9  and  C_10
REMARK    7  A    between atoms: C_11  and  N_12
REMARK    8  A    between atoms: N_12  and  C_13
REMARK    9  A    between atoms: C_13  and  C_14
REMARK                            x       y       z     vdW  Elec       q    Type
REMARK                         _______ _______ _______ _____ _____    ______ ____
ROOT
ATOM      1  C   UNL     1       3.361   4.828  18.175  0.00  0.00    +0.000 A 
ATOM      2  C   UNL     1       3.591   6.008  18.864  0.00  0.00    +0.000 A 
ATOM      3  N   UNL     1       3.110   5.865  20.143  0.00  0.00    +0.000 N 
ATOM      4  C   UNL     1       2.592   4.610  20.303  0.00  0.00    +0.000 A 
ATOM      5  N   UNL     1       2.080   4.134  21.446  0.00  0.00    +0.000 NA
ATOM      6  C   UNL     1       1.684   2.860  21.330  0.00  0.00    +0.000 A 
ATOM      7  N   UNL     1       1.151   2.266  22.463  0.00  0.00    +0.000 N 
ATOM      8  N   UNL     1       1.719   2.103  20.223  0.00  0.00    +0.000 NA
ATOM      9  C   UNL     1       2.231   2.622  19.088  0.00  0.00    +0.000 A 
ATOM     10  N   UNL     1       2.278   1.803  17.967  0.00  0.00    +0.000 N 
ATOM     11  C   UNL     1       2.713   3.937  19.102  0.00  0.00    +0.000 A 
ATOM     12  H   UNL     1       3.145   6.557  20.878  0.00  0.00    +0.000 HD
ATOM     13  H   UNL     1       0.765   2.978  23.067  0.00  0.00    +0.000 HD
ATOM     14  H   UNL     1       0.536   1.516  22.179  0.00  0.00    +0.000 HD
ATOM     15  H   UNL     1       2.204   0.827  18.228  0.00  0.00    +0.000 HD
ATOM     16  H   UNL     1       3.035   2.038  17.323  0.00  0.00    +0.000 HD
ENDROOT
BRANCH   1  17
ATOM     17  C   UNL     1       3.763   4.492  16.758  0.00  0.00    +0.000 C 
BRANCH  17  18
ATOM     18  N   UNL     1       5.141   4.006  16.678  0.00  0.00    +0.000 N 
ATOM     19  H   UNL     1       5.598   4.110  17.585  0.00  0.00    +0.000 HD
BRANCH  18  24
ATOM     20  C   UNL     1       6.429   4.110  13.229  0.00  0.00    +0.000 A 
ATOM     21  C   UNL     1       7.556   4.906  13.339  0.00  0.00    +0.000 A 
ATOM     22  C   UNL     1       7.900   5.465  14.568  0.00  0.00    +0.000 A 
ATOM     23  C   UNL     1       7.148   5.212  15.732  0.00  0.00    +0.000 A 
ATOM     24  C   UNL     1       6.029   4.350  15.648  0.00  0.00    +0.000 A 
ATOM     25  C   UNL     1       5.675   3.843  14.370  0.00  0.00    +0.000 A 
BRANCH  20  26
ATOM     26  O   UNL     1       6.205   3.591  11.987  0.00  0.00    +0.000 OA
BRANCH  26  28
ATOM     27  C   UNL     1       4.035   3.177  11.128  0.00  0.00    +0.000 C 
ATOM     28  C   UNL     1       5.199   2.583  11.903  0.00  0.00    +0.000 C 
ENDBRANCH  26  28
ENDBRANCH  20  26
BRANCH  23  29
ATOM     29  O   UNL     1       7.491   5.758  16.954  0.00  0.00    +0.000 OA
BRANCH  29  30
ATOM     30  C   UNL     1       6.855   6.999  17.281  0.00  0.00    +0.000 C 
ATOM     31  C   UNL     1       7.877   8.071  17.602  0.00  0.00    +0.000 C 
ENDBRANCH  29  30
ENDBRANCH  23  29
ENDBRANCH  18  24
ENDBRANCH  17  18
ENDBRANCH   1  17
TORSDOF 7
ENDMDL
MODEL 2
REMARK VINA RESULT:      -7.4      1.493      1.896
REMARK  Name = 
REMARK  9 active torsions:
REMARK  status: ('A' for Active; 'I' for Inactive)
REMARK    1  A    between atoms: C_1  and  C_2
REMARK    2  A    between atoms: C_2  and  O_3
REMARK    3  A    between atoms: O_3  and  C_4
REMARK    4  A    between atoms: C_7  and  O_8
REMARK    5  A    between atoms: O_8  and  C_9
REMARK    6  A    between atoms: C_9  and  C_10
REMARK    7  A    between atoms: C_11  and  N_12
REMARK    8  A    between atoms: N_12  and  C_13
REMARK    9  A    between atoms: C_13  and  C_14
REMARK                            x       y       z     vdW  Elec       q    Type
REMARK                         _______ _______ _______ _____ _____    ______ ____
ROOT
ATOM      1  C   UNL     1       2.560   6.651  18.764  0.00  0.00    +0.000 A 
ATOM      2  C   UNL     1       2.247   7.530  19.788  0.00  0.00    +0.000 A 
ATOM      3  N   UNL     1       1.953   6.799  20.913  0.00  0.00    +0.000 N 
ATOM      4  C   UNL     1       2.090   5.465  20.645  0.00  0.00    +0.000 A 
ATOM      5  N   UNL     1       1.918   4.483  21.541  0.00  0.00    +0.000 NA
ATOM      6  C   UNL     1       2.157   3.275  21.017  0.00  0.00    +0.000 A 
ATOM      7  N   UNL     1       2.021   2.188  21.866  0.00  0.00    +0.000 N 
ATOM      8  N   UNL     1       2.486   2.998  19.746  0.00  0.00    +0.000 NA
ATOM      9  C   UNL     1       2.638   4.013  18.870  0.00  0.00    +0.000 A 
ATOM     10  N   UNL     1       3.005   3.695  17.569  0.00  0.00    +0.000 N 
ATOM     11  C   UNL     1       2.450   5.328  19.318  0.00  0.00    +0.000 A 
ATOM     12  H   UNL     1       1.699   7.168  21.819  0.00  0.00    +0.000 HD
ATOM     13  H   UNL     1       1.379   2.420  22.610  0.00  0.00    +0.000 HD
ATOM     14  H   UNL     1       1.813   1.367  21.314  0.00  0.00    +0.000 HD
ATOM     15  H   UNL     1       3.408   2.767  17.523  0.00  0.00    +0.000 HD
ATOM     16  H   UNL     1       3.530   4.435  17.102  0.00  0.00    +0.000 HD
ENDROOT
BRANCH   1  17
ATOM     17  C   UNL     1       3.000   6.989  17.359  0.00  0.00    +0.000 C 
BRANCH  17  18
ATOM     18  N   UNL     1       4.453   7.114  17.253  0.00  0.00    +0.000 N 
ATOM     19  H   UNL     1       4.694   8.002  16.812  0.00  0.00    +0.000 HD
BRANCH  18  24
ATOM     20  C   UNL     1       5.684   4.620  14.838  0.00  0.00    +0.000 A 
ATOM     21  C   UNL     1       6.798   4.094  15.469  0.00  0.00    +0.000 A 
ATOM     22  C   UNL     1       7.193   4.584  16.712  0.00  0.00    +0.000 A 
ATOM     23  C   UNL     1       6.464   5.590  17.376  0.00  0.00    +0.000 A 
ATOM     24  C   UNL     1       5.289   6.095  16.771  0.00  0.00    +0.000 A 
ATOM     25  C   UNL     1       4.946   5.612  15.480  0.00  0.00    +0.000 A 
BRANCH  20  26
ATOM     26  O   UNL     1       5.371   4.044  13.641  0.00  0.00    +0.000 OA
BRANCH  26  28
ATOM     27  C   UNL     1       6.062   2.660  11.845  0.00  0.00    +0.000 C 
ATOM     28  C   UNL     1       6.463   3.809  12.755  0.00  0.00    +0.000 C 
ENDBRANCH  26  28
ENDBRANCH  20  26
BRANCH  23  29
ATOM     29  O   UNL     1       6.849   6.074  18.612  0.00  0.00    +0.000 OA
BRANCH  29  30
ATOM     30  C   UNL     1       8.084   6.799  18.640  0.00  0.00    +0.000 C 
ATOM     31  C   UNL     1       7.977   8.095  17.861  0.00  0.00    +0.000 C 
ENDBRANCH  29  30
ENDBRANCH  23  29
ENDBRANCH  18  24
ENDBRANCH  17  18
ENDBRANCH   1  17
TORSDOF 7
ENDMDL
MODEL 3
REMARK VINA RESULT:      -7.3      4.191      6.391
REMARK  Name = 
REMARK  9 active torsions:
REMARK  status: ('A' for Active; 'I' for Inactive)
REMARK    1  A    between atoms: C_1  and  C_2
REMARK    2  A    between atoms: C_2  and  O_3
REMARK    3  A    between atoms: O_3  and  C_4
REMARK    4  A    between atoms: C_7  and  O_8
REMARK    5  A    between atoms: O_8  and  C_9
REMARK    6  A    between atoms: C_9  and  C_10
REMARK    7  A    between atoms: C_11  and  N_12
REMARK    8  A    between atoms: N_12  and  C_13
REMARK    9  A    between atoms: C_13  and  C_14
REMARK                            x       y       z     vdW  Elec       q    Type
REMARK                         _______ _______ _______ _____ _____    ______ ____
ROOT
ATOM      1  C   UNL     1       1.628   8.628  19.520  0.00  0.00    +0.000 A 
ATOM      2  C   UNL     1       1.796   7.800  20.617  0.00  0.00    +0.000 A 
ATOM      3  N   UNL     1       1.337   8.460  21.732  0.00  0.00    +0.000 N 
ATOM      4  C   UNL     1       0.858   9.690  21.376  0.00  0.00    +0.000 A 
ATOM      5  N   UNL     1       0.300  10.567  22.222  0.00  0.00    +0.000 NA
ATOM      6  C   UNL     1      -0.120  11.674  21.596  0.00  0.00    +0.000 A 
ATOM      7  N   UNL     1      -0.726  12.642  22.379  0.00  0.00    +0.000 N 
ATOM      8  N   UNL     1       0.011  11.960  20.291  0.00  0.00    +0.000 NA
ATOM      9  C   UNL     1       0.589  11.056  19.474  0.00  0.00    +0.000 A 
ATOM     10  N   UNL     1       0.684  11.372  18.125  0.00  0.00    +0.000 N 
ATOM     11  C   UNL     1       1.033   9.842  20.014  0.00  0.00    +0.000 A 
ATOM     12  H   UNL     1       1.322   8.102  22.677  0.00  0.00    +0.000 HD
ATOM     13  H   UNL     1      -0.397  12.561  23.330  0.00  0.00    +0.000 HD
ATOM     14  H   UNL     1      -0.620  13.540  21.927  0.00  0.00    +0.000 HD
ATOM     15  H   UNL     1       0.033  12.108  17.878  0.00  0.00    +0.000 HD
ATOM     16  H   UNL     1       0.686  10.554  17.514  0.00  0.00    +0.000 HD
ENDROOT
BRANCH   1  17
ATOM     17  C   UNL     1       1.935   8.318  18.073  0.00  0.00    +0.000 C 
BRANCH  17  18
ATOM     18  N   UNL     1       3.230   7.656  17.916  0.00  0.00    +0.000 N 
ATOM     19  H   UNL     1       3.824   8.200  17.290  0.00  0.00    +0.000 HD
BRANCH  18  24
ATOM     20  C   UNL     1       2.181   4.133  17.681  0.00  0.00    +0.000 A 
ATOM     21  C   UNL     1       3.300   3.506  17.162  0.00  0.00    +0.000 A 
ATOM     22  C   UNL     1       4.433   4.251  16.841  0.00  0.00    +0.000 A 
ATOM     23  C   UNL     1       4.491   5.641  17.064  0.00  0.00    +0.000 A 
ATOM     24  C   UNL     1       3.377   6.286  17.650  0.00  0.00    +0.000 A 
ATOM     25  C   UNL     1       2.220   5.506  17.914  0.00  0.00    +0.000 A 
BRANCH  20  26
ATOM     26  O   UNL     1       1.142   3.303  17.989  0.00  0.00    +0.000 OA
BRANCH  26  28
ATOM     27  C   UNL     1       1.099   3.002  20.340  0.00  0.00    +0.000 C 
ATOM     28  C   UNL     1       1.394   2.336  19.006  0.00  0.00    +0.000 C 
ENDBRANCH  26  28
ENDBRANCH  20  26
BRANCH  23  29
ATOM     29  O   UNL     1       5.615   6.382  16.753  0.00  0.00    +0.000 OA
BRANCH  29  30
ATOM     30  C   UNL     1       6.709   6.268  17.672  0.00  0.00    +0.000 C 
ATOM     31  C   UNL     1       7.608   7.486  17.608  0.00  0.00    +0.000 C 
ENDBRANCH  29  30
ENDBRANCH  23  29
ENDBRANCH  18  24
ENDBRANCH  17  18
ENDBRANCH   1  17
TORSDOF 7
ENDMDL
MODEL 4
REMARK VINA RESULT:      -7.2      4.279      6.385
REMARK  Name = 
REMARK  9 active torsions:
REMARK  status: ('A' for Active; 'I' for Inactive)
REMARK    1  A    between atoms: C_1  and  C_2
REMARK    2  A    between atoms: C_2  and  O_3
REMARK    3  A    between atoms: O_3  and  C_4
REMARK    4  A    between atoms: C_7  and  O_8
REMARK    5  A    between atoms: O_8  and  C_9
REMARK    6  A    between atoms: C_9  and  C_10
REMARK    7  A    between atoms: C_11  and  N_12
REMARK    8  A    between atoms: N_12  and  C_13
REMARK    9  A    between atoms: C_13  and  C_14
REMARK                            x       y       z     vdW  Elec       q    Type
REMARK                         _______ _______ _______ _____ _____    ______ ____
ROOT
ATOM      1  C   UNL     1       1.386   8.987  19.107  0.00  0.00    +0.000 A 
ATOM      2  C   UNL     1       1.013   9.601  17.922  0.00  0.00    +0.000 A 
ATOM      3  N   UNL     1       0.334  10.755  18.226  0.00  0.00    +0.000 N 
ATOM      4  C   UNL     1       0.276  10.913  19.583  0.00  0.00    +0.000 A 
ATOM      5  N   UNL     1      -0.281  11.959  20.209  0.00  0.00    +0.000 NA
ATOM      6  C   UNL     1      -0.157  11.875  21.540  0.00  0.00    +0.000 A 
ATOM      7  N   UNL     1      -0.689  12.916  22.283  0.00  0.00    +0.000 N 
ATOM      8  N   UNL     1       0.401  10.872  22.235  0.00  0.00    +0.000 NA
ATOM      9  C   UNL     1       0.941   9.830  21.570  0.00  0.00    +0.000 A 
ATOM     10  N   UNL     1       1.535   8.823  22.319  0.00  0.00    +0.000 N 
ATOM     11  C   UNL     1       0.904   9.830  20.169  0.00  0.00    +0.000 A 
ATOM     12  H   UNL     1      -0.051  11.417  17.566  0.00  0.00    +0.000 HD
ATOM     13  H   UNL     1      -1.432  13.358  21.761  0.00  0.00    +0.000 HD
ATOM     14  H   UNL     1      -0.912  12.575  23.208  0.00  0.00    +0.000 HD
ATOM     15  H   UNL     1       1.757   9.148  23.252  0.00  0.00    +0.000 HD
ATOM     16  H   UNL     1       2.284   8.337  21.824  0.00  0.00    +0.000 HD
ENDROOT
BRANCH   1  17
ATOM     17  C   UNL     1       2.197   7.724  19.277  0.00  0.00    +0.000 C 
BRANCH  17  18
ATOM     18  N   UNL     1       2.918   7.365  18.056  0.00  0.00    +0.000 N 
ATOM     19  H   UNL     1       2.423   7.729  17.241  0.00  0.00    +0.000 HD
BRANCH  18  24
ATOM     20  C   UNL     1       2.718   3.718  17.576  0.00  0.00    +0.000 A 
ATOM     21  C   UNL     1       4.014   3.375  17.235  0.00  0.00    +0.000 A 
ATOM     22  C   UNL     1       4.991   4.361  17.120  0.00  0.00    +0.000 A 
ATOM     23  C   UNL     1       4.708   5.717  17.379  0.00  0.00    +0.000 A 
ATOM     24  C   UNL     1       3.402   6.075  17.788  0.00  0.00    +0.000 A 
ATOM     25  C   UNL     1       2.418   5.053  17.842  0.00  0.00    +0.000 A 
BRANCH  20  26
ATOM     26  O   UNL     1       1.851   2.670  17.692  0.00  0.00    +0.000 OA
BRANCH  26  28
ATOM     27  C   UNL     1       1.711   2.338  20.034  0.00  0.00    +0.000 C 
ATOM     28  C   UNL     1       0.939   2.730  18.786  0.00  0.00    +0.000 C 
ENDBRANCH  26  28
ENDBRANCH  20  26
BRANCH  23  29
ATOM     29  O   UNL     1       5.676   6.697  17.273  0.00  0.00    +0.000 OA
BRANCH  29  30
ATOM     30  C   UNL     1       7.029   6.230  17.204  0.00  0.00    +0.000 C 
ATOM     31  C   UNL     1       7.759   6.470  18.510  0.00  0.00    +0.000 C 
ENDBRANCH  29  30
ENDBRANCH  23  29
ENDBRANCH  18  24
ENDBRANCH  17  18
ENDBRANCH   1  17
TORSDOF 7
ENDMDL
MODEL 5
REMARK VINA RESULT:      -7.2      3.785      6.131
REMARK  Name = 
REMARK  9 active torsions:
REMARK  status: ('A' for Active; 'I' for Inactive)
REMARK    1  A    between atoms: C_1  and  C_2
REMARK    2  A    between atoms: C_2  and  O_3
REMARK    3  A    between atoms: O_3  and  C_4
REMARK    4  A    between atoms: C_7  and  O_8
REMARK    5  A    between atoms: O_8  and  C_9
REMARK    6  A    between atoms: C_9  and  C_10
REMARK    7  A    between atoms: C_11  and  N_12
REMARK    8  A    between atoms: N_12  and  C_13
REMARK    9  A    between atoms: C_13  and  C_14
REMARK                            x       y       z     vdW  Elec       q    Type
REMARK                         _______ _______ _______ _____ _____    ______ ____
ROOT
ATOM      1  C   UNL     1       1.557   9.148  18.578  0.00  0.00    +0.000 A 
ATOM      2  C   UNL     1       0.980  10.228  17.930  0.00  0.00    +0.000 A 
ATOM      3  N   UNL     1       0.112  10.842  18.799  0.00  0.00    +0.000 N 
ATOM      4  C   UNL     1       0.130  10.195  20.004  0.00  0.00    +0.000 A 
ATOM      5  N   UNL     1      -0.573  10.567  21.082  0.00  0.00    +0.000 NA
ATOM      6  C   UNL     1      -0.332   9.779  22.137  0.00  0.00    +0.000 A 
ATOM      7  N   UNL     1      -1.000  10.087  23.312  0.00  0.00    +0.000 N 
ATOM      8  N   UNL     1       0.465   8.700  22.172  0.00  0.00    +0.000 NA
ATOM      9  C   UNL     1       1.146   8.350  21.062  0.00  0.00    +0.000 A 
ATOM     10  N   UNL     1       1.984   7.244  21.139  0.00  0.00    +0.000 N 
ATOM     11  C   UNL     1       1.002   9.128  19.905  0.00  0.00    +0.000 A 
ATOM     12  H   UNL     1      -0.445  11.664  18.610  0.00  0.00    +0.000 HD
ATOM     13  H   UNL     1      -1.853  10.581  23.095  0.00  0.00    +0.000 HD
ATOM     14  H   UNL     1      -1.079   9.248  23.871  0.00  0.00    +0.000 HD
ATOM     15  H   UNL     1       2.208   7.026  22.102  0.00  0.00    +0.000 HD
ATOM     16  H   UNL     1       2.773   7.286  20.494  0.00  0.00    +0.000 HD
ENDROOT
BRANCH   1  17
ATOM     17  C   UNL     1       2.612   8.207  18.045  0.00  0.00    +0.000 C 
BRANCH  17  18
ATOM     18  N   UNL     1       2.144   6.821  18.009  0.00  0.00    +0.000 N 
ATOM     19  H   UNL     1       1.584   6.623  18.839  0.00  0.00    +0.000 HD
BRANCH  18  24
ATOM     20  C   UNL     1       5.316   5.082  17.315  0.00  0.00    +0.000 A 
ATOM     21  C   UNL     1       4.929   3.759  17.194  0.00  0.00    +0.000 A 
ATOM     22  C   UNL     1       3.595   3.402  17.377  0.00  0.00    +0.000 A 
ATOM     23  C   UNL     1       2.603   4.364  17.650  0.00  0.00    +0.000 A 
ATOM     24  C   UNL     1       2.973   5.727  17.716  0.00  0.00    +0.000 A 
ATOM     25  C   UNL     1       4.349   6.050  17.579  0.00  0.00    +0.000 A 
BRANCH  20  26
ATOM     26  O   UNL     1       6.640   5.322  17.085  0.00  0.00    +0.000 OA
BRANCH  26  28
ATOM     27  C   UNL     1       7.791   7.226  17.901  0.00  0.00    +0.000 C 
ATOM     28  C   UNL     1       7.394   5.790  18.201  0.00  0.00    +0.000 C 
ENDBRANCH  26  28
ENDBRANCH  20  26
BRANCH  23  29
ATOM     29  O   UNL     1       1.277   4.014  17.825  0.00  0.00    +0.000 OA
BRANCH  29  30
ATOM     30  C   UNL     1       1.016   3.062  18.863  0.00  0.00    +0.000 C 
ATOM     31  C   UNL     1       0.904   3.740  20.214  0.00  0.00    +0.000 C 
ENDBRANCH  29  30
ENDBRANCH  23  29
ENDBRANCH  18  24
ENDBRANCH  17  18
ENDBRANCH   1  17
TORSDOF 7
ENDMDL
MODEL 6
REMARK VINA RESULT:      -7.2      3.997      6.530
REMARK  Name = 
REMARK  9 active torsions:
REMARK  status: ('A' for Active; 'I' for Inactive)
REMARK    1  A    between atoms: C_1  and  C_2
REMARK    2  A    between atoms: C_2  and  O_3
REMARK    3  A    between atoms: O_3  and  C_4
REMARK    4  A    between atoms: C_7  and  O_8
REMARK    5  A    between atoms: O_8  and  C_9
REMARK    6  A    between atoms: C_9  and  C_10
REMARK    7  A    between atoms: C_11  and  N_12
REMARK    8  A    between atoms: N_12  and  C_13
REMARK    9  A    between atoms: C_13  and  C_14
REMARK                            x       y       z     vdW  Elec       q    Type
REMARK                         _______ _______ _______ _____ _____    ______ ____
ROOT
ATOM      1  C   UNL     1       1.712   8.606  19.060  0.00  0.00    +0.000 A 
ATOM      2  C   UNL     1       1.473   9.123  17.798  0.00  0.00    +0.000 A 
ATOM      3  N   UNL     1       0.797  10.312  17.938  0.00  0.00    +0.000 N 
ATOM      4  C   UNL     1       0.613  10.585  19.265  0.00  0.00    +0.000 A 
ATOM      5  N   UNL     1       0.025  11.690  19.744  0.00  0.00    +0.000 NA
ATOM      6  C   UNL     1       0.017  11.716  21.082  0.00  0.00    +0.000 A 
ATOM      7  N   UNL     1      -0.557  12.826  21.681  0.00  0.00    +0.000 N 
ATOM      8  N   UNL     1       0.478  10.766  21.910  0.00  0.00    +0.000 NA
ATOM      9  C   UNL     1       1.052   9.662  21.389  0.00  0.00    +0.000 A 
ATOM     10  N   UNL     1       1.544   8.711  22.274  0.00  0.00    +0.000 N 
ATOM     11  C   UNL     1       1.152   9.544  19.997  0.00  0.00    +0.000 A 
ATOM     12  H   UNL     1       0.496  10.922  17.190  0.00  0.00    +0.000 HD
ATOM     13  H   UNL     1      -1.234  13.236  21.053  0.00  0.00    +0.000 HD
ATOM     14  H   UNL     1      -0.878  12.569  22.604  0.00  0.00    +0.000 HD
ATOM     15  H   UNL     1       1.682   9.109  23.195  0.00  0.00    +0.000 HD
ATOM     16  H   UNL     1       2.324   8.171  21.898  0.00  0.00    +0.000 HD
ENDROOT
BRANCH   1  17
ATOM     17  C   UNL     1       2.469   7.347  19.414  0.00  0.00    +0.000 C 
BRANCH  17  18
ATOM     18  N   UNL     1       2.144   6.240  18.514  0.00  0.00    +0.000 N 
ATOM     19  H   UNL     1       1.516   5.586  18.982  0.00  0.00    +0.000 HD
BRANCH  18  24
ATOM     20  C   UNL     1       5.378   5.691  16.838  0.00  0.00    +0.000 A 
ATOM     21  C   UNL     1       5.268   4.397  16.361  0.00  0.00    +0.000 A 
ATOM     22  C   UNL     1       4.118   3.652  16.616  0.00  0.00    +0.000 A 
ATOM     23  C   UNL     1       3.029   4.195  17.326  0.00  0.00    +0.000 A 
ATOM     24  C   UNL     1       3.102   5.537  17.767  0.00  0.00    +0.000 A 
ATOM     25  C   UNL     1       4.309   6.247  17.538  0.00  0.00    +0.000 A 
BRANCH  20  26
ATOM     26  O   UNL     1       6.533   6.336  16.503  0.00  0.00    +0.000 OA
BRANCH  26  28
ATOM     27  C   UNL     1       7.805   6.476  18.498  0.00  0.00    +0.000 C 
ATOM     28  C   UNL     1       7.028   7.270  17.461  0.00  0.00    +0.000 C 
ENDBRANCH  26  28
ENDBRANCH  20  26
BRANCH  23  29
ATOM     29  O   UNL     1       1.884   3.462  17.574  0.00  0.00    +0.000 OA
BRANCH  29  30
ATOM     30  C   UNL     1       1.935   2.596  18.714  0.00  0.00    +0.000 C 
ATOM     31  C   UNL     1       0.943   3.027  19.776  0.00  0.00    +0.000 C 
ENDBRANCH  29  30
ENDBRANCH  23  29
ENDBRANCH  18  24
ENDBRANCH  17  18
ENDBRANCH   1  17
TORSDOF 7
ENDMDL
MODEL 7
REMARK VINA RESULT:      -7.2      4.206      6.790
REMARK  Name = 
REMARK  9 active torsions:
REMARK  status: ('A' for Active; 'I' for Inactive)
REMARK    1  A    between atoms: C_1  and  C_2
REMARK    2  A    between atoms: C_2  and  O_3
REMARK    3  A    between atoms: O_3  and  C_4
REMARK    4  A    between atoms: C_7  and  O_8
REMARK    5  A    between atoms: O_8  and  C_9
REMARK    6  A    between atoms: C_9  and  C_10
REMARK    7  A    between atoms: C_11  and  N_12
REMARK    8  A    between atoms: N_12  and  C_13
REMARK    9  A    between atoms: C_13  and  C_14
REMARK                            x       y       z     vdW  Elec       q    Type
REMARK                         _______ _______ _______ _____ _____    ______ ____
ROOT
ATOM      1  C   UNL     1       1.550   8.815  19.081  0.00  0.00    +0.000 A 
ATOM      2  C   UNL     1       1.241   9.362  17.847  0.00  0.00    +0.000 A 
ATOM      3  N   UNL     1       0.556  10.535  18.052  0.00  0.00    +0.000 N 
ATOM      4  C   UNL     1       0.433  10.770  19.393  0.00  0.00    +0.000 A 
ATOM      5  N   UNL     1      -0.146  11.853  19.930  0.00  0.00    +0.000 NA
ATOM      6  C   UNL     1      -0.088  11.844  21.267  0.00  0.00    +0.000 A 
ATOM      7  N   UNL     1      -0.648  12.929  21.923  0.00  0.00    +0.000 N 
ATOM      8  N   UNL     1       0.427  10.880  22.046  0.00  0.00    +0.000 NA
ATOM      9  C   UNL     1       0.991   9.799  21.468  0.00  0.00    +0.000 A 
ATOM     10  N   UNL     1       1.539   8.833  22.301  0.00  0.00    +0.000 N 
ATOM     11  C   UNL     1       1.023   9.719  20.069  0.00  0.00    +0.000 A 
ATOM     12  H   UNL     1       0.210  11.160  17.337  0.00  0.00    +0.000 HD
ATOM     13  H   UNL     1      -1.360  13.344  21.341  0.00  0.00    +0.000 HD
ATOM     14  H   UNL     1      -0.919  12.642  22.854  0.00  0.00    +0.000 HD
ATOM     15  H   UNL     1       1.717   9.209  23.224  0.00  0.00    +0.000 HD
ATOM     16  H   UNL     1       2.308   8.315  21.873  0.00  0.00    +0.000 HD
ENDROOT
BRANCH   1  17
ATOM     17  C   UNL     1       2.341   7.559  19.363  0.00  0.00    +0.000 C 
BRANCH  17  18
ATOM     18  N   UNL     1       2.862   6.952  18.139  0.00  0.00    +0.000 N 
ATOM     19  H   UNL     1       2.348   7.305  17.331  0.00  0.00    +0.000 HD
BRANCH  18  24
ATOM     20  C   UNL     1       2.268   3.351  18.643  0.00  0.00    +0.000 A 
ATOM     21  C   UNL     1       3.249   2.760  17.867  0.00  0.00    +0.000 A 
ATOM     22  C   UNL     1       4.120   3.549  17.119  0.00  0.00    +0.000 A 
ATOM     23  C   UNL     1       4.059   4.956  17.156  0.00  0.00    +0.000 A 
ATOM     24  C   UNL     1       3.101   5.576  17.993  0.00  0.00    +0.000 A 
ATOM     25  C   UNL     1       2.195   4.742  18.698  0.00  0.00    +0.000 A 
BRANCH  20  26
ATOM     26  O   UNL     1       1.493   2.484  19.357  0.00  0.00    +0.000 OA
BRANCH  26  28
ATOM     27  C   UNL     1       2.299   2.686  21.577  0.00  0.00    +0.000 C 
ATOM     28  C   UNL     1       1.109   2.917  20.661  0.00  0.00    +0.000 C 
ENDBRANCH  26  28
ENDBRANCH  20  26
BRANCH  23  29
ATOM     29  O   UNL     1       4.926   5.743  16.422  0.00  0.00    +0.000 OA
BRANCH  29  30
ATOM     30  C   UNL     1       5.465   5.139  15.240  0.00  0.00    +0.000 C 
ATOM     31  C   UNL     1       6.965   4.955  15.353  0.00  0.00    +0.000 C 
ENDBRANCH  29  30
ENDBRANCH  23  29
ENDBRANCH  18  24
ENDBRANCH  17  18
ENDBRANCH   1  17
TORSDOF 7
ENDMDL
MODEL 8
REMARK VINA RESULT:      -7.1      1.364      2.561
REMARK  Name = 
REMARK  9 active torsions:
REMARK  status: ('A' for Active; 'I' for Inactive)
REMARK    1  A    between atoms: C_1  and  C_2
REMARK    2  A    between atoms: C_2  and  O_3
REMARK    3  A    between atoms: O_3  and  C_4
REMARK    4  A    between atoms: C_7  and  O_8
REMARK    5  A    between atoms: O_8  and  C_9
REMARK    6  A    between atoms: C_9  and  C_10
REMARK    7  A    between atoms: C_11  and  N_12
REMARK    8  A    between atoms: N_12  and  C_13
REMARK    9  A    between atoms: C_13  and  C_14
REMARK                            x       y       z     vdW  Elec       q    Type
REMARK                         _______ _______ _______ _____ _____    ______ ____
ROOT
ATOM      1  C   UNL     1       2.750   3.745  18.398  0.00  0.00    +0.000 A 
ATOM      2  C   UNL     1       2.171   2.827  19.259  0.00  0.00    +0.000 A 
ATOM      3  N   UNL     1       1.649   3.508  20.332  0.00  0.00    +0.000 N 
ATOM      4  C   UNL     1       1.859   4.850  20.174  0.00  0.00    +0.000 A 
ATOM      5  N   UNL     1       1.436   5.796  21.024  0.00  0.00    +0.000 NA
ATOM      6  C   UNL     1       1.743   7.028  20.600  0.00  0.00    +0.000 A 
ATOM      7  N   UNL     1       1.337   8.083  21.401  0.00  0.00    +0.000 N 
ATOM      8  N   UNL     1       2.433   7.352  19.496  0.00  0.00    +0.000 NA
ATOM      9  C   UNL     1       2.854   6.370  18.671  0.00  0.00    +0.000 A 
ATOM     10  N   UNL     1       3.541   6.741  17.523  0.00  0.00    +0.000 N 
ATOM     11  C   UNL     1       2.554   5.040  18.994  0.00  0.00    +0.000 A 
ATOM     12  H   UNL     1       1.156   3.104  21.117  0.00  0.00    +0.000 HD
ATOM     13  H   UNL     1       1.244   7.766  22.355  0.00  0.00    +0.000 HD
ATOM     14  H   UNL     1       1.945   8.873  21.233  0.00  0.00    +0.000 HD
ATOM     15  H   UNL     1       3.371   7.714  17.297  0.00  0.00    +0.000 HD
ATOM     16  H   UNL     1       3.435   6.078  16.754  0.00  0.00    +0.000 HD
ENDROOT
BRANCH   1  17
ATOM     17  C   UNL     1       3.402   3.475  17.062  0.00  0.00    +0.000 C 
BRANCH  17  18
ATOM     18  N   UNL     1       4.861   3.448  17.159  0.00  0.00    +0.000 N 
ATOM     19  H   UNL     1       5.150   3.673  18.111  0.00  0.00    +0.000 HD
BRANCH  18  24
ATOM     20  C   UNL     1       6.477   4.001  13.895  0.00  0.00    +0.000 A 
ATOM     21  C   UNL     1       7.260   5.121  14.119  0.00  0.00    +0.000 A 
ATOM     22  C   UNL     1       7.243   5.749  15.362  0.00  0.00    +0.000 A 
ATOM     23  C   UNL     1       6.471   5.252  16.431  0.00  0.00    +0.000 A 
ATOM     24  C   UNL     1       5.714   4.073  16.236  0.00  0.00    +0.000 A 
ATOM     25  C   UNL     1       5.711   3.491  14.941  0.00  0.00    +0.000 A 
BRANCH  20  26
ATOM     26  O   UNL     1       6.595   3.450  12.652  0.00  0.00    +0.000 OA
BRANCH  26  28
ATOM     27  C   UNL     1       5.567   1.761  11.346  0.00  0.00    +0.000 C 
ATOM     28  C   UNL     1       5.373   3.121  11.996  0.00  0.00    +0.000 C 
ENDBRANCH  26  28
ENDBRANCH  20  26
BRANCH  23  29
ATOM     29  O   UNL     1       6.458   5.868  17.668  0.00  0.00    +0.000 OA
BRANCH  29  30
ATOM     30  C   UNL     1       7.707   6.421  18.101  0.00  0.00    +0.000 C 
ATOM     31  C   UNL     1       7.754   7.918  17.868  0.00  0.00    +0.000 C 
ENDBRANCH  29  30
ENDBRANCH  23  29
ENDBRANCH  18  24
ENDBRANCH  17  18
ENDBRANCH   1  17
TORSDOF 7
ENDMDL
MODEL 9
REMARK VINA RESULT:      -7.1      4.123      6.231
REMARK  Name = 
REMARK  9 active torsions:
REMARK  status: ('A' for Active; 'I' for Inactive)
REMARK    1  A    between atoms: C_1  and  C_2
REMARK    2  A    between atoms: C_2  and  O_3
REMARK    3  A    between atoms: O_3  and  C_4
REMARK    4  A    between atoms: C_7  and  O_8
REMARK    5  A    between atoms: O_8  and  C_9
REMARK    6  A    between atoms: C_9  and  C_10
REMARK    7  A    between atoms: C_11  and  N_12
REMARK    8  A    between atoms: N_12  and  C_13
REMARK    9  A    between atoms: C_13  and  C_14
REMARK                            x       y       z     vdW  Elec       q    Type
REMARK                         _______ _______ _______ _____ _____    ______ ____
ROOT
ATOM      1  C   UNL     1       1.576   8.762  19.145  0.00  0.00    +0.000 A 
ATOM      2  C   UNL     1       1.376   9.289  17.880  0.00  0.00    +0.000 A 
ATOM      3  N   UNL     1       0.793  10.526  18.012  0.00  0.00    +0.000 N 
ATOM      4  C   UNL     1       0.631  10.820  19.338  0.00  0.00    +0.000 A 
ATOM      5  N   UNL     1       0.129  11.970  19.810  0.00  0.00    +0.000 NA
ATOM      6  C   UNL     1       0.124  12.006  21.148  0.00  0.00    +0.000 A 
ATOM      7  N   UNL     1      -0.364  13.159  21.740  0.00  0.00    +0.000 N 
ATOM      8  N   UNL     1       0.512  11.028  21.982  0.00  0.00    +0.000 NA
ATOM      9  C   UNL     1       1.000   9.880  21.468  0.00  0.00    +0.000 A 
ATOM     10  N   UNL     1       1.418   8.900  22.359  0.00  0.00    +0.000 N 
ATOM     11  C   UNL     1       1.089   9.746  20.076  0.00  0.00    +0.000 A 
ATOM     12  H   UNL     1       0.539  11.153  17.261  0.00  0.00    +0.000 HD
ATOM     13  H   UNL     1      -1.007  13.616  21.110  0.00  0.00    +0.000 HD
ATOM     14  H   UNL     1      -0.702  12.933  22.665  0.00  0.00    +0.000 HD
ATOM     15  H   UNL     1       1.587   9.292  23.277  0.00  0.00    +0.000 HD
ATOM     16  H   UNL     1       2.155   8.300  21.986  0.00  0.00    +0.000 HD
ENDROOT
BRANCH   1  17
ATOM     17  C   UNL     1       2.235   7.452  19.507  0.00  0.00    +0.000 C 
BRANCH  17  18
ATOM     18  N   UNL     1       2.495   6.624  18.328  0.00  0.00    +0.000 N 
ATOM     19  H   UNL     1       1.668   6.070  18.105  0.00  0.00    +0.000 HD
BRANCH  18  24
ATOM     20  C   UNL     1       5.660   5.586  16.757  0.00  0.00    +0.000 A 
ATOM     21  C   UNL     1       6.090   4.552  17.570  0.00  0.00    +0.000 A 
ATOM     22  C   UNL     1       5.349   4.192  18.694  0.00  0.00    +0.000 A 
ATOM     23  C   UNL     1       4.136   4.833  19.016  0.00  0.00    +0.000 A 
ATOM     24  C   UNL     1       3.653   5.850  18.160  0.00  0.00    +0.000 A 
ATOM     25  C   UNL     1       4.461   6.229  17.055  0.00  0.00    +0.000 A 
BRANCH  20  26
ATOM     26  O   UNL     1       6.446   5.832  15.668  0.00  0.00    +0.000 OA
BRANCH  26  28
ATOM     27  C   UNL     1       5.944   4.170  14.054  0.00  0.00    +0.000 C 
ATOM     28  C   UNL     1       6.996   4.685  15.022  0.00  0.00    +0.000 C 
ENDBRANCH  26  28
ENDBRANCH  20  26
BRANCH  23  29
ATOM     29  O   UNL     1       3.395   4.474  20.126  0.00  0.00    +0.000 OA
BRANCH  29  30
ATOM     30  C   UNL     1       2.543   3.333  19.962  0.00  0.00    +0.000 C 
ATOM     31  C   UNL     1       1.081   3.727  20.017  0.00  0.00    +0.000 C 
ENDBRANCH  29  30
ENDBRANCH  23  29
ENDBRANCH  18  24
ENDBRANCH  17  18
ENDBRANCH   1  17
TORSDOF 7
ENDMDL
