MODEL 1
REMARK VINA RESULT:      -8.0      0.000      0.000
REMARK  Name = 
REMARK  4 active torsions:
REMARK  status: ('A' for Active; 'I' for Inactive)
REMARK    1  A    between atoms: C_1  and  N_2
REMARK    2  A    between atoms: N_13  and  C_14
REMARK    3  A    between atoms: C_17  and  O_18
REMARK    4  A    between atoms: N_21  and  C_22
REMARK                            x       y       z     vdW  Elec       q    Type
REMARK                         _______ _______ _______ _____ _____    ______ ____
ROOT
ATOM      1  C   UNL     1       0.667  12.963  19.912  0.00  0.00    +0.000 C 
ATOM      2  N   UNL     1       0.810  11.553  20.211  0.00  0.00    +0.000 N 
ATOM      3  C   UNL     1       1.402  10.731  19.251  0.00  0.00    +0.000 A 
ATOM      4  O   UNL     1       1.786  11.110  18.152  0.00  0.00    +0.000 OA
ATOM      5  C   UNL     1       1.517   9.376  19.681  0.00  0.00    +0.000 A 
ATOM      6  C   UNL     1       1.060   8.936  20.882  0.00  0.00    +0.000 A 
ATOM      7  N   UNL     1       1.328   7.613  21.054  0.00  0.00    +0.000 NA
ATOM      8  C   UNL     1       1.890   7.196  19.938  0.00  0.00    +0.000 A 
ATOM      9  N   UNL     1       2.044   8.271  19.079  0.00  0.00    +0.000 N 
ATOM     10  C   UNL     1       2.672   8.194  17.779  0.00  0.00    +0.000 C 
ATOM     11  C   UNL     1       3.490   6.921  17.630  0.00  0.00    +0.000 C 
ATOM     12  C   UNL     1       2.686   5.740  18.155  0.00  0.00    +0.000 C 
ATOM     13  N   UNL     1       2.336   5.958  19.565  0.00  0.00    +0.000 N 
ATOM     14  N   UNL     1       0.419   9.777  21.766  0.00  0.00    +0.000 N 
ATOM     15  C   UNL     1      -0.129   9.321  23.029  0.00  0.00    +0.000 C 
ATOM     16  C   UNL     1       0.314  11.134  21.458  0.00  0.00    +0.000 A 
ATOM     17  O   UNL     1      -0.197  11.938  22.245  0.00  0.00    +0.000 OA
ENDROOT
BRANCH  13  18
ATOM     18  C   UNL     1       2.566   4.822  20.485  0.00  0.00    +0.000 C 
ATOM     19  C   UNL     1       3.723   3.891  20.124  0.00  0.00    +0.000 C 
ATOM     20  C   UNL     1       3.421   2.882  19.028  0.00  0.00    +0.000 C 
ATOM     21  C   UNL     1       2.015   2.268  19.087  0.00  0.00    +0.000 C 
ATOM     22  C   UNL     1       0.876   3.134  19.639  0.00  0.00    +0.000 C 
ATOM     23  C   UNL     1       1.292   4.033  20.785  0.00  0.00    +0.000 C 
BRANCH  21  24
ATOM     24  O   UNL     1       1.639   1.872  17.769  0.00  0.00    +0.000 OA
ATOM     25  H   UNL     1       1.428   2.719  17.327  0.00  0.00    +0.000 HD
ENDBRANCH  21  24
ENDBRANCH  13  18
TORSDOF 2
ENDMDL
MODEL 2
REMARK VINA RESULT:      -7.0      2.254      3.738
REMARK  Name = 
REMARK  4 active torsions:
REMARK  status: ('A' for Active; 'I' for Inactive)
REMARK    1  A    between atoms: C_1  and  N_2
REMARK    2  A    between atoms: N_13  and  C_14
REMARK    3  A    between atoms: C_17  and  O_18
REMARK    4  A    between atoms: N_21  and  C_22
REMARK                            x       y       z     vdW  Elec       q    Type
REMARK                         _______ _______ _______ _____ _____    ______ ____
ROOT
ATOM      1  C   UNL     1      -0.735  11.133  21.732  0.00  0.00    +0.000 C 
ATOM      2  N   UNL     1       0.167  10.450  20.827  0.00  0.00    +0.000 N 
ATOM      3  C   UNL     1       0.485   9.117  21.092  0.00  0.00    +0.000 A 
ATOM      4  O   UNL     1       0.079   8.485  22.059  0.00  0.00    +0.000 OA
ATOM      5  C   UNL     1       1.348   8.551  20.110  0.00  0.00    +0.000 A 
ATOM      6  C   UNL     1       1.836   9.254  19.054  0.00  0.00    +0.000 A 
ATOM      7  N   UNL     1       2.605   8.467  18.253  0.00  0.00    +0.000 NA
ATOM      8  C   UNL     1       2.665   7.286  18.834  0.00  0.00    +0.000 A 
ATOM      9  N   UNL     1       1.876   7.300  19.972  0.00  0.00    +0.000 N 
ATOM     10  C   UNL     1       1.664   6.158  20.834  0.00  0.00    +0.000 C 
ATOM     11  C   UNL     1       2.065   4.861  20.148  0.00  0.00    +0.000 C 
ATOM     12  C   UNL     1       3.408   5.051  19.456  0.00  0.00    +0.000 C 
ATOM     13  N   UNL     1       3.317   6.139  18.473  0.00  0.00    +0.000 N 
ATOM     14  N   UNL     1       1.545  10.589  18.877  0.00  0.00    +0.000 N 
ATOM     15  C   UNL     1       2.098  11.377  17.791  0.00  0.00    +0.000 C 
ATOM     16  C   UNL     1       0.658  11.214  19.754  0.00  0.00    +0.000 A 
ATOM     17  O   UNL     1       0.320  12.392  19.601  0.00  0.00    +0.000 OA
ENDROOT
BRANCH  13  18
ATOM     18  C   UNL     1       3.886   5.867  17.134  0.00  0.00    +0.000 C 
ATOM     19  C   UNL     1       4.126   4.398  16.793  0.00  0.00    +0.000 C 
ATOM     20  C   UNL     1       5.383   3.793  17.399  0.00  0.00    +0.000 C 
ATOM     21  C   UNL     1       6.604   4.722  17.410  0.00  0.00    +0.000 C 
ATOM     22  C   UNL     1       6.359   6.229  17.551  0.00  0.00    +0.000 C 
ATOM     23  C   UNL     1       5.119   6.717  16.830  0.00  0.00    +0.000 C 
BRANCH  21  24
ATOM     24  O   UNL     1       7.458   4.334  18.485  0.00  0.00    +0.000 OA
ATOM     25  H   UNL     1       6.914   3.697  18.990  0.00  0.00    +0.000 HD
ENDBRANCH  21  24
ENDBRANCH  13  18
TORSDOF 2
ENDMDL
MODEL 3
REMARK VINA RESULT:      -6.1      2.095      7.345
REMARK  Name = 
REMARK  4 active torsions:
REMARK  status: ('A' for Active; 'I' for Inactive)
REMARK    1  A    between atoms: C_1  and  N_2
REMARK    2  A    between atoms: N_13  and  C_14
REMARK    3  A    between atoms: C_17  and  O_18
REMARK    4  A    between atoms: N_21  and  C_22
REMARK                            x       y       z     vdW  Elec       q    Type
REMARK                         _______ _______ _______ _____ _____    ______ ____
ROOT
ATOM      1  C   UNL     1       4.502   3.623  19.558  0.00  0.00    +0.000 C 
ATOM      2  N   UNL     1       3.969   4.907  19.152  0.00  0.00    +0.000 N 
ATOM      3  C   UNL     1       2.996   5.503  19.957  0.00  0.00    +0.000 A 
ATOM      4  O   UNL     1       2.533   5.002  20.974  0.00  0.00    +0.000 OA
ATOM      5  C   UNL     1       2.584   6.777  19.469  0.00  0.00    +0.000 A 
ATOM      6  C   UNL     1       3.062   7.326  18.321  0.00  0.00    +0.000 A 
ATOM      7  N   UNL     1       2.530   8.559  18.107  0.00  0.00    +0.000 NA
ATOM      8  C   UNL     1       1.661   8.767  19.077  0.00  0.00    +0.000 A 
ATOM      9  N   UNL     1       1.692   7.692  19.950  0.00  0.00    +0.000 N 
ATOM     10  C   UNL     1       0.905   7.599  21.159  0.00  0.00    +0.000 C 
ATOM     11  C   UNL     1       0.357   8.956  21.572  0.00  0.00    +0.000 C 
ATOM     12  C   UNL     1      -0.211   9.664  20.349  0.00  0.00    +0.000 C 
ATOM     13  N   UNL     1       0.835   9.826  19.331  0.00  0.00    +0.000 N 
ATOM     14  N   UNL     1       3.972   6.662  17.527  0.00  0.00    +0.000 N 
ATOM     15  C   UNL     1       4.456   7.199  16.269  0.00  0.00    +0.000 C 
ATOM     16  C   UNL     1       4.480   5.435  17.954  0.00  0.00    +0.000 A 
ATOM     17  O   UNL     1       5.343   4.832  17.307  0.00  0.00    +0.000 OA
ENDROOT
BRANCH  13  18
ATOM     18  C   UNL     1       0.951  11.165  18.712  0.00  0.00    +0.000 C 
ATOM     19  C   UNL     1       2.109  12.032  19.201  0.00  0.00    +0.000 C 
ATOM     20  C   UNL     1       1.880  12.721  20.536  0.00  0.00    +0.000 C 
ATOM     21  C   UNL     1       0.459  13.261  20.748  0.00  0.00    +0.000 C 
ATOM     22  C   UNL     1      -0.701  12.505  20.090  0.00  0.00    +0.000 C 
ATOM     23  C   UNL     1      -0.367  11.940  18.724  0.00  0.00    +0.000 C 
BRANCH  21  24
ATOM     24  O   UNL     1       0.193  13.298  22.149  0.00  0.00    +0.000 OA
ATOM     25  H   UNL     1      -0.253  12.444  22.320  0.00  0.00    +0.000 HD
ENDBRANCH  21  24
ENDBRANCH  13  18
TORSDOF 2
ENDMDL
MODEL 4
REMARK VINA RESULT:      -6.0      5.031      9.313
REMARK  Name = 
REMARK  4 active torsions:
REMARK  status: ('A' for Active; 'I' for Inactive)
REMARK    1  A    between atoms: C_1  and  N_2
REMARK    2  A    between atoms: N_13  and  C_14
REMARK    3  A    between atoms: C_17  and  O_18
REMARK    4  A    between atoms: N_21  and  C_22
REMARK                            x       y       z     vdW  Elec       q    Type
REMARK                         _______ _______ _______ _____ _____    ______ ____
ROOT
ATOM      1  C   UNL     1       0.767   9.914  18.155  0.00  0.00    +0.000 C 
ATOM      2  N   UNL     1      -0.428  10.547  18.674  0.00  0.00    +0.000 N 
ATOM      3  C   UNL     1      -0.376  11.107  19.952  0.00  0.00    +0.000 A 
ATOM      4  O   UNL     1       0.604  11.076  20.686  0.00  0.00    +0.000 OA
ATOM      5  C   UNL     1      -1.601  11.730  20.330  0.00  0.00    +0.000 A 
ATOM      6  C   UNL     1      -2.707  11.737  19.540  0.00  0.00    +0.000 A 
ATOM      7  N   UNL     1      -3.723  12.428  20.124  0.00  0.00    +0.000 NA
ATOM      8  C   UNL     1      -3.290  12.799  21.312  0.00  0.00    +0.000 A 
ATOM      9  N   UNL     1      -1.971  12.404  21.457  0.00  0.00    +0.000 N 
ATOM     10  C   UNL     1      -1.156  12.686  22.618  0.00  0.00    +0.000 C 
ATOM     11  C   UNL     1      -1.764  13.790  23.469  0.00  0.00    +0.000 C 
ATOM     12  C   UNL     1      -3.257  13.537  23.633  0.00  0.00    +0.000 C 
ATOM     13  N   UNL     1      -3.907  13.494  22.316  0.00  0.00    +0.000 N 
ATOM     14  N   UNL     1      -2.725  11.108  18.314  0.00  0.00    +0.000 N 
ATOM     15  C   UNL     1      -3.908  11.050  17.477  0.00  0.00    +0.000 C 
ATOM     16  C   UNL     1      -1.553  10.523  17.833  0.00  0.00    +0.000 A 
ATOM     17  O   UNL     1      -1.503  10.001  16.714  0.00  0.00    +0.000 OA
ENDROOT
BRANCH  13  18
ATOM     18  C   UNL     1      -5.154  14.276  22.170  0.00  0.00    +0.000 C 
ATOM     19  C   UNL     1      -5.834  14.702  23.470  0.00  0.00    +0.000 C 
ATOM     20  C   UNL     1      -6.650  13.617  24.155  0.00  0.00    +0.000 C 
ATOM     21  C   UNL     1      -7.449  12.714  23.205  0.00  0.00    +0.000 C 
ATOM     22  C   UNL     1      -6.865  12.442  21.814  0.00  0.00    +0.000 C 
ATOM     23  C   UNL     1      -6.150  13.631  21.207  0.00  0.00    +0.000 C 
BRANCH  21  24
ATOM     24  O   UNL     1      -7.636  11.448  23.836  0.00  0.00    +0.000 OA
ATOM     25  H   UNL     1      -7.328  11.601  24.752  0.00  0.00    +0.000 HD
ENDBRANCH  21  24
ENDBRANCH  13  18
TORSDOF 2
ENDMDL
MODEL 5
REMARK VINA RESULT:      -6.0      8.568     10.077
REMARK  Name = 
REMARK  4 active torsions:
REMARK  status: ('A' for Active; 'I' for Inactive)
REMARK    1  A    between atoms: C_1  and  N_2
REMARK    2  A    between atoms: N_13  and  C_14
REMARK    3  A    between atoms: C_17  and  O_18
REMARK    4  A    between atoms: N_21  and  C_22
REMARK                            x       y       z     vdW  Elec       q    Type
REMARK                         _______ _______ _______ _____ _____    ______ ____
ROOT
ATOM      1  C   UNL     1       5.222  15.932  25.709  0.00  0.00    +0.000 C 
ATOM      2  N   UNL     1       5.971  15.020  24.869  0.00  0.00    +0.000 N 
ATOM      3  C   UNL     1       6.863  15.559  23.941  0.00  0.00    +0.000 A 
ATOM      4  O   UNL     1       7.039  16.758  23.760  0.00  0.00    +0.000 OA
ATOM      5  C   UNL     1       7.564  14.559  23.205  0.00  0.00    +0.000 A 
ATOM      6  C   UNL     1       7.350  13.227  23.370  0.00  0.00    +0.000 A 
ATOM      7  N   UNL     1       8.173  12.495  22.572  0.00  0.00    +0.000 NA
ATOM      8  C   UNL     1       8.860  13.357  21.849  0.00  0.00    +0.000 A 
ATOM      9  N   UNL     1       8.523  14.643  22.238  0.00  0.00    +0.000 N 
ATOM     10  C   UNL     1       9.118  15.843  21.694  0.00  0.00    +0.000 C 
ATOM     11  C   UNL     1      10.414  15.538  20.958  0.00  0.00    +0.000 C 
ATOM     12  C   UNL     1      10.212  14.320  20.067  0.00  0.00    +0.000 C 
ATOM     13  N   UNL     1       9.805  13.165  20.879  0.00  0.00    +0.000 N 
ATOM     14  N   UNL     1       6.405  12.749  24.253  0.00  0.00    +0.000 N 
ATOM     15  C   UNL     1       6.116  11.336  24.406  0.00  0.00    +0.000 C 
ATOM     16  C   UNL     1       5.713  13.652  25.061  0.00  0.00    +0.000 A 
ATOM     17  O   UNL     1       4.901  13.268  25.910  0.00  0.00    +0.000 OA
ENDROOT
BRANCH  13  18
ATOM     18  C   UNL     1      10.514  11.893  20.620  0.00  0.00    +0.000 C 
ATOM     19  C   UNL     1      11.986  12.013  20.232  0.00  0.00    +0.000 C 
ATOM     20  C   UNL     1      12.242  12.397  18.784  0.00  0.00    +0.000 C 
ATOM     21  C   UNL     1      11.298  11.742  17.767  0.00  0.00    +0.000 C 
ATOM     22  C   UNL     1       9.864  11.433  18.214  0.00  0.00    +0.000 C 
ATOM     23  C   UNL     1       9.758  10.979  19.655  0.00  0.00    +0.000 C 
BRANCH  21  24
ATOM     24  O   UNL     1      11.205  12.592  16.623  0.00  0.00    +0.000 OA
ATOM     25  H   UNL     1      12.131  12.659  16.314  0.00  0.00    +0.000 HD
ENDBRANCH  21  24
ENDBRANCH  13  18
TORSDOF 2
ENDMDL
MODEL 6
REMARK VINA RESULT:      -6.0      1.719      3.267
REMARK  Name = 
REMARK  4 active torsions:
REMARK  status: ('A' for Active; 'I' for Inactive)
REMARK    1  A    between atoms: C_1  and  N_2
REMARK    2  A    between atoms: N_13  and  C_14
REMARK    3  A    between atoms: C_17  and  O_18
REMARK    4  A    between atoms: N_21  and  C_22
REMARK                            x       y       z     vdW  Elec       q    Type
REMARK                         _______ _______ _______ _____ _____    ______ ____
ROOT
ATOM      1  C   UNL     1      -0.788  12.233  21.164  0.00  0.00    +0.000 C 
ATOM      2  N   UNL     1       0.099  11.332  20.457  0.00  0.00    +0.000 N 
ATOM      3  C   UNL     1       0.209  10.019  20.917  0.00  0.00    +0.000 A 
ATOM      4  O   UNL     1      -0.370   9.576  21.901  0.00  0.00    +0.000 OA
ATOM      5  C   UNL     1       1.081   9.226  20.116  0.00  0.00    +0.000 A 
ATOM      6  C   UNL     1       1.759   9.717  19.045  0.00  0.00    +0.000 A 
ATOM      7  N   UNL     1       2.491   8.742  18.439  0.00  0.00    +0.000 NA
ATOM      8  C   UNL     1       2.336   7.652  19.162  0.00  0.00    +0.000 A 
ATOM      9  N   UNL     1       1.448   7.914  20.192  0.00  0.00    +0.000 N 
ATOM     10  C   UNL     1       1.003   6.932  21.156  0.00  0.00    +0.000 C 
ATOM     11  C   UNL     1       1.293   5.516  20.683  0.00  0.00    +0.000 C 
ATOM     12  C   UNL     1       2.710   5.449  20.131  0.00  0.00    +0.000 C 
ATOM     13  N   UNL     1       2.861   6.397  19.019  0.00  0.00    +0.000 N 
ATOM     14  N   UNL     1       1.668  11.041  18.675  0.00  0.00    +0.000 N 
ATOM     15  C   UNL     1       2.424  11.604  17.572  0.00  0.00    +0.000 C 
ATOM     16  C   UNL     1       0.791  11.880  19.363  0.00  0.00    +0.000 A 
ATOM     17  O   UNL     1       0.629  13.059  19.030  0.00  0.00    +0.000 OA
ENDROOT
BRANCH  13  18
ATOM     18  C   UNL     1       3.517   5.882  17.797  0.00  0.00    +0.000 C 
ATOM     19  C   UNL     1       3.032   4.521  17.300  0.00  0.00    +0.000 C 
ATOM     20  C   UNL     1       3.593   3.324  18.050  0.00  0.00    +0.000 C 
ATOM     21  C   UNL     1       5.072   3.444  18.443  0.00  0.00    +0.000 C 
ATOM     22  C   UNL     1       5.621   4.841  18.752  0.00  0.00    +0.000 C 
ATOM     23  C   UNL     1       5.043   5.933  17.875  0.00  0.00    +0.000 C 
BRANCH  21  24
ATOM     24  O   UNL     1       5.300   2.639  19.599  0.00  0.00    +0.000 OA
ATOM     25  H   UNL     1       5.469   3.296  20.305  0.00  0.00    +0.000 HD
ENDBRANCH  21  24
ENDBRANCH  13  18
TORSDOF 2
ENDMDL
MODEL 7
REMARK VINA RESULT:      -6.0      8.562     10.383
REMARK  Name = 
REMARK  4 active torsions:
REMARK  status: ('A' for Active; 'I' for Inactive)
REMARK    1  A    between atoms: C_1  and  N_2
REMARK    2  A    between atoms: N_13  and  C_14
REMARK    3  A    between atoms: C_17  and  O_18
REMARK    4  A    between atoms: N_21  and  C_22
REMARK                            x       y       z     vdW  Elec       q    Type
REMARK                         _______ _______ _______ _____ _____    ______ ____
ROOT
ATOM      1  C   UNL     1       4.375  18.404  20.669  0.00  0.00    +0.000 C 
ATOM      2  N   UNL     1       5.118  17.388  19.951  0.00  0.00    +0.000 N 
ATOM      3  C   UNL     1       6.506  17.520  19.869  0.00  0.00    +0.000 A 
ATOM      4  O   UNL     1       7.144  18.455  20.335  0.00  0.00    +0.000 OA
ATOM      5  C   UNL     1       7.121  16.440  19.171  0.00  0.00    +0.000 A 
ATOM      6  C   UNL     1       6.419  15.417  18.615  0.00  0.00    +0.000 A 
ATOM      7  N   UNL     1       7.251  14.505  18.043  0.00  0.00    +0.000 NA
ATOM      8  C   UNL     1       8.473  14.980  18.170  0.00  0.00    +0.000 A 
ATOM      9  N   UNL     1       8.427  16.164  18.888  0.00  0.00    +0.000 N 
ATOM     10  C   UNL     1       9.589  16.939  19.261  0.00  0.00    +0.000 C 
ATOM     11  C   UNL     1      10.866  16.122  19.137  0.00  0.00    +0.000 C 
ATOM     12  C   UNL     1      10.852  15.363  17.817  0.00  0.00    +0.000 C 
ATOM     13  N   UNL     1       9.678  14.483  17.756  0.00  0.00    +0.000 N 
ATOM     14  N   UNL     1       5.042  15.372  18.666  0.00  0.00    +0.000 N 
ATOM     15  C   UNL     1       4.266  14.323  18.033  0.00  0.00    +0.000 C 
ATOM     16  C   UNL     1       4.356  16.354  19.381  0.00  0.00    +0.000 A 
ATOM     17  O   UNL     1       3.127  16.322  19.507  0.00  0.00    +0.000 OA
ENDROOT
BRANCH  13  18
ATOM     18  C   UNL     1       9.919  13.092  17.312  0.00  0.00    +0.000 C 
ATOM     19  C   UNL     1       9.008  12.027  17.919  0.00  0.00    +0.000 C 
ATOM     20  C   UNL     1       9.376  11.591  19.328  0.00  0.00    +0.000 C 
ATOM     21  C   UNL     1      10.883  11.461  19.589  0.00  0.00    +0.000 C 
ATOM     22  C   UNL     1      11.827  12.399  18.828  0.00  0.00    +0.000 C 
ATOM     23  C   UNL     1      11.389  12.685  17.406  0.00  0.00    +0.000 C 
BRANCH  21  24
ATOM     24  O   UNL     1      11.121  11.668  20.981  0.00  0.00    +0.000 OA
ATOM     25  H   UNL     1      10.271  12.028  21.307  0.00  0.00    +0.000 HD
ENDBRANCH  21  24
ENDBRANCH  13  18
TORSDOF 2
ENDMDL
MODEL 8
REMARK VINA RESULT:      -5.9      5.099      9.861
REMARK  Name = 
REMARK  4 active torsions:
REMARK  status: ('A' for Active; 'I' for Inactive)
REMARK    1  A    between atoms: C_1  and  N_2
REMARK    2  A    between atoms: N_13  and  C_14
REMARK    3  A    between atoms: C_17  and  O_18
REMARK    4  A    between atoms: N_21  and  C_22
REMARK                            x       y       z     vdW  Elec       q    Type
REMARK                         _______ _______ _______ _____ _____    ______ ____
ROOT
ATOM      1  C   UNL     1       1.088   9.812  19.291  0.00  0.00    +0.000 C 
ATOM      2  N   UNL     1      -0.108  10.591  19.537  0.00  0.00    +0.000 N 
ATOM      3  C   UNL     1      -0.233  11.238  20.768  0.00  0.00    +0.000 A 
ATOM      4  O   UNL     1       0.586  11.170  21.675  0.00  0.00    +0.000 OA
ATOM      5  C   UNL     1      -1.434  11.999  20.870  0.00  0.00    +0.000 A 
ATOM      6  C   UNL     1      -2.369  12.050  19.885  0.00  0.00    +0.000 A 
ATOM      7  N   UNL     1      -3.396  12.875  20.226  0.00  0.00    +0.000 NA
ATOM      8  C   UNL     1      -3.153  13.291  21.452  0.00  0.00    +0.000 A 
ATOM      9  N   UNL     1      -1.932  12.787  21.867  0.00  0.00    +0.000 N 
ATOM     10  C   UNL     1      -1.319  13.078  23.144  0.00  0.00    +0.000 C 
ATOM     11  C   UNL     1      -1.953  14.294  23.801  0.00  0.00    +0.000 C 
ATOM     12  C   UNL     1      -3.469  14.195  23.691  0.00  0.00    +0.000 C 
ATOM     13  N   UNL     1      -3.866  14.114  22.279  0.00  0.00    +0.000 N 
ATOM     14  N   UNL     1      -2.228  11.335  18.715  0.00  0.00    +0.000 N 
ATOM     15  C   UNL     1      -3.236  11.327  17.672  0.00  0.00    +0.000 C 
ATOM     16  C   UNL     1      -1.056  10.610  18.499  0.00  0.00    +0.000 A 
ATOM     17  O   UNL     1      -0.857  10.003  17.441  0.00  0.00    +0.000 OA
ENDROOT
BRANCH  13  18
ATOM     18  C   UNL     1      -4.975  14.997  21.855  0.00  0.00    +0.000 C 
ATOM     19  C   UNL     1      -5.368  16.098  22.838  0.00  0.00    +0.000 C 
ATOM     20  C   UNL     1      -6.236  15.645  24.000  0.00  0.00    +0.000 C 
ATOM     21  C   UNL     1      -7.309  14.608  23.639  0.00  0.00    +0.000 C 
ATOM     22  C   UNL     1      -6.998  13.619  22.510  0.00  0.00    +0.000 C 
ATOM     23  C   UNL     1      -6.200  14.220  21.371  0.00  0.00    +0.000 C 
BRANCH  21  24
ATOM     24  O   UNL     1      -7.603  13.836  24.802  0.00  0.00    +0.000 OA
ATOM     25  H   UNL     1      -7.666  14.508  25.512  0.00  0.00    +0.000 HD
ENDBRANCH  21  24
ENDBRANCH  13  18
TORSDOF 2
ENDMDL
MODEL 9
REMARK VINA RESULT:      -5.8      5.403      9.412
REMARK  Name = 
REMARK  4 active torsions:
REMARK  status: ('A' for Active; 'I' for Inactive)
REMARK    1  A    between atoms: C_1  and  N_2
REMARK    2  A    between atoms: N_13  and  C_14
REMARK    3  A    between atoms: C_17  and  O_18
REMARK    4  A    between atoms: N_21  and  C_22
REMARK                            x       y       z     vdW  Elec       q    Type
REMARK                         _______ _______ _______ _____ _____    ______ ____
ROOT
ATOM      1  C   UNL     1       0.209   9.837  17.900  0.00  0.00    +0.000 C 
ATOM      2  N   UNL     1      -0.597  10.796  18.628  0.00  0.00    +0.000 N 
ATOM      3  C   UNL     1      -1.976  10.802  18.408  0.00  0.00    +0.000 A 
ATOM      4  O   UNL     1      -2.557  10.071  17.616  0.00  0.00    +0.000 OA
ATOM      5  C   UNL     1      -2.657  11.763  19.211  0.00  0.00    +0.000 A 
ATOM      6  C   UNL     1      -2.018  12.606  20.064  0.00  0.00    +0.000 A 
ATOM      7  N   UNL     1      -2.905  13.394  20.731  0.00  0.00    +0.000 NA
ATOM      8  C   UNL     1      -4.098  13.105  20.252  0.00  0.00    +0.000 A 
ATOM      9  N   UNL     1      -3.979  12.080  19.328  0.00  0.00    +0.000 N 
ATOM     10  C   UNL     1      -5.092  11.471  18.635  0.00  0.00    +0.000 C 
ATOM     11  C   UNL     1      -6.414  11.791  19.317  0.00  0.00    +0.000 C 
ATOM     12  C   UNL     1      -6.456  13.272  19.665  0.00  0.00    +0.000 C 
ATOM     13  N   UNL     1      -5.333  13.613  20.548  0.00  0.00    +0.000 N 
ATOM     14  N   UNL     1      -0.646  12.606  20.192  0.00  0.00    +0.000 N 
ATOM     15  C   UNL     1       0.065  13.532  21.052  0.00  0.00    +0.000 C 
ATOM     16  C   UNL     1       0.101  11.658  19.491  0.00  0.00    +0.000 A 
ATOM     17  O   UNL     1       1.327  11.578  19.619  0.00  0.00    +0.000 OA
ENDROOT
BRANCH  13  18
ATOM     18  C   UNL     1      -5.655  14.430  21.739  0.00  0.00    +0.000 C 
ATOM     19  C   UNL     1      -4.958  14.026  23.037  0.00  0.00    +0.000 C 
ATOM     20  C   UNL     1      -5.568  12.830  23.751  0.00  0.00    +0.000 C 
ATOM     21  C   UNL     1      -7.102  12.780  23.730  0.00  0.00    +0.000 C 
ATOM     22  C   UNL     1      -7.822  13.368  22.511  0.00  0.00    +0.000 C 
ATOM     23  C   UNL     1      -7.159  14.608  21.948  0.00  0.00    +0.000 C 
BRANCH  21  24
ATOM     24  O   UNL     1      -7.511  11.418  23.841  0.00  0.00    +0.000 OA
ATOM     25  H   UNL     1      -6.944  11.067  24.557  0.00  0.00    +0.000 HD
ENDBRANCH  21  24
ENDBRANCH  13  18
TORSDOF 2
ENDMDL
