MODEL 1
REMARK VINA RESULT:      -7.4      0.000      0.000
REMARK  Name = 
REMARK  9 active torsions:
REMARK  status: ('A' for Active; 'I' for Inactive)
REMARK    1  A    between atoms: C_1  and  O_2
REMARK    2  A    between atoms: O_2  and  C_3
REMARK    3  A    between atoms: C_3  and  C_5
REMARK    4  A    between atoms: C_10  and  N_11
REMARK    5  A    between atoms: C_12  and  C_14
REMARK    6  A    between atoms: C_18  and  N_19
REMARK    7  A    between atoms: C_20  and  C_22
REMARK    8  A    between atoms: C_22  and  C_23
REMARK    9  A    between atoms: C_22  and  C_24
REMARK                            x       y       z     vdW  Elec       q    Type
REMARK                         _______ _______ _______ _____ _____    ______ ____
ROOT
ATOM      1  N   UNL     1       4.344   4.493  17.048  0.00  0.00    +0.000 N 
ATOM      2  C   UNL     1       3.816   3.378  17.689  0.00  0.00    +0.000 C 
ATOM      3  O   UNL     1       4.125   2.209  17.481  0.00  0.00    +0.000 OA
ATOM      4  H   UNL     1       4.219   5.400  17.493  0.00  0.00    +0.000 HD
ENDROOT
BRANCH   1  10
ATOM      5  C   UNL     1       6.626   4.669  16.077  0.00  0.00    +0.000 A 
ATOM      6  C   UNL     1       7.451   4.612  14.932  0.00  0.00    +0.000 A 
ATOM      7  C   UNL     1       6.922   4.380  13.664  0.00  0.00    +0.000 A 
ATOM      8  C   UNL     1       5.555   4.219  13.519  0.00  0.00    +0.000 A 
ATOM      9  C   UNL     1       4.723   4.275  14.639  0.00  0.00    +0.000 A 
ATOM     10  C   UNL     1       5.231   4.473  15.935  0.00  0.00    +0.000 A 
BRANCH   5  11
ATOM     11  C   UNL     1       7.365   4.897  17.358  0.00  0.00    +0.000 C 
ATOM     12  O   UNL     1       8.276   4.172  17.736  0.00  0.00    +0.000 OA
BRANCH  11  14
ATOM     13  C   UNL     1       7.440   7.215  17.573  0.00  0.00    +0.000 C 
ATOM     14  O   UNL     1       6.902   5.973  18.046  0.00  0.00    +0.000 OA
ENDBRANCH  11  14
ENDBRANCH   5  11
ENDBRANCH   1  10
BRANCH   2  15
ATOM     15  C   UNL     1       2.822   3.632  18.767  0.00  0.00    +0.000 A 
ATOM     16  C   UNL     1       2.044   2.597  19.295  0.00  0.00    +0.000 A 
ATOM     17  C   UNL     1       1.161   2.869  20.335  0.00  0.00    +0.000 A 
ATOM     18  C   UNL     1       1.050   4.165  20.843  0.00  0.00    +0.000 A 
ATOM     19  C   UNL     1       1.819   5.215  20.329  0.00  0.00    +0.000 A 
ATOM     20  C   UNL     1       2.727   4.933  19.304  0.00  0.00    +0.000 A 
BRANCH  19  21
ATOM     21  N   UNL     1       1.723   6.544  20.815  0.00  0.00    +0.000 N 
ATOM     22  C   UNL     1       1.792   7.685  20.025  0.00  0.00    +0.000 C 
ATOM     23  O   UNL     1       1.989   7.684  18.813  0.00  0.00    +0.000 OA
ATOM     24  H   UNL     1       1.717   6.661  21.822  0.00  0.00    +0.000 HD
BRANCH  22  25
ATOM     25  C   UNL     1       1.594   9.004  20.780  0.00  0.00    +0.000 C 
ATOM     26  C   UNL     1       0.827  10.029  19.950  0.00  0.00    +0.000 C 
ATOM     27  C   UNL     1       0.836   8.731  22.085  0.00  0.00    +0.000 C 
ENDBRANCH  22  25
ENDBRANCH  19  21
ENDBRANCH   2  15
TORSDOF 6
ENDMDL
MODEL 2
REMARK VINA RESULT:      -7.4      1.281      1.402
REMARK  Name = 
REMARK  9 active torsions:
REMARK  status: ('A' for Active; 'I' for Inactive)
REMARK    1  A    between atoms: C_1  and  O_2
REMARK    2  A    between atoms: O_2  and  C_3
REMARK    3  A    between atoms: C_3  and  C_5
REMARK    4  A    between atoms: C_10  and  N_11
REMARK    5  A    between atoms: C_12  and  C_14
REMARK    6  A    between atoms: C_18  and  N_19
REMARK    7  A    between atoms: C_20  and  C_22
REMARK    8  A    between atoms: C_22  and  C_23
REMARK    9  A    between atoms: C_22  and  C_24
REMARK                            x       y       z     vdW  Elec       q    Type
REMARK                         _______ _______ _______ _____ _____    ______ ____
ROOT
ATOM      1  N   UNL     1       4.620   4.228  16.382  0.00  0.00    +0.000 N 
ATOM      2  C   UNL     1       4.136   5.323  17.091  0.00  0.00    +0.000 C 
ATOM      3  O   UNL     1       4.247   6.500  16.767  0.00  0.00    +0.000 OA
ATOM      4  H   UNL     1       4.231   3.312  16.599  0.00  0.00    +0.000 HD
ENDROOT
BRANCH   1  10
ATOM      5  C   UNL     1       6.774   4.794  15.279  0.00  0.00    +0.000 A 
ATOM      6  C   UNL     1       7.557   4.797  14.102  0.00  0.00    +0.000 A 
ATOM      7  C   UNL     1       7.055   4.321  12.893  0.00  0.00    +0.000 A 
ATOM      8  C   UNL     1       5.754   3.850  12.837  0.00  0.00    +0.000 A 
ATOM      9  C   UNL     1       4.965   3.841  13.989  0.00  0.00    +0.000 A 
ATOM     10  C   UNL     1       5.455   4.283  15.231  0.00  0.00    +0.000 A 
BRANCH   5  11
ATOM     11  C   UNL     1       7.482   5.314  16.490  0.00  0.00    +0.000 C 
ATOM     12  O   UNL     1       7.839   4.591  17.411  0.00  0.00    +0.000 OA
BRANCH  11  14
ATOM     13  C   UNL     1       7.554   7.274  17.746  0.00  0.00    +0.000 C 
ATOM     14  O   UNL     1       7.661   6.660  16.455  0.00  0.00    +0.000 OA
ENDBRANCH  11  14
ENDBRANCH   5  11
ENDBRANCH   1  10
BRANCH   2  15
ATOM     15  C   UNL     1       3.365   5.031  18.329  0.00  0.00    +0.000 A 
ATOM     16  C   UNL     1       3.138   3.718  18.750  0.00  0.00    +0.000 A 
ATOM     17  C   UNL     1       2.453   3.491  19.940  0.00  0.00    +0.000 A 
ATOM     18  C   UNL     1       1.994   4.566  20.703  0.00  0.00    +0.000 A 
ATOM     19  C   UNL     1       2.211   5.887  20.301  0.00  0.00    +0.000 A 
ATOM     20  C   UNL     1       2.925   6.113  19.120  0.00  0.00    +0.000 A 
BRANCH  19  21
ATOM     21  N   UNL     1       1.748   7.001  21.047  0.00  0.00    +0.000 N 
ATOM     22  C   UNL     1       1.506   8.264  20.521  0.00  0.00    +0.000 C 
ATOM     23  O   UNL     1       1.705   8.584  19.353  0.00  0.00    +0.000 OA
ATOM     24  H   UNL     1       1.703   6.887  22.053  0.00  0.00    +0.000 HD
BRANCH  22  25
ATOM     25  C   UNL     1       0.946   9.282  21.522  0.00  0.00    +0.000 C 
ATOM     26  C   UNL     1       0.698  10.642  20.875  0.00  0.00    +0.000 C 
ATOM     27  C   UNL     1      -0.366   8.746  22.107  0.00  0.00    +0.000 C 
ENDBRANCH  22  25
ENDBRANCH  19  21
ENDBRANCH   2  15
TORSDOF 6
ENDMDL
MODEL 3
REMARK VINA RESULT:      -7.4      2.478      8.180
REMARK  Name = 
REMARK  9 active torsions:
REMARK  status: ('A' for Active; 'I' for Inactive)
REMARK    1  A    between atoms: C_1  and  O_2
REMARK    2  A    between atoms: O_2  and  C_3
REMARK    3  A    between atoms: C_3  and  C_5
REMARK    4  A    between atoms: C_10  and  N_11
REMARK    5  A    between atoms: C_12  and  C_14
REMARK    6  A    between atoms: C_18  and  N_19
REMARK    7  A    between atoms: C_20  and  C_22
REMARK    8  A    between atoms: C_22  and  C_23
REMARK    9  A    between atoms: C_22  and  C_24
REMARK                            x       y       z     vdW  Elec       q    Type
REMARK                         _______ _______ _______ _____ _____    ______ ____
ROOT
ATOM      1  N   UNL     1       0.679   9.184  19.296  0.00  0.00    +0.000 N 
ATOM      2  C   UNL     1       1.709   8.782  18.451  0.00  0.00    +0.000 C 
ATOM      3  O   UNL     1       2.111   9.385  17.462  0.00  0.00    +0.000 OA
ATOM      4  H   UNL     1       0.627   8.758  20.218  0.00  0.00    +0.000 HD
ENDROOT
BRANCH   1  10
ATOM      5  C   UNL     1      -0.203  11.418  19.939  0.00  0.00    +0.000 A 
ATOM      6  C   UNL     1      -1.073  12.494  19.653  0.00  0.00    +0.000 A 
ATOM      7  C   UNL     1      -1.928  12.465  18.554  0.00  0.00    +0.000 A 
ATOM      8  C   UNL     1      -1.940  11.351  17.732  0.00  0.00    +0.000 A 
ATOM      9  C   UNL     1      -1.088  10.278  18.000  0.00  0.00    +0.000 A 
ATOM     10  C   UNL     1      -0.189  10.292  19.081  0.00  0.00    +0.000 A 
BRANCH   5  11
ATOM     11  C   UNL     1       0.664  11.630  21.140  0.00  0.00    +0.000 C 
ATOM     12  O   UNL     1       1.347  12.634  21.295  0.00  0.00    +0.000 OA
BRANCH  11  14
ATOM     13  C   UNL     1      -0.576  10.573  22.804  0.00  0.00    +0.000 C 
ATOM     14  O   UNL     1       0.618  10.589  22.011  0.00  0.00    +0.000 OA
ENDBRANCH  11  14
ENDBRANCH   5  11
ENDBRANCH   1  10
BRANCH   2  15
ATOM     15  C   UNL     1       2.424   7.529  18.817  0.00  0.00    +0.000 A 
ATOM     16  C   UNL     1       2.123   6.840  19.996  0.00  0.00    +0.000 A 
ATOM     17  C   UNL     1       2.782   5.647  20.277  0.00  0.00    +0.000 A 
ATOM     18  C   UNL     1       3.737   5.146  19.390  0.00  0.00    +0.000 A 
ATOM     19  C   UNL     1       4.052   5.818  18.205  0.00  0.00    +0.000 A 
ATOM     20  C   UNL     1       3.367   7.001  17.911  0.00  0.00    +0.000 A 
BRANCH  19  21
ATOM     21  N   UNL     1       5.024   5.342  17.289  0.00  0.00    +0.000 N 
ATOM     22  C   UNL     1       4.903   4.181  16.535  0.00  0.00    +0.000 C 
ATOM     23  O   UNL     1       3.959   3.400  16.602  0.00  0.00    +0.000 OA
ATOM     24  H   UNL     1       5.912   5.830  17.274  0.00  0.00    +0.000 HD
BRANCH  22  25
ATOM     25  C   UNL     1       6.062   3.918  15.566  0.00  0.00    +0.000 C 
ATOM     26  C   UNL     1       5.672   4.199  14.118  0.00  0.00    +0.000 C 
ATOM     27  C   UNL     1       7.255   4.800  15.956  0.00  0.00    +0.000 C 
ENDBRANCH  22  25
ENDBRANCH  19  21
ENDBRANCH   2  15
TORSDOF 6
ENDMDL
MODEL 4
REMARK VINA RESULT:      -7.4      2.138      7.790
REMARK  Name = 
REMARK  9 active torsions:
REMARK  status: ('A' for Active; 'I' for Inactive)
REMARK    1  A    between atoms: C_1  and  O_2
REMARK    2  A    between atoms: O_2  and  C_3
REMARK    3  A    between atoms: C_3  and  C_5
REMARK    4  A    between atoms: C_10  and  N_11
REMARK    5  A    between atoms: C_12  and  C_14
REMARK    6  A    between atoms: C_18  and  N_19
REMARK    7  A    between atoms: C_20  and  C_22
REMARK    8  A    between atoms: C_22  and  C_23
REMARK    9  A    between atoms: C_22  and  C_24
REMARK                            x       y       z     vdW  Elec       q    Type
REMARK                         _______ _______ _______ _____ _____    ______ ____
ROOT
ATOM      1  N   UNL     1       3.854   3.975  18.216  0.00  0.00    +0.000 N 
ATOM      2  C   UNL     1       5.222   4.218  18.283  0.00  0.00    +0.000 C 
ATOM      3  O   UNL     1       5.922   4.144  19.288  0.00  0.00    +0.000 OA
ATOM      4  H   UNL     1       3.448   3.796  17.300  0.00  0.00    +0.000 HD
ENDROOT
BRANCH   1  10
ATOM      5  C   UNL     1       2.311   4.786  19.988  0.00  0.00    +0.000 A 
ATOM      6  C   UNL     1       1.454   4.477  21.068  0.00  0.00    +0.000 A 
ATOM      7  C   UNL     1       1.277   3.165  21.504  0.00  0.00    +0.000 A 
ATOM      8  C   UNL     1       1.969   2.143  20.878  0.00  0.00    +0.000 A 
ATOM      9  C   UNL     1       2.822   2.430  19.810  0.00  0.00    +0.000 A 
ATOM     10  C   UNL     1       2.995   3.738  19.325  0.00  0.00    +0.000 A 
BRANCH   5  11
ATOM     11  C   UNL     1       2.359   6.239  19.637  0.00  0.00    +0.000 C 
ATOM     12  O   UNL     1       2.846   6.654  18.593  0.00  0.00    +0.000 OA
BRANCH  11  14
ATOM     13  C   UNL     1       1.544   8.360  20.147  0.00  0.00    +0.000 C 
ATOM     14  O   UNL     1       1.824   7.030  20.602  0.00  0.00    +0.000 OA
ENDBRANCH  11  14
ENDBRANCH   5  11
ENDBRANCH   1  10
BRANCH   2  15
ATOM     15  C   UNL     1       5.908   4.545  17.004  0.00  0.00    +0.000 A 
ATOM     16  C   UNL     1       6.992   5.427  16.967  0.00  0.00    +0.000 A 
ATOM     17  C   UNL     1       7.636   5.669  15.758  0.00  0.00    +0.000 A 
ATOM     18  C   UNL     1       7.199   5.038  14.591  0.00  0.00    +0.000 A 
ATOM     19  C   UNL     1       6.117   4.153  14.605  0.00  0.00    +0.000 A 
ATOM     20  C   UNL     1       5.491   3.889  15.827  0.00  0.00    +0.000 A 
BRANCH  19  21
ATOM     21  N   UNL     1       5.642   3.505  13.437  0.00  0.00    +0.000 N 
ATOM     22  C   UNL     1       6.304   3.482  12.215  0.00  0.00    +0.000 C 
ATOM     23  O   UNL     1       7.363   4.059  11.984  0.00  0.00    +0.000 OA
ATOM     24  H   UNL     1       4.700   3.131  13.475  0.00  0.00    +0.000 HD
BRANCH  22  25
ATOM     25  C   UNL     1       5.614   2.656  11.123  0.00  0.00    +0.000 C 
ATOM     26  C   UNL     1       5.939   1.170  11.240  0.00  0.00    +0.000 C 
ATOM     27  C   UNL     1       4.097   2.858  11.220  0.00  0.00    +0.000 C 
ENDBRANCH  22  25
ENDBRANCH  19  21
ENDBRANCH   2  15
TORSDOF 6
ENDMDL
MODEL 5
REMARK VINA RESULT:      -7.4      0.939      1.052
REMARK  Name = 
REMARK  9 active torsions:
REMARK  status: ('A' for Active; 'I' for Inactive)
REMARK    1  A    between atoms: C_1  and  O_2
REMARK    2  A    between atoms: O_2  and  C_3
REMARK    3  A    between atoms: C_3  and  C_5
REMARK    4  A    between atoms: C_10  and  N_11
REMARK    5  A    between atoms: C_12  and  C_14
REMARK    6  A    between atoms: C_18  and  N_19
REMARK    7  A    between atoms: C_20  and  C_22
REMARK    8  A    between atoms: C_22  and  C_23
REMARK    9  A    between atoms: C_22  and  C_24
REMARK                            x       y       z     vdW  Elec       q    Type
REMARK                         _______ _______ _______ _____ _____    ______ ____
ROOT
ATOM      1  N   UNL     1       4.496   4.869  17.117  0.00  0.00    +0.000 N 
ATOM      2  C   UNL     1       4.516   4.111  18.284  0.00  0.00    +0.000 C 
ATOM      3  O   UNL     1       5.437   3.398  18.668  0.00  0.00    +0.000 OA
ATOM      4  H   UNL     1       3.813   5.620  17.051  0.00  0.00    +0.000 HD
ENDROOT
BRANCH   1  10
ATOM      5  C   UNL     1       6.684   5.577  16.172  0.00  0.00    +0.000 A 
ATOM      6  C   UNL     1       7.627   5.482  15.124  0.00  0.00    +0.000 A 
ATOM      7  C   UNL     1       7.390   4.690  14.003  0.00  0.00    +0.000 A 
ATOM      8  C   UNL     1       6.199   3.993  13.903  0.00  0.00    +0.000 A 
ATOM      9  C   UNL     1       5.254   4.076  14.929  0.00  0.00    +0.000 A 
ATOM     10  C   UNL     1       5.479   4.840  16.088  0.00  0.00    +0.000 A 
BRANCH   5  11
ATOM     11  C   UNL     1       7.113   6.449  17.310  0.00  0.00    +0.000 C 
ATOM     12  O   UNL     1       7.325   6.015  18.435  0.00  0.00    +0.000 OA
BRANCH  11  14
ATOM     13  C   UNL     1       8.043   8.513  17.855  0.00  0.00    +0.000 C 
ATOM     14  O   UNL     1       7.221   7.756  16.957  0.00  0.00    +0.000 OA
ENDBRANCH  11  14
ENDBRANCH   5  11
ENDBRANCH   1  10
BRANCH   2  15
ATOM     15  C   UNL     1       3.330   4.222  19.175  0.00  0.00    +0.000 A 
ATOM     16  C   UNL     1       2.603   3.092  19.560  0.00  0.00    +0.000 A 
ATOM     17  C   UNL     1       1.530   3.234  20.433  0.00  0.00    +0.000 A 
ATOM     18  C   UNL     1       1.179   4.496  20.917  0.00  0.00    +0.000 A 
ATOM     19  C   UNL     1       1.892   5.640  20.545  0.00  0.00    +0.000 A 
ATOM     20  C   UNL     1       2.989   5.491  19.691  0.00  0.00    +0.000 A 
BRANCH  19  21
ATOM     21  N   UNL     1       1.556   6.937  21.009  0.00  0.00    +0.000 N 
ATOM     22  C   UNL     1       1.601   8.093  20.239  0.00  0.00    +0.000 C 
ATOM     23  O   UNL     1       1.980   8.140  19.072  0.00  0.00    +0.000 OA
ATOM     24  H   UNL     1       1.381   7.033  22.003  0.00  0.00    +0.000 HD
BRANCH  22  25
ATOM     25  C   UNL     1       1.125   9.363  20.954  0.00  0.00    +0.000 C 
ATOM     26  C   UNL     1       0.276  10.247  20.045  0.00  0.00    +0.000 C 
ATOM     27  C   UNL     1       0.310   8.970  22.193  0.00  0.00    +0.000 C 
ENDBRANCH  22  25
ENDBRANCH  19  21
ENDBRANCH   2  15
TORSDOF 6
ENDMDL
MODEL 6
REMARK VINA RESULT:      -7.3      2.670      4.953
REMARK  Name = 
REMARK  9 active torsions:
REMARK  status: ('A' for Active; 'I' for Inactive)
REMARK    1  A    between atoms: C_1  and  O_2
REMARK    2  A    between atoms: O_2  and  C_3
REMARK    3  A    between atoms: C_3  and  C_5
REMARK    4  A    between atoms: C_10  and  N_11
REMARK    5  A    between atoms: C_12  and  C_14
REMARK    6  A    between atoms: C_18  and  N_19
REMARK    7  A    between atoms: C_20  and  C_22
REMARK    8  A    between atoms: C_22  and  C_23
REMARK    9  A    between atoms: C_22  and  C_24
REMARK                            x       y       z     vdW  Elec       q    Type
REMARK                         _______ _______ _______ _____ _____    ______ ____
ROOT
ATOM      1  N   UNL     1       2.414   6.093  18.452  0.00  0.00    +0.000 N 
ATOM      2  C   UNL     1       1.995   6.804  19.573  0.00  0.00    +0.000 C 
ATOM      3  O   UNL     1       1.866   6.355  20.707  0.00  0.00    +0.000 OA
ATOM      4  H   UNL     1       2.745   6.625  17.650  0.00  0.00    +0.000 HD
ENDROOT
BRANCH   1  10
ATOM      5  C   UNL     1       3.921   4.117  18.453  0.00  0.00    +0.000 A 
ATOM      6  C   UNL     1       4.059   2.711  18.409  0.00  0.00    +0.000 A 
ATOM      7  C   UNL     1       2.951   1.875  18.289  0.00  0.00    +0.000 A 
ATOM      8  C   UNL     1       1.687   2.432  18.194  0.00  0.00    +0.000 A 
ATOM      9  C   UNL     1       1.532   3.819  18.234  0.00  0.00    +0.000 A 
ATOM     10  C   UNL     1       2.628   4.688  18.389  0.00  0.00    +0.000 A 
BRANCH   5  11
ATOM     11  C   UNL     1       5.211   4.857  18.613  0.00  0.00    +0.000 C 
ATOM     12  O   UNL     1       6.120   4.459  19.331  0.00  0.00    +0.000 OA
BRANCH  11  14
ATOM     13  C   UNL     1       5.919   5.865  16.637  0.00  0.00    +0.000 C 
ATOM     14  O   UNL     1       5.248   6.009  17.895  0.00  0.00    +0.000 OA
ENDBRANCH  11  14
ENDBRANCH   5  11
ENDBRANCH   1  10
BRANCH   2  15
ATOM     15  C   UNL     1       1.732   8.256  19.386  0.00  0.00    +0.000 A 
ATOM     16  C   UNL     1       1.941   8.878  18.151  0.00  0.00    +0.000 A 
ATOM     17  C   UNL     1       1.637  10.228  18.006  0.00  0.00    +0.000 A 
ATOM     18  C   UNL     1       1.132  10.955  19.086  0.00  0.00    +0.000 A 
ATOM     19  C   UNL     1       0.915  10.353  20.329  0.00  0.00    +0.000 A 
ATOM     20  C   UNL     1       1.193   8.989  20.464  0.00  0.00    +0.000 A 
BRANCH  19  21
ATOM     21  N   UNL     1       0.414  11.064  21.448  0.00  0.00    +0.000 N 
ATOM     22  C   UNL     1      -0.859  11.617  21.533  0.00  0.00    +0.000 C 
ATOM     23  O   UNL     1      -1.691  11.596  20.632  0.00  0.00    +0.000 OA
ATOM     24  H   UNL     1       1.076  11.276  22.186  0.00  0.00    +0.000 HD
BRANCH  22  25
ATOM     25  C   UNL     1      -1.184  12.280  22.877  0.00  0.00    +0.000 C 
ATOM     26  C   UNL     1      -0.898  13.779  22.859  0.00  0.00    +0.000 C 
ATOM     27  C   UNL     1      -2.662  12.044  23.212  0.00  0.00    +0.000 C 
ENDBRANCH  22  25
ENDBRANCH  19  21
ENDBRANCH   2  15
TORSDOF 6
ENDMDL
MODEL 7
REMARK VINA RESULT:      -7.3      2.621      4.942
REMARK  Name = 
REMARK  9 active torsions:
REMARK  status: ('A' for Active; 'I' for Inactive)
REMARK    1  A    between atoms: C_1  and  O_2
REMARK    2  A    between atoms: O_2  and  C_3
REMARK    3  A    between atoms: C_3  and  C_5
REMARK    4  A    between atoms: C_10  and  N_11
REMARK    5  A    between atoms: C_12  and  C_14
REMARK    6  A    between atoms: C_18  and  N_19
REMARK    7  A    between atoms: C_20  and  C_22
REMARK    8  A    between atoms: C_22  and  C_23
REMARK    9  A    between atoms: C_22  and  C_24
REMARK                            x       y       z     vdW  Elec       q    Type
REMARK                         _______ _______ _______ _____ _____    ______ ____
ROOT
ATOM      1  N   UNL     1       2.508   6.251  18.180  0.00  0.00    +0.000 N 
ATOM      2  C   UNL     1       2.096   6.962  19.303  0.00  0.00    +0.000 C 
ATOM      3  O   UNL     1       1.974   6.514  20.438  0.00  0.00    +0.000 OA
ATOM      4  H   UNL     1       2.834   6.782  17.375  0.00  0.00    +0.000 HD
ENDROOT
BRANCH   1  10
ATOM      5  C   UNL     1       4.019   4.279  18.102  0.00  0.00    +0.000 A 
ATOM      6  C   UNL     1       4.159   2.873  18.062  0.00  0.00    +0.000 A 
ATOM      7  C   UNL     1       3.048   2.033  18.024  0.00  0.00    +0.000 A 
ATOM      8  C   UNL     1       1.779   2.585  18.006  0.00  0.00    +0.000 A 
ATOM      9  C   UNL     1       1.622   3.972  18.043  0.00  0.00    +0.000 A 
ATOM     10  C   UNL     1       2.722   4.845  18.117  0.00  0.00    +0.000 A 
BRANCH   5  11
ATOM     11  C   UNL     1       5.315   5.024  18.169  0.00  0.00    +0.000 C 
ATOM     12  O   UNL     1       5.391   6.236  18.014  0.00  0.00    +0.000 OA
BRANCH  11  14
ATOM     13  C   UNL     1       7.569   4.638  17.728  0.00  0.00    +0.000 C 
ATOM     14  O   UNL     1       6.377   4.210  18.400  0.00  0.00    +0.000 OA
ENDBRANCH  11  14
ENDBRANCH   5  11
ENDBRANCH   1  10
BRANCH   2  15
ATOM     15  C   UNL     1       1.831   8.414  19.116  0.00  0.00    +0.000 A 
ATOM     16  C   UNL     1       2.257   9.087  17.967  0.00  0.00    +0.000 A 
ATOM     17  C   UNL     1       1.947  10.434  17.810  0.00  0.00    +0.000 A 
ATOM     18  C   UNL     1       1.221  11.108  18.794  0.00  0.00    +0.000 A 
ATOM     19  C   UNL     1       0.785  10.454  19.951  0.00  0.00    +0.000 A 
ATOM     20  C   UNL     1       1.072   9.093  20.092  0.00  0.00    +0.000 A 
BRANCH  19  21
ATOM     21  N   UNL     1       0.055  11.111  20.974  0.00  0.00    +0.000 N 
ATOM     22  C   UNL     1      -1.173  11.738  20.797  0.00  0.00    +0.000 C 
ATOM     23  O   UNL     1      -1.757  11.838  19.722  0.00  0.00    +0.000 OA
ATOM     24  H   UNL     1       0.523  11.223  21.866  0.00  0.00    +0.000 HD
BRANCH  22  25
ATOM     25  C   UNL     1      -1.790  12.318  22.075  0.00  0.00    +0.000 C 
ATOM     26  C   UNL     1      -3.273  12.632  21.902  0.00  0.00    +0.000 C 
ATOM     27  C   UNL     1      -1.609  11.317  23.223  0.00  0.00    +0.000 C 
ENDBRANCH  22  25
ENDBRANCH  19  21
ENDBRANCH   2  15
TORSDOF 6
ENDMDL
MODEL 8
REMARK VINA RESULT:      -7.2      2.341      7.999
REMARK  Name = 
REMARK  9 active torsions:
REMARK  status: ('A' for Active; 'I' for Inactive)
REMARK    1  A    between atoms: C_1  and  O_2
REMARK    2  A    between atoms: O_2  and  C_3
REMARK    3  A    between atoms: C_3  and  C_5
REMARK    4  A    between atoms: C_10  and  N_11
REMARK    5  A    between atoms: C_12  and  C_14
REMARK    6  A    between atoms: C_18  and  N_19
REMARK    7  A    between atoms: C_20  and  C_22
REMARK    8  A    between atoms: C_22  and  C_23
REMARK    9  A    between atoms: C_22  and  C_24
REMARK                            x       y       z     vdW  Elec       q    Type
REMARK                         _______ _______ _______ _____ _____    ______ ____
ROOT
ATOM      1  N   UNL     1       4.281   4.384  18.555  0.00  0.00    +0.000 N 
ATOM      2  C   UNL     1       4.051   4.059  17.222  0.00  0.00    +0.000 C 
ATOM      3  O   UNL     1       3.060   3.489  16.777  0.00  0.00    +0.000 OA
ATOM      4  H   UNL     1       4.988   5.088  18.757  0.00  0.00    +0.000 HD
ENDROOT
BRANCH   1  10
ATOM      5  C   UNL     1       2.557   4.863  20.281  0.00  0.00    +0.000 A 
ATOM      6  C   UNL     1       1.774   4.394  21.359  0.00  0.00    +0.000 A 
ATOM      7  C   UNL     1       1.897   3.090  21.835  0.00  0.00    +0.000 A 
ATOM      8  C   UNL     1       2.819   2.239  21.250  0.00  0.00    +0.000 A 
ATOM      9  C   UNL     1       3.604   2.686  20.185  0.00  0.00    +0.000 A 
ATOM     10  C   UNL     1       3.478   3.985  19.661  0.00  0.00    +0.000 A 
BRANCH   5  11
ATOM     11  C   UNL     1       2.274   6.277  19.885  0.00  0.00    +0.000 C 
ATOM     12  O   UNL     1       2.745   6.791  18.878  0.00  0.00    +0.000 OA
BRANCH  11  14
ATOM     13  C   UNL     1       1.506   8.344  20.637  0.00  0.00    +0.000 C 
ATOM     14  O   UNL     1       1.461   6.917  20.766  0.00  0.00    +0.000 OA
ENDBRANCH  11  14
ENDBRANCH   5  11
ENDBRANCH   1  10
BRANCH   2  15
ATOM     15  C   UNL     1       5.080   4.493  16.240  0.00  0.00    +0.000 A 
ATOM     16  C   UNL     1       5.785   5.688  16.408  0.00  0.00    +0.000 A 
ATOM     17  C   UNL     1       6.773   6.034  15.492  0.00  0.00    +0.000 A 
ATOM     18  C   UNL     1       7.053   5.196  14.411  0.00  0.00    +0.000 A 
ATOM     19  C   UNL     1       6.360   3.996  14.223  0.00  0.00    +0.000 A 
ATOM     20  C   UNL     1       5.389   3.636  15.162  0.00  0.00    +0.000 A 
BRANCH  19  21
ATOM     21  N   UNL     1       6.613   3.128  13.131  0.00  0.00    +0.000 N 
ATOM     22  C   UNL     1       5.740   2.908  12.072  0.00  0.00    +0.000 C 
ATOM     23  O   UNL     1       4.622   3.405  11.975  0.00  0.00    +0.000 OA
ATOM     24  H   UNL     1       7.442   2.547  13.193  0.00  0.00    +0.000 HD
BRANCH  22  25
ATOM     25  C   UNL     1       6.273   1.973  10.980  0.00  0.00    +0.000 C 
ATOM     26  C   UNL     1       7.794   2.033  10.871  0.00  0.00    +0.000 C 
ATOM     27  C   UNL     1       5.837   0.536  11.288  0.00  0.00    +0.000 C 
ENDBRANCH  22  25
ENDBRANCH  19  21
ENDBRANCH   2  15
TORSDOF 6
ENDMDL
MODEL 9
REMARK VINA RESULT:      -7.2      3.104      7.839
REMARK  Name = 
REMARK  9 active torsions:
REMARK  status: ('A' for Active; 'I' for Inactive)
REMARK    1  A    between atoms: C_1  and  O_2
REMARK    2  A    between atoms: O_2  and  C_3
REMARK    3  A    between atoms: C_3  and  C_5
REMARK    4  A    between atoms: C_10  and  N_11
REMARK    5  A    between atoms: C_12  and  C_14
REMARK    6  A    between atoms: C_18  and  N_19
REMARK    7  A    between atoms: C_20  and  C_22
REMARK    8  A    between atoms: C_22  and  C_23
REMARK    9  A    between atoms: C_22  and  C_24
REMARK                            x       y       z     vdW  Elec       q    Type
REMARK                         _______ _______ _______ _____ _____    ______ ____
ROOT
ATOM      1  N   UNL     1       0.718   8.990  18.622  0.00  0.00    +0.000 N 
ATOM      2  C   UNL     1       1.919   9.174  17.945  0.00  0.00    +0.000 C 
ATOM      3  O   UNL     1       2.355  10.238  17.521  0.00  0.00    +0.000 OA
ATOM      4  H   UNL     1       0.601   8.133  19.159  0.00  0.00    +0.000 HD
ENDROOT
BRANCH   1  10
ATOM      5  C   UNL     1      -0.359  10.765  19.989  0.00  0.00    +0.000 A 
ATOM      6  C   UNL     1      -1.370  11.745  20.104  0.00  0.00    +0.000 A 
ATOM      7  C   UNL     1      -2.309  11.944  19.094  0.00  0.00    +0.000 A 
ATOM      8  C   UNL     1      -2.263  11.153  17.959  0.00  0.00    +0.000 A 
ATOM      9  C   UNL     1      -1.271  10.178  17.829  0.00  0.00    +0.000 A 
ATOM     10  C   UNL     1      -0.289   9.978  18.815  0.00  0.00    +0.000 A 
BRANCH   5  11
ATOM     11  C   UNL     1       0.579  10.709  21.153  0.00  0.00    +0.000 C 
ATOM     12  O   UNL     1       1.280  11.656  21.486  0.00  0.00    +0.000 OA
BRANCH  11  14
ATOM     13  C   UNL     1       0.048   9.556  23.106  0.00  0.00    +0.000 C 
ATOM     14  O   UNL     1       0.574   9.501  21.773  0.00  0.00    +0.000 OA
ENDBRANCH  11  14
ENDBRANCH   5  11
ENDBRANCH   1  10
BRANCH   2  15
ATOM     15  C   UNL     1       2.779   7.973  17.770  0.00  0.00    +0.000 A 
ATOM     16  C   UNL     1       4.043   8.065  17.178  0.00  0.00    +0.000 A 
ATOM     17  C   UNL     1       4.835   6.926  17.077  0.00  0.00    +0.000 A 
ATOM     18  C   UNL     1       4.370   5.701  17.559  0.00  0.00    +0.000 A 
ATOM     19  C   UNL     1       3.110   5.586  18.155  0.00  0.00    +0.000 A 
ATOM     20  C   UNL     1       2.328   6.738  18.282  0.00  0.00    +0.000 A 
BRANCH  19  21
ATOM     21  N   UNL     1       2.603   4.355  18.645  0.00  0.00    +0.000 N 
ATOM     22  C   UNL     1       2.408   4.055  19.987  0.00  0.00    +0.000 C 
ATOM     23  O   UNL     1       2.693   4.802  20.919  0.00  0.00    +0.000 OA
ATOM     24  H   UNL     1       2.484   3.611  17.967  0.00  0.00    +0.000 HD
BRANCH  22  25
ATOM     25  C   UNL     1       1.785   2.679  20.256  0.00  0.00    +0.000 C 
ATOM     26  C   UNL     1       1.290   2.547  21.693  0.00  0.00    +0.000 C 
ATOM     27  C   UNL     1       0.615   2.458  19.289  0.00  0.00    +0.000 C 
ENDBRANCH  22  25
ENDBRANCH  19  21
ENDBRANCH   2  15
TORSDOF 6
ENDMDL
