MODEL 1
REMARK VINA RESULT:      -6.4      0.000      0.000
REMARK  Name = 
REMARK  8 active torsions:
REMARK  status: ('A' for Active; 'I' for Inactive)
REMARK    1  A    between atoms: C_1  and  O_2
REMARK    2  A    between atoms: O_2  and  C_3
REMARK    3  A    between atoms: C_6  and  N_7
REMARK    4  A    between atoms: C_8  and  S_9
REMARK    5  A    between atoms: C_20  and  C_21
REMARK    6  A    between atoms: C_22  and  C_23
REMARK    7  A    between atoms: N_25  and  C_26
REMARK    8  A    between atoms: N_25  and  C_27
REMARK                            x       y       z     vdW  Elec       q    Type
REMARK                         _______ _______ _______ _____ _____    ______ ____
ROOT
ATOM      1  N   UNL     1      -2.811  12.571  20.758  0.00  0.00    +0.000 N 
ATOM      2  C   UNL     1      -2.984  12.209  19.425  0.00  0.00    +0.000 C 
ATOM      3  N   UNL     1      -2.069  12.067  18.528  0.00  0.00    +0.000 NA
ATOM      4  C   UNL     1      -0.671  12.219  18.933  0.00  0.00    +0.000 C 
ATOM      5  C   UNL     1      -0.069  10.880  19.272  0.00  0.00    +0.000 A 
ATOM      6  C   UNL     1       0.830  10.241  18.415  0.00  0.00    +0.000 A 
ATOM      7  C   UNL     1       1.528   9.125  18.868  0.00  0.00    +0.000 A 
ATOM      8 CL   UNL     1       2.732   8.409  17.868  0.00  0.00    +0.000 Cl
ATOM      9  C   UNL     1       1.301   8.620  20.148  0.00  0.00    +0.000 A 
ATOM     10  C   UNL     1       0.359   9.230  20.981  0.00  0.00    +0.000 A 
ATOM     11  C   UNL     1      -0.309  10.371  20.549  0.00  0.00    +0.000 A 
ATOM     12  O   UNL     1      -1.114  11.009  21.454  0.00  0.00    +0.000 OA
ATOM     13  C   UNL     1      -1.374  12.430  21.252  0.00  0.00    +0.000 C 
ATOM     14  C   UNL     1      -1.122  13.059  22.643  0.00  0.00    +0.000 C 
ATOM     15  C   UNL     1      -0.473  13.103  20.166  0.00  0.00    +0.000 C 
ENDROOT
BRANCH   1  19
ATOM     16  C   UNL     1      -5.782  14.646  23.052  0.00  0.00    +0.000 A 
ATOM     17  C   UNL     1      -5.520  13.297  23.263  0.00  0.00    +0.000 A 
ATOM     18  C   UNL     1      -4.590  12.611  22.470  0.00  0.00    +0.000 A 
ATOM     19  C   UNL     1      -3.796  13.258  21.514  0.00  0.00    +0.000 A 
ATOM     20  C   UNL     1      -4.089  14.625  21.314  0.00  0.00    +0.000 A 
ATOM     21  C   UNL     1      -5.089  15.303  22.045  0.00  0.00    +0.000 A 
BRANCH  16  23
ATOM     22  C   UNL     1      -7.845  14.312  24.184  0.00  0.00    +0.000 C 
ATOM     23  O   UNL     1      -6.762  15.169  23.846  0.00  0.00    +0.000 OA
ENDBRANCH  16  23
ENDBRANCH   1  19
BRANCH  15  24
ATOM     24  C   UNL     1       1.032  13.178  20.518  0.00  0.00    +0.000 C 
ATOM     25  O   UNL     1       1.535  12.396  21.330  0.00  0.00    +0.000 OA
ATOM     26  N   UNL     1       1.850  14.110  19.887  0.00  0.00    +0.000 N 
ATOM     27  C   UNL     1       1.452  15.026  18.831  0.00  0.00    +0.000 C 
ATOM     28  C   UNL     1       3.292  14.006  20.105  0.00  0.00    +0.000 C 
ENDBRANCH  15  24
BRANCH   2  29
ATOM     29  S   UNL     1      -4.593  11.781  18.801  0.00  0.00    +0.000 S 
ATOM     30  H   UNL     1      -5.074  13.029  18.749  0.00  0.00    +0.000 HD
ENDBRANCH   2  29
TORSDOF 4
ENDMDL
MODEL 2
REMARK VINA RESULT:      -6.1      0.733      1.219
REMARK  Name = 
REMARK  8 active torsions:
REMARK  status: ('A' for Active; 'I' for Inactive)
REMARK    1  A    between atoms: C_1  and  O_2
REMARK    2  A    between atoms: O_2  and  C_3
REMARK    3  A    between atoms: C_6  and  N_7
REMARK    4  A    between atoms: C_8  and  S_9
REMARK    5  A    between atoms: C_20  and  C_21
REMARK    6  A    between atoms: C_22  and  C_23
REMARK    7  A    between atoms: N_25  and  C_26
REMARK    8  A    between atoms: N_25  and  C_27
REMARK                            x       y       z     vdW  Elec       q    Type
REMARK                         _______ _______ _______ _____ _____    ______ ____
ROOT
ATOM      1  N   UNL     1      -2.608  12.886  20.994  0.00  0.00    +0.000 N 
ATOM      2  C   UNL     1      -2.916  12.480  19.699  0.00  0.00    +0.000 C 
ATOM      3  N   UNL     1      -2.093  12.269  18.728  0.00  0.00    +0.000 NA
ATOM      4  C   UNL     1      -0.659  12.386  18.997  0.00  0.00    +0.000 C 
ATOM      5  C   UNL     1      -0.073  11.039  19.335  0.00  0.00    +0.000 A 
ATOM      6  C   UNL     1       0.721  10.335  18.426  0.00  0.00    +0.000 A 
ATOM      7  C   UNL     1       1.421   9.213  18.860  0.00  0.00    +0.000 A 
ATOM      8 CL   UNL     1       2.503   8.415  17.785  0.00  0.00    +0.000 Cl
ATOM      9  C   UNL     1       1.297   8.766  20.175  0.00  0.00    +0.000 A 
ATOM     10  C   UNL     1       0.457   9.440  21.064  0.00  0.00    +0.000 A 
ATOM     11  C   UNL     1      -0.211  10.589  20.648  0.00  0.00    +0.000 A 
ATOM     12  O   UNL     1      -0.907  11.289  21.596  0.00  0.00    +0.000 OA
ATOM     13  C   UNL     1      -1.137  12.711  21.360  0.00  0.00    +0.000 C 
ATOM     14  C   UNL     1      -0.736  13.383  22.695  0.00  0.00    +0.000 C 
ATOM     15  C   UNL     1      -0.319  13.308  20.169  0.00  0.00    +0.000 C 
ENDROOT
BRANCH   1  19
ATOM     16  C   UNL     1      -5.299  15.155  23.443  0.00  0.00    +0.000 A 
ATOM     17  C   UNL     1      -4.575  15.755  22.420  0.00  0.00    +0.000 A 
ATOM     18  C   UNL     1      -3.654  15.020  21.662  0.00  0.00    +0.000 A 
ATOM     19  C   UNL     1      -3.496  13.636  21.807  0.00  0.00    +0.000 A 
ATOM     20  C   UNL     1      -4.236  13.053  22.859  0.00  0.00    +0.000 A 
ATOM     21  C   UNL     1      -5.098  13.803  23.688  0.00  0.00    +0.000 A 
BRANCH  16  23
ATOM     22  C   UNL     1      -5.519  17.210  24.616  0.00  0.00    +0.000 C 
ATOM     23  O   UNL     1      -6.105  16.003  24.147  0.00  0.00    +0.000 OA
ENDBRANCH  16  23
ENDBRANCH   1  19
BRANCH  15  24
ATOM     24  C   UNL     1       1.214  13.341  20.379  0.00  0.00    +0.000 C 
ATOM     25  O   UNL     1       1.777  12.504  21.091  0.00  0.00    +0.000 OA
ATOM     26  N   UNL     1       1.986  14.299  19.729  0.00  0.00    +0.000 N 
ATOM     27  C   UNL     1       1.508  15.283  18.773  0.00  0.00    +0.000 C 
ATOM     28  C   UNL     1       3.440  14.163  19.801  0.00  0.00    +0.000 C 
ENDBRANCH  15  24
BRANCH   2  29
ATOM     29  S   UNL     1      -4.589  12.087  19.242  0.00  0.00    +0.000 S 
ATOM     30  H   UNL     1      -4.627  12.842  18.137  0.00  0.00    +0.000 HD
ENDBRANCH   2  29
TORSDOF 4
ENDMDL
MODEL 3
REMARK VINA RESULT:      -5.7      1.706      2.073
REMARK  Name = 
REMARK  8 active torsions:
REMARK  status: ('A' for Active; 'I' for Inactive)
REMARK    1  A    between atoms: C_1  and  O_2
REMARK    2  A    between atoms: O_2  and  C_3
REMARK    3  A    between atoms: C_6  and  N_7
REMARK    4  A    between atoms: C_8  and  S_9
REMARK    5  A    between atoms: C_20  and  C_21
REMARK    6  A    between atoms: C_22  and  C_23
REMARK    7  A    between atoms: N_25  and  C_26
REMARK    8  A    between atoms: N_25  and  C_27
REMARK                            x       y       z     vdW  Elec       q    Type
REMARK                         _______ _______ _______ _____ _____    ______ ____
ROOT
ATOM      1  N   UNL     1      -3.552  13.669  21.708  0.00  0.00    +0.000 N 
ATOM      2  C   UNL     1      -3.817  12.851  20.613  0.00  0.00    +0.000 C 
ATOM      3  N   UNL     1      -2.960  12.292  19.829  0.00  0.00    +0.000 NA
ATOM      4  C   UNL     1      -1.537  12.448  20.132  0.00  0.00    +0.000 C 
ATOM      5  C   UNL     1      -1.039  11.283  20.948  0.00  0.00    +0.000 A 
ATOM      6  C   UNL     1      -0.240  10.283  20.389  0.00  0.00    +0.000 A 
ATOM      7  C   UNL     1       0.378   9.357  21.225  0.00  0.00    +0.000 A 
ATOM      8 CL   UNL     1       1.468   8.203  20.560  0.00  0.00    +0.000 Cl
ATOM      9  C   UNL     1       0.167   9.396  22.603  0.00  0.00    +0.000 A 
ATOM     10  C   UNL     1      -0.679  10.363  23.151  0.00  0.00    +0.000 A 
ATOM     11  C   UNL     1      -1.264  11.318  22.325  0.00  0.00    +0.000 A 
ATOM     12  O   UNL     1      -1.969  12.325  22.929  0.00  0.00    +0.000 OA
ATOM     13  C   UNL     1      -2.112  13.584  22.205  0.00  0.00    +0.000 C 
ATOM     14  C   UNL     1      -1.743  14.662  23.252  0.00  0.00    +0.000 C 
ATOM     15  C   UNL     1      -1.207  13.707  20.937  0.00  0.00    +0.000 C 
ENDROOT
BRANCH   1  19
ATOM     16  C   UNL     1      -6.223  16.735  23.072  0.00  0.00    +0.000 A 
ATOM     17  C   UNL     1      -6.057  15.554  23.785  0.00  0.00    +0.000 A 
ATOM     18  C   UNL     1      -5.227  14.532  23.303  0.00  0.00    +0.000 A 
ATOM     19  C   UNL     1      -4.438  14.682  22.156  0.00  0.00    +0.000 A 
ATOM     20  C   UNL     1      -4.634  15.887  21.445  0.00  0.00    +0.000 A 
ATOM     21  C   UNL     1      -5.536  16.885  21.874  0.00  0.00    +0.000 A 
BRANCH  16  23
ATOM     22  C   UNL     1      -7.916  18.364  22.717  0.00  0.00    +0.000 C 
ATOM     23  O   UNL     1      -7.114  17.612  23.618  0.00  0.00    +0.000 OA
ENDBRANCH  16  23
ENDBRANCH   1  19
BRANCH  15  24
ATOM     24  C   UNL     1       0.314  13.761  21.220  0.00  0.00    +0.000 C 
ATOM     25  O   UNL     1       0.751  13.646  22.369  0.00  0.00    +0.000 OA
ATOM     26  N   UNL     1       1.215  13.899  20.169  0.00  0.00    +0.000 N 
ATOM     27  C   UNL     1       0.884  13.933  18.754  0.00  0.00    +0.000 C 
ATOM     28  C   UNL     1       2.637  13.743  20.468  0.00  0.00    +0.000 C 
ENDBRANCH  15  24
BRANCH   2  29
ATOM     29  S   UNL     1      -5.484  12.379  20.213  0.00  0.00    +0.000 S 
ATOM     30  H   UNL     1      -5.269  11.059  20.196  0.00  0.00    +0.000 HD
ENDBRANCH   2  29
TORSDOF 4
ENDMDL
MODEL 4
REMARK VINA RESULT:      -5.7      3.660      7.647
REMARK  Name = 
REMARK  8 active torsions:
REMARK  status: ('A' for Active; 'I' for Inactive)
REMARK    1  A    between atoms: C_1  and  O_2
REMARK    2  A    between atoms: O_2  and  C_3
REMARK    3  A    between atoms: C_6  and  N_7
REMARK    4  A    between atoms: C_8  and  S_9
REMARK    5  A    between atoms: C_20  and  C_21
REMARK    6  A    between atoms: C_22  and  C_23
REMARK    7  A    between atoms: N_25  and  C_26
REMARK    8  A    between atoms: N_25  and  C_27
REMARK                            x       y       z     vdW  Elec       q    Type
REMARK                         _______ _______ _______ _____ _____    ______ ____
ROOT
ATOM      1  N   UNL     1      -1.266  12.950  21.256  0.00  0.00    +0.000 N 
ATOM      2  C   UNL     1      -1.507  14.150  20.594  0.00  0.00    +0.000 C 
ATOM      3  N   UNL     1      -2.496  14.958  20.774  0.00  0.00    +0.000 NA
ATOM      4  C   UNL     1      -3.456  14.653  21.836  0.00  0.00    +0.000 C 
ATOM      5  C   UNL     1      -3.083  15.369  23.108  0.00  0.00    +0.000 A 
ATOM      6  C   UNL     1      -3.790  16.488  23.556  0.00  0.00    +0.000 A 
ATOM      7  C   UNL     1      -3.555  16.974  24.839  0.00  0.00    +0.000 A 
ATOM      8 CL   UNL     1      -4.511  18.269  25.448  0.00  0.00    +0.000 Cl
ATOM      9  C   UNL     1      -2.592  16.382  25.655  0.00  0.00    +0.000 A 
ATOM     10  C   UNL     1      -1.848  15.298  25.182  0.00  0.00    +0.000 A 
ATOM     11  C   UNL     1      -2.109  14.780  23.917  0.00  0.00    +0.000 A 
ATOM     12  O   UNL     1      -1.452  13.634  23.558  0.00  0.00    +0.000 OA
ATOM     13  C   UNL     1      -2.067  12.785  22.544  0.00  0.00    +0.000 C 
ATOM     14  C   UNL     1      -1.998  11.364  23.151  0.00  0.00    +0.000 C 
ATOM     15  C   UNL     1      -3.542  13.167  22.190  0.00  0.00    +0.000 C 
ENDROOT
BRANCH   1  19
ATOM     16  C   UNL     1       0.863   9.667  19.499  0.00  0.00    +0.000 A 
ATOM     17  C   UNL     1       1.358  10.334  20.614  0.00  0.00    +0.000 A 
ATOM     18  C   UNL     1       0.687  11.443  21.147  0.00  0.00    +0.000 A 
ATOM     19  C   UNL     1      -0.561  11.866  20.671  0.00  0.00    +0.000 A 
ATOM     20  C   UNL     1      -1.036  11.178  19.533  0.00  0.00    +0.000 A 
ATOM     21  C   UNL     1      -0.322  10.118  18.933  0.00  0.00    +0.000 A 
BRANCH  16  23
ATOM     22  C   UNL     1       2.130   8.757  17.707  0.00  0.00    +0.000 C 
ATOM     23  O   UNL     1       1.653   8.653  19.042  0.00  0.00    +0.000 OA
ENDBRANCH  16  23
ENDBRANCH   1  19
BRANCH  15  24
ATOM     24  C   UNL     1      -4.564  12.960  23.333  0.00  0.00    +0.000 C 
ATOM     25  O   UNL     1      -4.191  12.808  24.500  0.00  0.00    +0.000 OA
ATOM     26  N   UNL     1      -5.928  12.987  23.061  0.00  0.00    +0.000 N 
ATOM     27  C   UNL     1      -6.542  13.266  21.774  0.00  0.00    +0.000 C 
ATOM     28  C   UNL     1      -6.847  12.988  24.198  0.00  0.00    +0.000 C 
ENDBRANCH  15  24
BRANCH   2  29
ATOM     29  S   UNL     1      -0.340  14.790  19.415  0.00  0.00    +0.000 S 
ATOM     30  H   UNL     1      -1.128  15.754  18.927  0.00  0.00    +0.000 HD
ENDBRANCH   2  29
TORSDOF 4
ENDMDL
MODEL 5
REMARK VINA RESULT:      -5.7      3.597      7.514
REMARK  Name = 
REMARK  8 active torsions:
REMARK  status: ('A' for Active; 'I' for Inactive)
REMARK    1  A    between atoms: C_1  and  O_2
REMARK    2  A    between atoms: O_2  and  C_3
REMARK    3  A    between atoms: C_6  and  N_7
REMARK    4  A    between atoms: C_8  and  S_9
REMARK    5  A    between atoms: C_20  and  C_21
REMARK    6  A    between atoms: C_22  and  C_23
REMARK    7  A    between atoms: N_25  and  C_26
REMARK    8  A    between atoms: N_25  and  C_27
REMARK                            x       y       z     vdW  Elec       q    Type
REMARK                         _______ _______ _______ _____ _____    ______ ____
ROOT
ATOM      1  N   UNL     1      -1.033  13.098  20.707  0.00  0.00    +0.000 N 
ATOM      2  C   UNL     1      -1.348  14.344  20.174  0.00  0.00    +0.000 C 
ATOM      3  N   UNL     1      -2.333  15.109  20.500  0.00  0.00    +0.000 NA
ATOM      4  C   UNL     1      -3.200  14.691  21.603  0.00  0.00    +0.000 C 
ATOM      5  C   UNL     1      -2.738  15.305  22.900  0.00  0.00    +0.000 A 
ATOM      6  C   UNL     1      -3.426  16.364  23.497  0.00  0.00    +0.000 A 
ATOM      7  C   UNL     1      -3.097  16.745  24.795  0.00  0.00    +0.000 A 
ATOM      8 CL   UNL     1      -4.024  17.960  25.587  0.00  0.00    +0.000 Cl
ATOM      9  C   UNL     1      -2.062  16.108  25.479  0.00  0.00    +0.000 A 
ATOM     10  C   UNL     1      -1.340  15.088  24.856  0.00  0.00    +0.000 A 
ATOM     11  C   UNL     1      -1.692  14.673  23.575  0.00  0.00    +0.000 A 
ATOM     12  O   UNL     1      -1.046  13.579  23.068  0.00  0.00    +0.000 OA
ATOM     13  C   UNL     1      -1.726  12.804  22.035  0.00  0.00    +0.000 C 
ATOM     14  C   UNL     1      -1.583  11.338  22.509  0.00  0.00    +0.000 C 
ATOM     15  C   UNL     1      -3.230  13.178  21.832  0.00  0.00    +0.000 C 
ENDROOT
BRANCH   1  19
ATOM     16  C   UNL     1       1.005  10.044  18.490  0.00  0.00    +0.000 A 
ATOM     17  C   UNL     1      -0.369  10.221  18.378  0.00  0.00    +0.000 A 
ATOM     18  C   UNL     1      -1.037  11.182  19.149  0.00  0.00    +0.000 A 
ATOM     19  C   UNL     1      -0.359  12.085  19.977  0.00  0.00    +0.000 A 
ATOM     20  C   UNL     1       1.035  11.877  20.080  0.00  0.00    +0.000 A 
ATOM     21  C   UNL     1       1.704  10.852  19.377  0.00  0.00    +0.000 A 
BRANCH  16  23
ATOM     22  C   UNL     1       2.266   8.031  18.419  0.00  0.00    +0.000 C 
ATOM     23  O   UNL     1       1.514   9.026  17.737  0.00  0.00    +0.000 OA
ENDBRANCH  16  23
ENDBRANCH   1  19
BRANCH  15  24
ATOM     24  C   UNL     1      -4.154  12.851  23.030  0.00  0.00    +0.000 C 
ATOM     25  O   UNL     1      -3.684  12.541  24.129  0.00  0.00    +0.000 OA
ATOM     26  N   UNL     1      -5.535  12.943  22.891  0.00  0.00    +0.000 N 
ATOM     27  C   UNL     1      -6.250  13.400  21.711  0.00  0.00    +0.000 C 
ATOM     28  C   UNL     1      -6.349  12.820  24.098  0.00  0.00    +0.000 C 
ENDBRANCH  15  24
BRANCH   2  29
ATOM     29  S   UNL     1      -0.290  15.110  18.967  0.00  0.00    +0.000 S 
ATOM     30  H   UNL     1       0.100  16.134  19.734  0.00  0.00    +0.000 HD
ENDBRANCH   2  29
TORSDOF 4
ENDMDL
MODEL 6
REMARK VINA RESULT:      -5.7      3.406      7.080
REMARK  Name = 
REMARK  8 active torsions:
REMARK  status: ('A' for Active; 'I' for Inactive)
REMARK    1  A    between atoms: C_1  and  O_2
REMARK    2  A    between atoms: O_2  and  C_3
REMARK    3  A    between atoms: C_6  and  N_7
REMARK    4  A    between atoms: C_8  and  S_9
REMARK    5  A    between atoms: C_20  and  C_21
REMARK    6  A    between atoms: C_22  and  C_23
REMARK    7  A    between atoms: N_25  and  C_26
REMARK    8  A    between atoms: N_25  and  C_27
REMARK                            x       y       z     vdW  Elec       q    Type
REMARK                         _______ _______ _______ _____ _____    ______ ____
ROOT
ATOM      1  N   UNL     1      -0.237  11.443  19.559  0.00  0.00    +0.000 N 
ATOM      2  C   UNL     1      -1.607  11.467  19.313  0.00  0.00    +0.000 C 
ATOM      3  N   UNL     1      -2.496  12.186  19.908  0.00  0.00    +0.000 NA
ATOM      4  C   UNL     1      -2.048  13.154  20.910  0.00  0.00    +0.000 C 
ATOM      5  C   UNL     1      -1.861  14.513  20.286  0.00  0.00    +0.000 A 
ATOM      6  C   UNL     1      -2.770  15.551  20.499  0.00  0.00    +0.000 A 
ATOM      7  C   UNL     1      -2.440  16.841  20.092  0.00  0.00    +0.000 A 
ATOM      8 CL   UNL     1      -3.495  18.149  20.466  0.00  0.00    +0.000 Cl
ATOM      9  C   UNL     1      -1.235  17.089  19.436  0.00  0.00    +0.000 A 
ATOM     10  C   UNL     1      -0.354  16.037  19.175  0.00  0.00    +0.000 A 
ATOM     11  C   UNL     1      -0.659  14.754  19.618  0.00  0.00    +0.000 A 
ATOM     12  O   UNL     1       0.300  13.790  19.461  0.00  0.00    +0.000 OA
ATOM     13  C   UNL     1       0.265  12.641  20.360  0.00  0.00    +0.000 C 
ATOM     14  C   UNL     1       1.726  12.503  20.851  0.00  0.00    +0.000 C 
ATOM     15  C   UNL     1      -0.714  12.797  21.569  0.00  0.00    +0.000 C 
ENDROOT
BRANCH   1  19
ATOM     16  C   UNL     1       2.210   7.987  18.877  0.00  0.00    +0.000 A 
ATOM     17  C   UNL     1       1.527   8.162  20.074  0.00  0.00    +0.000 A 
ATOM     18  C   UNL     1       0.777   9.322  20.313  0.00  0.00    +0.000 A 
ATOM     19  C   UNL     1       0.576  10.302  19.334  0.00  0.00    +0.000 A 
ATOM     20  C   UNL     1       1.288  10.105  18.130  0.00  0.00    +0.000 A 
ATOM     21  C   UNL     1       2.120   8.985  17.915  0.00  0.00    +0.000 A 
BRANCH  16  23
ATOM     22  C   UNL     1       2.484   5.718  19.525  0.00  0.00    +0.000 C 
ATOM     23  O   UNL     1       2.959   6.849  18.806  0.00  0.00    +0.000 OA
ENDBRANCH  16  23
ENDBRANCH   1  19
BRANCH  15  24
ATOM     24  C   UNL     1      -0.326  13.893  22.589  0.00  0.00    +0.000 C 
ATOM     25  O   UNL     1       0.731  14.520  22.477  0.00  0.00    +0.000 OA
ATOM     26  N   UNL     1      -1.192  14.215  23.630  0.00  0.00    +0.000 N 
ATOM     27  C   UNL     1      -2.518  13.662  23.845  0.00  0.00    +0.000 C 
ATOM     28  C   UNL     1      -0.872  15.388  24.442  0.00  0.00    +0.000 C 
ENDBRANCH  15  24
BRANCH   2  29
ATOM     29  S   UNL     1      -2.309  10.509  17.990  0.00  0.00    +0.000 S 
ATOM     30  H   UNL     1      -3.317   9.986  18.698  0.00  0.00    +0.000 HD
ENDBRANCH   2  29
TORSDOF 4
ENDMDL
MODEL 7
REMARK VINA RESULT:      -5.6      1.732      2.242
REMARK  Name = 
REMARK  8 active torsions:
REMARK  status: ('A' for Active; 'I' for Inactive)
REMARK    1  A    between atoms: C_1  and  O_2
REMARK    2  A    between atoms: O_2  and  C_3
REMARK    3  A    between atoms: C_6  and  N_7
REMARK    4  A    between atoms: C_8  and  S_9
REMARK    5  A    between atoms: C_20  and  C_21
REMARK    6  A    between atoms: C_22  and  C_23
REMARK    7  A    between atoms: N_25  and  C_26
REMARK    8  A    between atoms: N_25  and  C_27
REMARK                            x       y       z     vdW  Elec       q    Type
REMARK                         _______ _______ _______ _____ _____    ______ ____
ROOT
ATOM      1  N   UNL     1      -3.521  13.667  21.213  0.00  0.00    +0.000 N 
ATOM      2  C   UNL     1      -3.696  12.779  20.155  0.00  0.00    +0.000 C 
ATOM      3  N   UNL     1      -2.779  12.169  19.486  0.00  0.00    +0.000 NA
ATOM      4  C   UNL     1      -1.386  12.343  19.901  0.00  0.00    +0.000 C 
ATOM      5  C   UNL     1      -0.968  11.233  20.831  0.00  0.00    +0.000 A 
ATOM      6  C   UNL     1      -0.130  10.197  20.410  0.00  0.00    +0.000 A 
ATOM      7  C   UNL     1       0.407   9.328  21.355  0.00  0.00    +0.000 A 
ATOM      8 CL   UNL     1       1.542   8.131  20.864  0.00  0.00    +0.000 Cl
ATOM      9  C   UNL     1       0.078   9.458  22.704  0.00  0.00    +0.000 A 
ATOM     10  C   UNL     1      -0.805  10.460  23.112  0.00  0.00    +0.000 A 
ATOM     11  C   UNL     1      -1.311  11.359  22.178  0.00  0.00    +0.000 A 
ATOM     12  O   UNL     1      -2.058  12.404  22.651  0.00  0.00    +0.000 OA
ATOM     13  C   UNL     1      -2.129  13.613  21.837  0.00  0.00    +0.000 C 
ATOM     14  C   UNL     1      -1.844  14.758  22.839  0.00  0.00    +0.000 C 
ATOM     15  C   UNL     1      -1.117  13.651  20.646  0.00  0.00    +0.000 C 
ENDROOT
BRANCH   1  19
ATOM     16  C   UNL     1      -6.292  16.813  22.117  0.00  0.00    +0.000 A 
ATOM     17  C   UNL     1      -5.445  16.892  21.018  0.00  0.00    +0.000 A 
ATOM     18  C   UNL     1      -4.501  15.888  20.762  0.00  0.00    +0.000 A 
ATOM     19  C   UNL     1      -4.435  14.709  21.515  0.00  0.00    +0.000 A 
ATOM     20  C   UNL     1      -5.300  14.659  22.631  0.00  0.00    +0.000 A 
ATOM     21  C   UNL     1      -6.190  15.707  22.950  0.00  0.00    +0.000 A 
BRANCH  16  23
ATOM     22  C   UNL     1      -7.177  18.451  23.594  0.00  0.00    +0.000 C 
ATOM     23  O   UNL     1      -7.109  17.893  22.288  0.00  0.00    +0.000 OA
ENDBRANCH  16  23
ENDBRANCH   1  19
BRANCH  15  24
ATOM     24  C   UNL     1       0.373  13.722  21.056  0.00  0.00    +0.000 C 
ATOM     25  O   UNL     1       0.710  13.669  22.243  0.00  0.00    +0.000 OA
ATOM     26  N   UNL     1       1.361  13.805  20.080  0.00  0.00    +0.000 N 
ATOM     27  C   UNL     1       1.154  13.763  18.642  0.00  0.00    +0.000 C 
ATOM     28  C   UNL     1       2.752  13.667  20.508  0.00  0.00    +0.000 C 
ENDBRANCH  15  24
BRANCH   2  29
ATOM     29  S   UNL     1      -5.325  12.284  19.644  0.00  0.00    +0.000 S 
ATOM     30  H   UNL     1      -5.971  13.343  20.147  0.00  0.00    +0.000 HD
ENDBRANCH   2  29
TORSDOF 4
ENDMDL
MODEL 8
REMARK VINA RESULT:      -5.5      3.532      7.365
REMARK  Name = 
REMARK  8 active torsions:
REMARK  status: ('A' for Active; 'I' for Inactive)
REMARK    1  A    between atoms: C_1  and  O_2
REMARK    2  A    between atoms: O_2  and  C_3
REMARK    3  A    between atoms: C_6  and  N_7
REMARK    4  A    between atoms: C_8  and  S_9
REMARK    5  A    between atoms: C_20  and  C_21
REMARK    6  A    between atoms: C_22  and  C_23
REMARK    7  A    between atoms: N_25  and  C_26
REMARK    8  A    between atoms: N_25  and  C_27
REMARK                            x       y       z     vdW  Elec       q    Type
REMARK                         _______ _______ _______ _____ _____    ______ ____
ROOT
ATOM      1  N   UNL     1      -0.325  13.179  21.128  0.00  0.00    +0.000 N 
ATOM      2  C   UNL     1      -0.489  12.094  21.984  0.00  0.00    +0.000 C 
ATOM      3  N   UNL     1      -1.193  12.048  23.063  0.00  0.00    +0.000 NA
ATOM      4  C   UNL     1      -1.987  13.223  23.424  0.00  0.00    +0.000 C 
ATOM      5  C   UNL     1      -3.395  13.090  22.904  0.00  0.00    +0.000 A 
ATOM      6  C   UNL     1      -4.467  12.797  23.751  0.00  0.00    +0.000 A 
ATOM      7  C   UNL     1      -5.768  12.908  23.268  0.00  0.00    +0.000 A 
ATOM      8 CL   UNL     1      -7.096  12.678  24.338  0.00  0.00    +0.000 Cl
ATOM      9  C   UNL     1      -6.002  13.263  21.940  0.00  0.00    +0.000 A 
ATOM     10  C   UNL     1      -4.926  13.499  21.082  0.00  0.00    +0.000 A 
ATOM     11  C   UNL     1      -3.624  13.433  21.570  0.00  0.00    +0.000 A 
ATOM     12  O   UNL     1      -2.615  13.810  20.725  0.00  0.00    +0.000 OA
ATOM     13  C   UNL     1      -1.368  14.277  21.320  0.00  0.00    +0.000 C 
ATOM     14  C   UNL     1      -1.053  15.585  20.556  0.00  0.00    +0.000 C 
ATOM     15  C   UNL     1      -1.444  14.538  22.860  0.00  0.00    +0.000 C 
ENDROOT
BRANCH   1  19
ATOM     16  C   UNL     1       3.196  13.787  18.757  0.00  0.00    +0.000 A 
ATOM     17  C   UNL     1       3.185  14.071  20.117  0.00  0.00    +0.000 A 
ATOM     18  C   UNL     1       2.014  13.926  20.874  0.00  0.00    +0.000 A 
ATOM     19  C   UNL     1       0.838  13.383  20.342  0.00  0.00    +0.000 A 
ATOM     20  C   UNL     1       0.873  13.112  18.956  0.00  0.00    +0.000 A 
ATOM     21  C   UNL     1       2.021  13.342  18.166  0.00  0.00    +0.000 A 
BRANCH  16  23
ATOM     22  C   UNL     1       4.640  15.391  17.762  0.00  0.00    +0.000 C 
ATOM     23  O   UNL     1       4.381  14.042  18.129  0.00  0.00    +0.000 OA
ENDBRANCH  16  23
ENDBRANCH   1  19
BRANCH  15  24
ATOM     24  C   UNL     1      -2.367  15.706  23.281  0.00  0.00    +0.000 C 
ATOM     25  O   UNL     1      -3.078  16.285  22.455  0.00  0.00    +0.000 OA
ATOM     26  N   UNL     1      -2.435  16.094  24.616  0.00  0.00    +0.000 N 
ATOM     27  C   UNL     1      -1.758  15.455  25.732  0.00  0.00    +0.000 C 
ATOM     28  C   UNL     1      -3.465  17.062  24.990  0.00  0.00    +0.000 C 
ENDBRANCH  15  24
BRANCH   2  29
ATOM     29  S   UNL     1       0.233  10.515  21.599  0.00  0.00    +0.000 S 
ATOM     30  H   UNL     1       0.935  10.923  20.535  0.00  0.00    +0.000 HD
ENDBRANCH   2  29
TORSDOF 4
ENDMDL
MODEL 9
REMARK VINA RESULT:      -5.5      2.736      4.421
REMARK  Name = 
REMARK  8 active torsions:
REMARK  status: ('A' for Active; 'I' for Inactive)
REMARK    1  A    between atoms: C_1  and  O_2
REMARK    2  A    between atoms: O_2  and  C_3
REMARK    3  A    between atoms: C_6  and  N_7
REMARK    4  A    between atoms: C_8  and  S_9
REMARK    5  A    between atoms: C_20  and  C_21
REMARK    6  A    between atoms: C_22  and  C_23
REMARK    7  A    between atoms: N_25  and  C_26
REMARK    8  A    between atoms: N_25  and  C_27
REMARK                            x       y       z     vdW  Elec       q    Type
REMARK                         _______ _______ _______ _____ _____    ______ ____
ROOT
ATOM      1  N   UNL     1      -1.946  14.111  22.299  0.00  0.00    +0.000 N 
ATOM      2  C   UNL     1      -0.879  14.589  23.054  0.00  0.00    +0.000 C 
ATOM      3  N   UNL     1       0.379  14.453  22.804  0.00  0.00    +0.000 NA
ATOM      4  C   UNL     1       0.771  13.794  21.558  0.00  0.00    +0.000 C 
ATOM      5  C   UNL     1       1.014  14.813  20.474  0.00  0.00    +0.000 A 
ATOM      6  C   UNL     1       2.305  15.144  20.054  0.00  0.00    +0.000 A 
ATOM      7  C   UNL     1       2.471  15.914  18.906  0.00  0.00    +0.000 A 
ATOM      8 CL   UNL     1       4.055  16.218  18.306  0.00  0.00    +0.000 Cl
ATOM      9  C   UNL     1       1.363  16.390  18.206  0.00  0.00    +0.000 A 
ATOM     10  C   UNL     1       0.074  16.103  18.664  0.00  0.00    +0.000 A 
ATOM     11  C   UNL     1      -0.098  15.298  19.785  0.00  0.00    +0.000 A 
ATOM     12  O   UNL     1      -1.378  14.933  20.107  0.00  0.00    +0.000 OA
ATOM     13  C   UNL     1      -1.563  13.708  20.878  0.00  0.00    +0.000 C 
ATOM     14  C   UNL     1      -2.676  12.949  20.117  0.00  0.00    +0.000 C 
ATOM     15  C   UNL     1      -0.279  12.826  21.008  0.00  0.00    +0.000 C 
ENDROOT
BRANCH   1  19
ATOM     16  C   UNL     1      -5.758  13.083  23.975  0.00  0.00    +0.000 A 
ATOM     17  C   UNL     1      -5.617  14.163  23.111  0.00  0.00    +0.000 A 
ATOM     18  C   UNL     1      -4.359  14.529  22.614  0.00  0.00    +0.000 A 
ATOM     19  C   UNL     1      -3.206  13.772  22.857  0.00  0.00    +0.000 A 
ATOM     20  C   UNL     1      -3.374  12.686  23.745  0.00  0.00    +0.000 A 
ATOM     21  C   UNL     1      -4.621  12.365  24.324  0.00  0.00    +0.000 A 
BRANCH  16  23
ATOM     22  C   UNL     1      -7.916  13.990  24.381  0.00  0.00    +0.000 C 
ATOM     23  O   UNL     1      -7.025  12.884  24.440  0.00  0.00    +0.000 OA
ENDBRANCH  16  23
ENDBRANCH   1  19
BRANCH  15  24
ATOM     24  C   UNL     1       0.227  12.205  19.684  0.00  0.00    +0.000 C 
ATOM     25  O   UNL     1       0.184  12.842  18.626  0.00  0.00    +0.000 OA
ATOM     26  N   UNL     1       0.777  10.928  19.678  0.00  0.00    +0.000 N 
ATOM     27  C   UNL     1       1.009  10.087  20.841  0.00  0.00    +0.000 C 
ATOM     28  C   UNL     1       1.419  10.470  18.447  0.00  0.00    +0.000 C 
ENDBRANCH  15  24
BRANCH   2  29
ATOM     29  S   UNL     1      -1.161  15.592  24.494  0.00  0.00    +0.000 S 
ATOM     30  H   UNL     1      -2.329  15.038  24.840  0.00  0.00    +0.000 HD
ENDBRANCH   2  29
TORSDOF 4
ENDMDL
