MODEL 1
REMARK VINA RESULT:      -7.5      0.000      0.000
REMARK  Name = 
REMARK  12 active torsions:
REMARK  status: ('A' for Active; 'I' for Inactive)
REMARK    1  A    between atoms: C_1  and  C_2
REMARK    2  A    between atoms: C_2  and  C_3
REMARK    3  A    between atoms: C_9  and  N_10
REMARK    4  A    between atoms: C_11  and  C_13
REMARK    5  A    between atoms: C_13  and  C_14
REMARK    6  A    between atoms: C_14  and  C_15
REMARK    7  A    between atoms: C_14  and  C_16
REMARK    8  A    between atoms: C_16  and  C_17
REMARK    9  A    between atoms: C_17  and  O_19
REMARK   10  A    between atoms: C_20  and  C_21
REMARK   11  A    between atoms: N_23  and  C_24
REMARK   12  A    between atoms: C_24  and  C_25
REMARK                            x       y       z     vdW  Elec       q    Type
REMARK                         _______ _______ _______ _____ _____    ______ ____
ROOT
ATOM      1  C   UNL     1       1.880   3.853  18.665  0.00  0.00    +0.000 C 
ATOM      2  C   UNL     1       2.191   3.285  17.257  0.00  0.00    +0.000 C 
ATOM      3  C   UNL     1       3.662   3.489  16.818  0.00  0.00    +0.000 C 
ATOM      4  C   UNL     1       4.162   4.882  17.128  0.00  0.00    +0.000 A 
ATOM      5  C   UNL     1       3.456   5.696  17.988  0.00  0.00    +0.000 A 
ATOM      6  S   UNL     1       4.166   7.214  18.180  0.00  0.00    +0.000 S 
ATOM      7  C   UNL     1       5.493   6.820  17.185  0.00  0.00    +0.000 A 
ATOM      8  C   UNL     1       5.379   5.537  16.638  0.00  0.00    +0.000 A 
ATOM      9  C   UNL     1       2.158   5.375  18.670  0.00  0.00    +0.000 C 
ENDROOT
BRANCH   7  10
ATOM     10  N   UNL     1       6.510   7.765  17.006  0.00  0.00    +0.000 N 
ATOM     11  C   UNL     1       7.691   7.852  17.731  0.00  0.00    +0.000 C 
ATOM     12  O   UNL     1       8.102   7.074  18.589  0.00  0.00    +0.000 OA
ATOM     13  H   UNL     1       6.412   8.355  16.188  0.00  0.00    +0.000 HD
BRANCH  11  14
ATOM     14  C   UNL     1       8.533   9.086  17.421  0.00  0.00    +0.000 C 
BRANCH  14  15
ATOM     15  C   UNL     1       8.382  10.207  18.473  0.00  0.00    +0.000 C 
ATOM     16  C   UNL     1       9.523  10.240  19.494  0.00  0.00    +0.000 C 
BRANCH  15  17
ATOM     17  C   UNL     1       8.324  11.601  17.812  0.00  0.00    +0.000 C 
BRANCH  17  18
ATOM     18  C   UNL     1       9.575  12.380  18.064  0.00  0.00    +0.000 C 
ATOM     19  O   UNL     1      10.577  12.251  17.380  0.00  0.00    +0.000 OA
BRANCH  18  20
ATOM     20  O   UNL     1       9.495  13.256  19.086  0.00  0.00    +0.000 OA
ATOM     21  H   UNL     1      10.013  13.016  19.878  0.00  0.00    +0.000 HD
ENDBRANCH  18  20
ENDBRANCH  17  18
ENDBRANCH  15  17
ENDBRANCH  14  15
ENDBRANCH  11  14
ENDBRANCH   7  10
BRANCH   8  22
ATOM     22  C   UNL     1       6.374   4.892  15.753  0.00  0.00    +0.000 C 
ATOM     23  O   UNL     1       7.128   4.023  16.168  0.00  0.00    +0.000 OA
ATOM     24  N   UNL     1       6.378   5.315  14.431  0.00  0.00    +0.000 N 
ATOM     25  H   UNL     1       5.488   5.624  14.064  0.00  0.00    +0.000 HD
BRANCH  24  26
ATOM     26  C   UNL     1       7.281   4.682  13.474  0.00  0.00    +0.000 C 
BRANCH  26  27
ATOM     27  C   UNL     1       6.637   3.678  12.540  0.00  0.00    +0.000 A 
ATOM     28  C   UNL     1       7.353   2.678  11.879  0.00  0.00    +0.000 A 
ATOM     29  C   UNL     1       6.701   1.734  11.079  0.00  0.00    +0.000 A 
ATOM     30  C   UNL     1       5.336   1.813  10.852  0.00  0.00    +0.000 A 
ATOM     31  C   UNL     1       4.598   2.782  11.515  0.00  0.00    +0.000 A 
ATOM     32  C   UNL     1       5.240   3.689  12.372  0.00  0.00    +0.000 A 
ENDBRANCH  26  27
ENDBRANCH  24  26
ENDBRANCH   8  22
BRANCH   1  34
ATOM     33  C   UNL     1       2.402   3.552  21.182  0.00  0.00    +0.000 C 
ATOM     34  C   UNL     1       2.625   3.055  19.759  0.00  0.00    +0.000 C 
ENDBRANCH   1  34
TORSDOF 10
ENDMDL
MODEL 2
REMARK VINA RESULT:      -7.1      7.158     10.312
REMARK  Name = 
REMARK  12 active torsions:
REMARK  status: ('A' for Active; 'I' for Inactive)
REMARK    1  A    between atoms: C_1  and  C_2
REMARK    2  A    between atoms: C_2  and  C_3
REMARK    3  A    between atoms: C_9  and  N_10
REMARK    4  A    between atoms: C_11  and  C_13
REMARK    5  A    between atoms: C_13  and  C_14
REMARK    6  A    between atoms: C_14  and  C_15
REMARK    7  A    between atoms: C_14  and  C_16
REMARK    8  A    between atoms: C_16  and  C_17
REMARK    9  A    between atoms: C_17  and  O_19
REMARK   10  A    between atoms: C_20  and  C_21
REMARK   11  A    between atoms: N_23  and  C_24
REMARK   12  A    between atoms: C_24  and  C_25
REMARK                            x       y       z     vdW  Elec       q    Type
REMARK                         _______ _______ _______ _____ _____    ______ ____
ROOT
ATOM      1  C   UNL     1       3.062   5.405  18.535  0.00  0.00    +0.000 C 
ATOM      2  C   UNL     1       2.965   5.600  20.070  0.00  0.00    +0.000 C 
ATOM      3  C   UNL     1       1.817   6.543  20.503  0.00  0.00    +0.000 C 
ATOM      4  C   UNL     1       1.741   7.783  19.642  0.00  0.00    +0.000 A 
ATOM      5  C   UNL     1       2.422   7.838  18.444  0.00  0.00    +0.000 A 
ATOM      6  S   UNL     1       2.228   9.313  17.650  0.00  0.00    +0.000 S 
ATOM      7  C   UNL     1       1.159   9.914  18.834  0.00  0.00    +0.000 A 
ATOM      8  C   UNL     1       0.984   9.015  19.892  0.00  0.00    +0.000 A 
ATOM      9  C   UNL     1       3.311   6.776  17.864  0.00  0.00    +0.000 C 
ENDROOT
BRANCH   7  10
ATOM     10  N   UNL     1       0.596  11.184  18.658  0.00  0.00    +0.000 N 
ATOM     11  C   UNL     1       1.262  12.400  18.741  0.00  0.00    +0.000 C 
ATOM     12  O   UNL     1       2.468  12.584  18.888  0.00  0.00    +0.000 OA
ATOM     13  H   UNL     1      -0.359  11.189  18.322  0.00  0.00    +0.000 HD
BRANCH  11  14
ATOM     14  C   UNL     1       0.354  13.624  18.667  0.00  0.00    +0.000 C 
BRANCH  14  15
ATOM     15  C   UNL     1       0.870  14.816  19.503  0.00  0.00    +0.000 C 
ATOM     16  C   UNL     1       0.933  16.128  18.716  0.00  0.00    +0.000 C 
BRANCH  15  17
ATOM     17  C   UNL     1      -0.021  15.070  20.739  0.00  0.00    +0.000 C 
BRANCH  17  18
ATOM     18  C   UNL     1       0.626  14.575  21.993  0.00  0.00    +0.000 C 
ATOM     19  O   UNL     1       1.752  14.106  22.009  0.00  0.00    +0.000 OA
BRANCH  18  20
ATOM     20  O   UNL     1      -0.123  14.719  23.105  0.00  0.00    +0.000 OA
ATOM     21  H   UNL     1       0.360  14.605  23.946  0.00  0.00    +0.000 HD
ENDBRANCH  18  20
ENDBRANCH  17  18
ENDBRANCH  15  17
ENDBRANCH  14  15
ENDBRANCH  11  14
ENDBRANCH   7  10
BRANCH   8  22
ATOM     22  C   UNL     1       0.104   9.229  21.061  0.00  0.00    +0.000 C 
ATOM     23  O   UNL     1      -0.539   8.311  21.553  0.00  0.00    +0.000 OA
ATOM     24  N   UNL     1       0.076  10.518  21.575  0.00  0.00    +0.000 N 
ATOM     25  H   UNL     1       0.926  11.055  21.466  0.00  0.00    +0.000 HD
BRANCH  24  26
ATOM     26  C   UNL     1      -0.713  10.802  22.770  0.00  0.00    +0.000 C 
BRANCH  26  27
ATOM     27  C   UNL     1      -1.888  11.736  22.565  0.00  0.00    +0.000 A 
ATOM     28  C   UNL     1      -2.705  12.179  23.608  0.00  0.00    +0.000 A 
ATOM     29  C   UNL     1      -3.736  13.095  23.375  0.00  0.00    +0.000 A 
ATOM     30  C   UNL     1      -4.032  13.526  22.091  0.00  0.00    +0.000 A 
ATOM     31  C   UNL     1      -3.222  13.119  21.041  0.00  0.00    +0.000 A 
ATOM     32  C   UNL     1      -2.143  12.253  21.281  0.00  0.00    +0.000 A 
ENDBRANCH  26  27
ENDBRANCH  24  26
ENDBRANCH   8  22
BRANCH   1  34
ATOM     33  C   UNL     1       1.596   3.276  18.644  0.00  0.00    +0.000 C 
ATOM     34  C   UNL     1       1.835   4.635  17.998  0.00  0.00    +0.000 C 
ENDBRANCH   1  34
TORSDOF 10
ENDMDL
MODEL 3
REMARK VINA RESULT:      -7.0      4.572      8.097
REMARK  Name = 
REMARK  12 active torsions:
REMARK  status: ('A' for Active; 'I' for Inactive)
REMARK    1  A    between atoms: C_1  and  C_2
REMARK    2  A    between atoms: C_2  and  C_3
REMARK    3  A    between atoms: C_9  and  N_10
REMARK    4  A    between atoms: C_11  and  C_13
REMARK    5  A    between atoms: C_13  and  C_14
REMARK    6  A    between atoms: C_14  and  C_15
REMARK    7  A    between atoms: C_14  and  C_16
REMARK    8  A    between atoms: C_16  and  C_17
REMARK    9  A    between atoms: C_17  and  O_19
REMARK   10  A    between atoms: C_20  and  C_21
REMARK   11  A    between atoms: N_23  and  C_24
REMARK   12  A    between atoms: C_24  and  C_25
REMARK                            x       y       z     vdW  Elec       q    Type
REMARK                         _______ _______ _______ _____ _____    ______ ____
ROOT
ATOM      1  C   UNL     1      -0.408  11.608  19.715  0.00  0.00    +0.000 C 
ATOM      2  C   UNL     1       0.817  11.677  18.769  0.00  0.00    +0.000 C 
ATOM      3  C   UNL     1       1.305  10.290  18.285  0.00  0.00    +0.000 C 
ATOM      4  C   UNL     1       1.354   9.278  19.408  0.00  0.00    +0.000 A 
ATOM      5  C   UNL     1       0.717   9.538  20.603  0.00  0.00    +0.000 A 
ATOM      6  S   UNL     1       0.913   8.299  21.730  0.00  0.00    +0.000 S 
ATOM      7  C   UNL     1       1.790   7.323  20.641  0.00  0.00    +0.000 A 
ATOM      8  C   UNL     1       2.001   7.962  19.414  0.00  0.00    +0.000 A 
ATOM      9  C   UNL     1      -0.034  10.785  20.970  0.00  0.00    +0.000 C 
ENDROOT
BRANCH   7  10
ATOM     10  N   UNL     1       2.205   6.051  21.053  0.00  0.00    +0.000 N 
ATOM     11  C   UNL     1       1.528   4.856  20.849  0.00  0.00    +0.000 C 
ATOM     12  O   UNL     1       0.500   4.680  20.199  0.00  0.00    +0.000 OA
ATOM     13  H   UNL     1       3.146   6.005  21.425  0.00  0.00    +0.000 HD
BRANCH  11  14
ATOM     14  C   UNL     1       2.144   3.653  21.556  0.00  0.00    +0.000 C 
BRANCH  14  15
ATOM     15  C   UNL     1       2.394   2.456  20.612  0.00  0.00    +0.000 C 
ATOM     16  C   UNL     1       1.187   2.113  19.734  0.00  0.00    +0.000 C 
BRANCH  15  17
ATOM     17  C   UNL     1       3.584   2.719  19.665  0.00  0.00    +0.000 C 
BRANCH  17  18
ATOM     18  C   UNL     1       3.638   1.713  18.560  0.00  0.00    +0.000 C 
ATOM     19  O   UNL     1       3.065   1.877  17.495  0.00  0.00    +0.000 OA
BRANCH  18  20
ATOM     20  O   UNL     1       4.395   0.628  18.823  0.00  0.00    +0.000 OA
ATOM     21  H   UNL     1       4.306   0.272  19.728  0.00  0.00    +0.000 HD
ENDBRANCH  18  20
ENDBRANCH  17  18
ENDBRANCH  15  17
ENDBRANCH  14  15
ENDBRANCH  11  14
ENDBRANCH   7  10
BRANCH   8  22
ATOM     22  C   UNL     1       2.706   7.375  18.253  0.00  0.00    +0.000 C 
ATOM     23  O   UNL     1       3.222   8.079  17.396  0.00  0.00    +0.000 OA
ATOM     24  N   UNL     1       2.766   5.988  18.214  0.00  0.00    +0.000 N 
ATOM     25  H   UNL     1       2.775   5.522  19.111  0.00  0.00    +0.000 HD
BRANCH  24  26
ATOM     26  C   UNL     1       3.502   5.328  17.140  0.00  0.00    +0.000 C 
BRANCH  26  27
ATOM     27  C   UNL     1       4.985   5.146  17.387  0.00  0.00    +0.000 A 
ATOM     28  C   UNL     1       5.603   5.456  18.601  0.00  0.00    +0.000 A 
ATOM     29  C   UNL     1       6.965   5.207  18.800  0.00  0.00    +0.000 A 
ATOM     30  C   UNL     1       7.759   4.721  17.772  0.00  0.00    +0.000 A 
ATOM     31  C   UNL     1       7.166   4.383  16.565  0.00  0.00    +0.000 A 
ATOM     32  C   UNL     1       5.787   4.569  16.384  0.00  0.00    +0.000 A 
ENDBRANCH  26  27
ENDBRANCH  24  26
ENDBRANCH   8  22
BRANCH   1  34
ATOM     33  C   UNL     1      -2.872  12.023  19.045  0.00  0.00    +0.000 C 
ATOM     34  C   UNL     1      -1.660  11.106  18.961  0.00  0.00    +0.000 C 
ENDBRANCH   1  34
TORSDOF 10
ENDMDL
MODEL 4
REMARK VINA RESULT:      -7.0      4.437      7.755
REMARK  Name = 
REMARK  12 active torsions:
REMARK  status: ('A' for Active; 'I' for Inactive)
REMARK    1  A    between atoms: C_1  and  C_2
REMARK    2  A    between atoms: C_2  and  C_3
REMARK    3  A    between atoms: C_9  and  N_10
REMARK    4  A    between atoms: C_11  and  C_13
REMARK    5  A    between atoms: C_13  and  C_14
REMARK    6  A    between atoms: C_14  and  C_15
REMARK    7  A    between atoms: C_14  and  C_16
REMARK    8  A    between atoms: C_16  and  C_17
REMARK    9  A    between atoms: C_17  and  O_19
REMARK   10  A    between atoms: C_20  and  C_21
REMARK   11  A    between atoms: N_23  and  C_24
REMARK   12  A    between atoms: C_24  and  C_25
REMARK                            x       y       z     vdW  Elec       q    Type
REMARK                         _______ _______ _______ _____ _____    ______ ____
ROOT
ATOM      1  C   UNL     1       0.370  11.840  19.636  0.00  0.00    +0.000 C 
ATOM      2  C   UNL     1       1.657  11.657  18.792  0.00  0.00    +0.000 C 
ATOM      3  C   UNL     1       1.847  10.216  18.258  0.00  0.00    +0.000 C 
ATOM      4  C   UNL     1       1.557   9.173  19.315  0.00  0.00    +0.000 A 
ATOM      5  C   UNL     1       0.895   9.524  20.472  0.00  0.00    +0.000 A 
ATOM      6  S   UNL     1       0.694   8.225  21.528  0.00  0.00    +0.000 S 
ATOM      7  C   UNL     1       1.411   7.118  20.449  0.00  0.00    +0.000 A 
ATOM      8  C   UNL     1       1.875   7.741  19.285  0.00  0.00    +0.000 A 
ATOM      9  C   UNL     1       0.428  10.897  20.860  0.00  0.00    +0.000 C 
ENDROOT
BRANCH   7  10
ATOM     10  N   UNL     1       1.479   5.767  20.809  0.00  0.00    +0.000 N 
ATOM     11  C   UNL     1       2.596   4.946  20.724  0.00  0.00    +0.000 C 
ATOM     12  O   UNL     1       3.740   5.269  20.412  0.00  0.00    +0.000 OA
ATOM     13  H   UNL     1       0.661   5.406  21.284  0.00  0.00    +0.000 HD
BRANCH  11  14
ATOM     14  C   UNL     1       2.324   3.477  21.031  0.00  0.00    +0.000 C 
BRANCH  14  15
ATOM     15  C   UNL     1       1.879   2.668  19.793  0.00  0.00    +0.000 C 
ATOM     16  C   UNL     1       0.486   3.052  19.286  0.00  0.00    +0.000 C 
BRANCH  15  17
ATOM     17  C   UNL     1       2.858   2.853  18.613  0.00  0.00    +0.000 C 
BRANCH  17  18
ATOM     18  C   UNL     1       4.078   2.004  18.775  0.00  0.00    +0.000 C 
ATOM     19  O   UNL     1       4.087   0.812  18.516  0.00  0.00    +0.000 OA
BRANCH  18  20
ATOM     20  O   UNL     1       5.172   2.669  19.201  0.00  0.00    +0.000 OA
ATOM     21  H   UNL     1       5.797   2.929  18.498  0.00  0.00    +0.000 HD
ENDBRANCH  18  20
ENDBRANCH  17  18
ENDBRANCH  15  17
ENDBRANCH  14  15
ENDBRANCH  11  14
ENDBRANCH   7  10
BRANCH   8  22
ATOM     22  C   UNL     1       2.523   7.055  18.146  0.00  0.00    +0.000 C 
ATOM     23  O   UNL     1       2.093   5.996  17.710  0.00  0.00    +0.000 OA
ATOM     24  N   UNL     1       3.623   7.697  17.594  0.00  0.00    +0.000 N 
ATOM     25  H   UNL     1       3.619   8.706  17.650  0.00  0.00    +0.000 HD
BRANCH  24  26
ATOM     26  C   UNL     1       4.281   7.123  16.423  0.00  0.00    +0.000 C 
BRANCH  26  27
ATOM     27  C   UNL     1       5.461   6.221  16.720  0.00  0.00    +0.000 A 
ATOM     28  C   UNL     1       6.464   6.549  17.636  0.00  0.00    +0.000 A 
ATOM     29  C   UNL     1       7.498   5.652  17.923  0.00  0.00    +0.000 A 
ATOM     30  C   UNL     1       7.605   4.446  17.247  0.00  0.00    +0.000 A 
ATOM     31  C   UNL     1       6.610   4.087  16.350  0.00  0.00    +0.000 A 
ATOM     32  C   UNL     1       5.534   4.955  16.109  0.00  0.00    +0.000 A 
ENDBRANCH  26  27
ENDBRANCH  24  26
ENDBRANCH   8  22
BRANCH   1  34
ATOM     33  C   UNL     1      -2.207  11.987  19.464  0.00  0.00    +0.000 C 
ATOM     34  C   UNL     1      -0.892  11.686  18.758  0.00  0.00    +0.000 C 
ENDBRANCH   1  34
TORSDOF 10
ENDMDL
MODEL 5
REMARK VINA RESULT:      -6.8      3.707      8.066
REMARK  Name = 
REMARK  12 active torsions:
REMARK  status: ('A' for Active; 'I' for Inactive)
REMARK    1  A    between atoms: C_1  and  C_2
REMARK    2  A    between atoms: C_2  and  C_3
REMARK    3  A    between atoms: C_9  and  N_10
REMARK    4  A    between atoms: C_11  and  C_13
REMARK    5  A    between atoms: C_13  and  C_14
REMARK    6  A    between atoms: C_14  and  C_15
REMARK    7  A    between atoms: C_14  and  C_16
REMARK    8  A    between atoms: C_16  and  C_17
REMARK    9  A    between atoms: C_17  and  O_19
REMARK   10  A    between atoms: C_20  and  C_21
REMARK   11  A    between atoms: N_23  and  C_24
REMARK   12  A    between atoms: C_24  and  C_25
REMARK                            x       y       z     vdW  Elec       q    Type
REMARK                         _______ _______ _______ _____ _____    ______ ____
ROOT
ATOM      1  C   UNL     1       1.941   3.047  20.960  0.00  0.00    +0.000 C 
ATOM      2  C   UNL     1       1.968   4.546  21.353  0.00  0.00    +0.000 C 
ATOM      3  C   UNL     1       2.191   5.498  20.153  0.00  0.00    +0.000 C 
ATOM      4  C   UNL     1       3.282   5.005  19.229  0.00  0.00    +0.000 A 
ATOM      5  C   UNL     1       3.739   3.708  19.326  0.00  0.00    +0.000 A 
ATOM      6  S   UNL     1       4.971   3.367  18.226  0.00  0.00    +0.000 S 
ATOM      7  C   UNL     1       4.891   4.914  17.516  0.00  0.00    +0.000 A 
ATOM      8  C   UNL     1       3.960   5.740  18.155  0.00  0.00    +0.000 A 
ATOM      9  C   UNL     1       3.294   2.668  20.313  0.00  0.00    +0.000 C 
ENDROOT
BRANCH   7  10
ATOM     10  N   UNL     1       5.724   5.206  16.429  0.00  0.00    +0.000 N 
ATOM     11  C   UNL     1       6.164   4.309  15.464  0.00  0.00    +0.000 C 
ATOM     12  O   UNL     1       5.836   3.133  15.330  0.00  0.00    +0.000 OA
ATOM     13  H   UNL     1       5.914   6.190  16.284  0.00  0.00    +0.000 HD
BRANCH  11  14
ATOM     14  C   UNL     1       7.196   4.880  14.496  0.00  0.00    +0.000 C 
BRANCH  14  15
ATOM     15  C   UNL     1       6.784   4.741  13.014  0.00  0.00    +0.000 C 
ATOM     16  C   UNL     1       7.637   5.585  12.064  0.00  0.00    +0.000 C 
BRANCH  15  17
ATOM     17  C   UNL     1       6.883   3.277  12.534  0.00  0.00    +0.000 C 
BRANCH  17  18
ATOM     18  C   UNL     1       5.603   2.816  11.913  0.00  0.00    +0.000 C 
ATOM     19  O   UNL     1       5.496   1.735  11.356  0.00  0.00    +0.000 OA
BRANCH  18  20
ATOM     20  O   UNL     1       4.572   3.675  12.046  0.00  0.00    +0.000 OA
ATOM     21  H   UNL     1       4.428   4.269  11.285  0.00  0.00    +0.000 HD
ENDBRANCH  18  20
ENDBRANCH  17  18
ENDBRANCH  15  17
ENDBRANCH  14  15
ENDBRANCH  11  14
ENDBRANCH   7  10
BRANCH   8  22
ATOM     22  C   UNL     1       3.638   7.130  17.765  0.00  0.00    +0.000 C 
ATOM     23  O   UNL     1       4.390   7.784  17.054  0.00  0.00    +0.000 OA
ATOM     24  N   UNL     1       2.431   7.631  18.231  0.00  0.00    +0.000 N 
ATOM     25  H   UNL     1       1.694   6.951  18.365  0.00  0.00    +0.000 HD
BRANCH  24  26
ATOM     26  C   UNL     1       2.004   8.970  17.837  0.00  0.00    +0.000 C 
BRANCH  26  27
ATOM     27  C   UNL     1       1.078   9.669  18.812  0.00  0.00    +0.000 A 
ATOM     28  C   UNL     1       0.225  10.712  18.444  0.00  0.00    +0.000 A 
ATOM     29  C   UNL     1      -0.659  11.279  19.368  0.00  0.00    +0.000 A 
ATOM     30  C   UNL     1      -0.656  10.880  20.696  0.00  0.00    +0.000 A 
ATOM     31  C   UNL     1       0.165   9.831  21.082  0.00  0.00    +0.000 A 
ATOM     32  C   UNL     1       1.004   9.213  20.142  0.00  0.00    +0.000 A 
ENDBRANCH  26  27
ENDBRANCH  24  26
ENDBRANCH   8  22
BRANCH   1  34
ATOM     33  C   UNL     1       1.004   2.184  18.708  0.00  0.00    +0.000 C 
ATOM     34  C   UNL     1       0.699   2.726  20.098  0.00  0.00    +0.000 C 
ENDBRANCH   1  34
TORSDOF 10
ENDMDL
MODEL 6
REMARK VINA RESULT:      -6.8      4.776      8.313
REMARK  Name = 
REMARK  12 active torsions:
REMARK  status: ('A' for Active; 'I' for Inactive)
REMARK    1  A    between atoms: C_1  and  C_2
REMARK    2  A    between atoms: C_2  and  C_3
REMARK    3  A    between atoms: C_9  and  N_10
REMARK    4  A    between atoms: C_11  and  C_13
REMARK    5  A    between atoms: C_13  and  C_14
REMARK    6  A    between atoms: C_14  and  C_15
REMARK    7  A    between atoms: C_14  and  C_16
REMARK    8  A    between atoms: C_16  and  C_17
REMARK    9  A    between atoms: C_17  and  O_19
REMARK   10  A    between atoms: C_20  and  C_21
REMARK   11  A    between atoms: N_23  and  C_24
REMARK   12  A    between atoms: C_24  and  C_25
REMARK                            x       y       z     vdW  Elec       q    Type
REMARK                         _______ _______ _______ _____ _____    ______ ____
ROOT
ATOM      1  C   UNL     1      -1.408  11.902  19.389  0.00  0.00    +0.000 C 
ATOM      2  C   UNL     1      -0.157  12.132  18.503  0.00  0.00    +0.000 C 
ATOM      3  C   UNL     1       0.565  10.823  18.099  0.00  0.00    +0.000 C 
ATOM      4  C   UNL     1       0.707   9.867  19.263  0.00  0.00    +0.000 A 
ATOM      5  C   UNL     1      -0.027  10.062  20.413  0.00  0.00    +0.000 A 
ATOM      6  S   UNL     1       0.294   8.905  21.596  0.00  0.00    +0.000 S 
ATOM      7  C   UNL     1       1.370   8.044  20.592  0.00  0.00    +0.000 A 
ATOM      8  C   UNL     1       1.548   8.669  19.352  0.00  0.00    +0.000 A 
ATOM      9  C   UNL     1      -0.981  11.188  20.693  0.00  0.00    +0.000 C 
ENDROOT
BRANCH   7  10
ATOM     10  N   UNL     1       1.953   6.867  21.074  0.00  0.00    +0.000 N 
ATOM     11  C   UNL     1       1.615   5.570  20.711  0.00  0.00    +0.000 C 
ATOM     12  O   UNL     1       0.818   5.220  19.843  0.00  0.00    +0.000 OA
ATOM     13  H   UNL     1       2.777   6.998  21.649  0.00  0.00    +0.000 HD
BRANCH  11  14
ATOM     14  C   UNL     1       2.310   4.483  21.526  0.00  0.00    +0.000 C 
BRANCH  14  15
ATOM     15  C   UNL     1       2.443   3.145  20.767  0.00  0.00    +0.000 C 
ATOM     16  C   UNL     1       1.146   2.330  20.740  0.00  0.00    +0.000 C 
BRANCH  15  17
ATOM     17  C   UNL     1       2.870   3.365  19.299  0.00  0.00    +0.000 C 
BRANCH  17  18
ATOM     18  C   UNL     1       3.854   2.330  18.854  0.00  0.00    +0.000 C 
ATOM     19  O   UNL     1       3.761   1.755  17.783  0.00  0.00    +0.000 OA
BRANCH  18  20
ATOM     20  O   UNL     1       4.866   2.109  19.718  0.00  0.00    +0.000 OA
ATOM     21  H   UNL     1       4.606   2.066  20.657  0.00  0.00    +0.000 HD
ENDBRANCH  18  20
ENDBRANCH  17  18
ENDBRANCH  15  17
ENDBRANCH  14  15
ENDBRANCH  11  14
ENDBRANCH   7  10
BRANCH   8  22
ATOM     22  C   UNL     1       2.398   8.163  18.253  0.00  0.00    +0.000 C 
ATOM     23  O   UNL     1       2.636   8.844  17.265  0.00  0.00    +0.000 OA
ATOM     24  N   UNL     1       2.922   6.889  18.424  0.00  0.00    +0.000 N 
ATOM     25  H   UNL     1       3.098   6.610  19.380  0.00  0.00    +0.000 HD
BRANCH  24  26
ATOM     26  C   UNL     1       3.827   6.340  17.419  0.00  0.00    +0.000 C 
BRANCH  26  27
ATOM     27  C   UNL     1       5.298   6.374  17.782  0.00  0.00    +0.000 A 
ATOM     28  C   UNL     1       6.215   7.237  17.179  0.00  0.00    +0.000 A 
ATOM     29  C   UNL     1       7.549   7.276  17.597  0.00  0.00    +0.000 A 
ATOM     30  C   UNL     1       8.020   6.402  18.565  0.00  0.00    +0.000 A 
ATOM     31  C   UNL     1       7.124   5.551  19.196  0.00  0.00    +0.000 A 
ATOM     32  C   UNL     1       5.771   5.557  18.826  0.00  0.00    +0.000 A 
ENDBRANCH  26  27
ENDBRANCH  24  26
ENDBRANCH   8  22
BRANCH   1  34
ATOM     33  C   UNL     1      -3.913  11.790  18.753  0.00  0.00    +0.000 C 
ATOM     34  C   UNL     1      -2.523  11.187  18.594  0.00  0.00    +0.000 C 
ENDBRANCH   1  34
TORSDOF 10
ENDMDL
MODEL 7
REMARK VINA RESULT:      -6.8      6.584      9.870
REMARK  Name = 
REMARK  12 active torsions:
REMARK  status: ('A' for Active; 'I' for Inactive)
REMARK    1  A    between atoms: C_1  and  C_2
REMARK    2  A    between atoms: C_2  and  C_3
REMARK    3  A    between atoms: C_9  and  N_10
REMARK    4  A    between atoms: C_11  and  C_13
REMARK    5  A    between atoms: C_13  and  C_14
REMARK    6  A    between atoms: C_14  and  C_15
REMARK    7  A    between atoms: C_14  and  C_16
REMARK    8  A    between atoms: C_16  and  C_17
REMARK    9  A    between atoms: C_17  and  O_19
REMARK   10  A    between atoms: C_20  and  C_21
REMARK   11  A    between atoms: N_23  and  C_24
REMARK   12  A    between atoms: C_24  and  C_25
REMARK                            x       y       z     vdW  Elec       q    Type
REMARK                         _______ _______ _______ _____ _____    ______ ____
ROOT
ATOM      1  C   UNL     1       2.673   4.821  18.756  0.00  0.00    +0.000 C 
ATOM      2  C   UNL     1       3.053   5.143  20.224  0.00  0.00    +0.000 C 
ATOM      3  C   UNL     1       2.186   6.256  20.859  0.00  0.00    +0.000 C 
ATOM      4  C   UNL     1       1.986   7.428  19.923  0.00  0.00    +0.000 A 
ATOM      5  C   UNL     1       2.285   7.303  18.583  0.00  0.00    +0.000 A 
ATOM      6  S   UNL     1       2.016   8.726  17.719  0.00  0.00    +0.000 S 
ATOM      7  C   UNL     1       1.411   9.548  19.084  0.00  0.00    +0.000 A 
ATOM      8  C   UNL     1       1.465   8.761  20.241  0.00  0.00    +0.000 A 
ATOM      9  C   UNL     1       2.851   6.094  17.896  0.00  0.00    +0.000 C 
ENDROOT
BRANCH   7  10
ATOM     10  N   UNL     1       0.954  10.863  18.937  0.00  0.00    +0.000 N 
ATOM     11  C   UNL     1       1.671  11.932  18.416  0.00  0.00    +0.000 C 
ATOM     12  O   UNL     1       2.789  11.907  17.908  0.00  0.00    +0.000 OA
ATOM     13  H   UNL     1      -0.033  10.999  19.121  0.00  0.00    +0.000 HD
BRANCH  11  14
ATOM     14  C   UNL     1       0.968  13.281  18.534  0.00  0.00    +0.000 C 
BRANCH  14  15
ATOM     15  C   UNL     1       1.742  14.297  19.403  0.00  0.00    +0.000 C 
ATOM     16  C   UNL     1       2.455  13.656  20.597  0.00  0.00    +0.000 C 
BRANCH  15  17
ATOM     17  C   UNL     1       2.816  15.043  18.581  0.00  0.00    +0.000 C 
BRANCH  17  18
ATOM     18  C   UNL     1       2.367  16.423  18.218  0.00  0.00    +0.000 C 
ATOM     19  O   UNL     1       1.207  16.785  18.328  0.00  0.00    +0.000 OA
BRANCH  18  20
ATOM     20  O   UNL     1       3.351  17.240  17.790  0.00  0.00    +0.000 OA
ATOM     21  H   UNL     1       4.254  16.880  17.878  0.00  0.00    +0.000 HD
ENDBRANCH  18  20
ENDBRANCH  17  18
ENDBRANCH  15  17
ENDBRANCH  14  15
ENDBRANCH  11  14
ENDBRANCH   7  10
BRANCH   8  22
ATOM     22  C   UNL     1       0.996   9.176  21.581  0.00  0.00    +0.000 C 
ATOM     23  O   UNL     1       1.756   9.220  22.538  0.00  0.00    +0.000 OA
ATOM     24  N   UNL     1      -0.342   9.533  21.674  0.00  0.00    +0.000 N 
ATOM     25  H   UNL     1      -0.752   9.931  20.840  0.00  0.00    +0.000 HD
BRANCH  24  26
ATOM     26  C   UNL     1      -0.873  10.019  22.944  0.00  0.00    +0.000 C 
BRANCH  26  27
ATOM     27  C   UNL     1      -1.398  11.440  22.926  0.00  0.00    +0.000 A 
ATOM     28  C   UNL     1      -2.633  11.807  23.465  0.00  0.00    +0.000 A 
ATOM     29  C   UNL     1      -3.043  13.144  23.482  0.00  0.00    +0.000 A 
ATOM     30  C   UNL     1      -2.272  14.134  22.891  0.00  0.00    +0.000 A 
ATOM     31  C   UNL     1      -1.031  13.800  22.370  0.00  0.00    +0.000 A 
ATOM     32  C   UNL     1      -0.587  12.470  22.412  0.00  0.00    +0.000 A 
ENDBRANCH  26  27
ENDBRANCH  24  26
ENDBRANCH   8  22
BRANCH   1  34
ATOM     33  C   UNL     1       1.201   2.729  19.145  0.00  0.00    +0.000 C 
ATOM     34  C   UNL     1       1.271   4.178  18.678  0.00  0.00    +0.000 C 
ENDBRANCH   1  34
TORSDOF 10
ENDMDL
MODEL 8
REMARK VINA RESULT:      -6.8      3.805      7.463
REMARK  Name = 
REMARK  12 active torsions:
REMARK  status: ('A' for Active; 'I' for Inactive)
REMARK    1  A    between atoms: C_1  and  C_2
REMARK    2  A    between atoms: C_2  and  C_3
REMARK    3  A    between atoms: C_9  and  N_10
REMARK    4  A    between atoms: C_11  and  C_13
REMARK    5  A    between atoms: C_13  and  C_14
REMARK    6  A    between atoms: C_14  and  C_15
REMARK    7  A    between atoms: C_14  and  C_16
REMARK    8  A    between atoms: C_16  and  C_17
REMARK    9  A    between atoms: C_17  and  O_19
REMARK   10  A    between atoms: C_20  and  C_21
REMARK   11  A    between atoms: N_23  and  C_24
REMARK   12  A    between atoms: C_24  and  C_25
REMARK                            x       y       z     vdW  Elec       q    Type
REMARK                         _______ _______ _______ _____ _____    ______ ____
ROOT
ATOM      1  C   UNL     1       1.922   3.011  21.164  0.00  0.00    +0.000 C 
ATOM      2  C   UNL     1       2.200   4.489  21.541  0.00  0.00    +0.000 C 
ATOM      3  C   UNL     1       2.357   5.422  20.316  0.00  0.00    +0.000 C 
ATOM      4  C   UNL     1       3.222   4.807  19.237  0.00  0.00    +0.000 A 
ATOM      5  C   UNL     1       3.519   3.462  19.270  0.00  0.00    +0.000 A 
ATOM      6  S   UNL     1       4.514   2.982  17.996  0.00  0.00    +0.000 S 
ATOM      7  C   UNL     1       4.525   4.537  17.299  0.00  0.00    +0.000 A 
ATOM      8  C   UNL     1       3.816   5.465  18.069  0.00  0.00    +0.000 A 
ATOM      9  C   UNL     1       3.101   2.472  20.320  0.00  0.00    +0.000 C 
ENDROOT
BRANCH   7  10
ATOM     10  N   UNL     1       5.213   4.736  16.096  0.00  0.00    +0.000 N 
ATOM     11  C   UNL     1       6.591   4.725  15.922  0.00  0.00    +0.000 C 
ATOM     12  O   UNL     1       7.448   4.449  16.757  0.00  0.00    +0.000 OA
ATOM     13  H   UNL     1       4.631   4.769  15.267  0.00  0.00    +0.000 HD
BRANCH  11  14
ATOM     14  C   UNL     1       7.054   5.137  14.528  0.00  0.00    +0.000 C 
BRANCH  14  15
ATOM     15  C   UNL     1       6.799   4.054  13.457  0.00  0.00    +0.000 C 
ATOM     16  C   UNL     1       5.317   3.882  13.108  0.00  0.00    +0.000 C 
BRANCH  15  17
ATOM     17  C   UNL     1       7.540   4.372  12.140  0.00  0.00    +0.000 C 
BRANCH  17  18
ATOM     18  C   UNL     1       8.153   5.735  12.172  0.00  0.00    +0.000 C 
ATOM     19  O   UNL     1       7.812   6.625  11.410  0.00  0.00    +0.000 OA
BRANCH  18  20
ATOM     20  O   UNL     1       9.088   5.909  13.129  0.00  0.00    +0.000 OA
ATOM     21  H   UNL     1       9.757   5.202  13.186  0.00  0.00    +0.000 HD
ENDBRANCH  18  20
ENDBRANCH  17  18
ENDBRANCH  15  17
ENDBRANCH  14  15
ENDBRANCH  11  14
ENDBRANCH   7  10
BRANCH   8  22
ATOM     22  C   UNL     1       3.619   6.891  17.725  0.00  0.00    +0.000 C 
ATOM     23  O   UNL     1       4.459   7.516  17.092  0.00  0.00    +0.000 OA
ATOM     24  N   UNL     1       2.423   7.459  18.142  0.00  0.00    +0.000 N 
ATOM     25  H   UNL     1       1.633   6.830  18.199  0.00  0.00    +0.000 HD
BRANCH  24  26
ATOM     26  C   UNL     1       2.118   8.841  17.785  0.00  0.00    +0.000 C 
BRANCH  26  27
ATOM     27  C   UNL     1       1.027   9.497  18.606  0.00  0.00    +0.000 A 
ATOM     28  C   UNL     1      -0.091  10.113  18.040  0.00  0.00    +0.000 A 
ATOM     29  C   UNL     1      -1.104  10.646  18.844  0.00  0.00    +0.000 A 
ATOM     30  C   UNL     1      -0.990  10.651  20.226  0.00  0.00    +0.000 A 
ATOM     31  C   UNL     1       0.099  10.024  20.814  0.00  0.00    +0.000 A 
ATOM     32  C   UNL     1       1.084   9.429  20.011  0.00  0.00    +0.000 A 
ENDBRANCH  26  27
ENDBRANCH  24  26
ENDBRANCH   8  22
BRANCH   1  34
ATOM     33  C   UNL     1       0.554   2.380  19.061  0.00  0.00    +0.000 C 
ATOM     34  C   UNL     1       0.532   2.863  20.505  0.00  0.00    +0.000 C 
ENDBRANCH   1  34
TORSDOF 10
ENDMDL
MODEL 9
REMARK VINA RESULT:      -6.8      4.442      7.914
REMARK  Name = 
REMARK  12 active torsions:
REMARK  status: ('A' for Active; 'I' for Inactive)
REMARK    1  A    between atoms: C_1  and  C_2
REMARK    2  A    between atoms: C_2  and  C_3
REMARK    3  A    between atoms: C_9  and  N_10
REMARK    4  A    between atoms: C_11  and  C_13
REMARK    5  A    between atoms: C_13  and  C_14
REMARK    6  A    between atoms: C_14  and  C_15
REMARK    7  A    between atoms: C_14  and  C_16
REMARK    8  A    between atoms: C_16  and  C_17
REMARK    9  A    between atoms: C_17  and  O_19
REMARK   10  A    between atoms: C_20  and  C_21
REMARK   11  A    between atoms: N_23  and  C_24
REMARK   12  A    between atoms: C_24  and  C_25
REMARK                            x       y       z     vdW  Elec       q    Type
REMARK                         _______ _______ _______ _____ _____    ______ ____
ROOT
ATOM      1  C   UNL     1       0.584  12.590  19.815  0.00  0.00    +0.000 C 
ATOM      2  C   UNL     1       1.710  12.329  18.782  0.00  0.00    +0.000 C 
ATOM      3  C   UNL     1       1.739  10.874  18.252  0.00  0.00    +0.000 C 
ATOM      4  C   UNL     1       1.568   9.860  19.361  0.00  0.00    +0.000 A 
ATOM      5  C   UNL     1       1.117  10.258  20.602  0.00  0.00    +0.000 A 
ATOM      6  S   UNL     1       1.019   8.983  21.701  0.00  0.00    +0.000 S 
ATOM      7  C   UNL     1       1.498   7.828  20.543  0.00  0.00    +0.000 A 
ATOM      8  C   UNL     1       1.803   8.413  19.309  0.00  0.00    +0.000 A 
ATOM      9  C   UNL     1       0.788  11.659  21.033  0.00  0.00    +0.000 C 
ENDROOT
BRANCH   7  10
ATOM     10  N   UNL     1       1.553   6.479  20.913  0.00  0.00    +0.000 N 
ATOM     11  C   UNL     1       2.553   5.573  20.582  0.00  0.00    +0.000 C 
ATOM     12  O   UNL     1       3.606   5.803  19.993  0.00  0.00    +0.000 OA
ATOM     13  H   UNL     1       0.852   6.187  21.584  0.00  0.00    +0.000 HD
BRANCH  11  14
ATOM     14  C   UNL     1       2.258   4.132  20.988  0.00  0.00    +0.000 C 
BRANCH  14  15
ATOM     15  C   UNL     1       2.386   3.133  19.817  0.00  0.00    +0.000 C 
ATOM     16  C   UNL     1       1.450   3.444  18.646  0.00  0.00    +0.000 C 
BRANCH  15  17
ATOM     17  C   UNL     1       3.823   3.102  19.253  0.00  0.00    +0.000 C 
BRANCH  17  18
ATOM     18  C   UNL     1       4.490   1.791  19.522  0.00  0.00    +0.000 C 
ATOM     19  O   UNL     1       5.189   1.600  20.504  0.00  0.00    +0.000 OA
BRANCH  18  20
ATOM     20  O   UNL     1       4.232   0.831  18.610  0.00  0.00    +0.000 OA
ATOM     21  H   UNL     1       4.985   0.589  18.039  0.00  0.00    +0.000 HD
ENDBRANCH  18  20
ENDBRANCH  17  18
ENDBRANCH  15  17
ENDBRANCH  14  15
ENDBRANCH  11  14
ENDBRANCH   7  10
BRANCH   8  22
ATOM     22  C   UNL     1       2.226   7.681  18.095  0.00  0.00    +0.000 C 
ATOM     23  O   UNL     1       1.415   7.105  17.382  0.00  0.00    +0.000 OA
ATOM     24  N   UNL     1       3.583   7.712  17.807  0.00  0.00    +0.000 N 
ATOM     25  H   UNL     1       4.079   8.541  18.106  0.00  0.00    +0.000 HD
BRANCH  24  26
ATOM     26  C   UNL     1       4.077   7.073  16.591  0.00  0.00    +0.000 C 
BRANCH  26  27
ATOM     27  C   UNL     1       5.274   6.163  16.777  0.00  0.00    +0.000 A 
ATOM     28  C   UNL     1       5.507   5.034  15.988  0.00  0.00    +0.000 A 
ATOM     29  C   UNL     1       6.662   4.264  16.157  0.00  0.00    +0.000 A 
ATOM     30  C   UNL     1       7.569   4.549  17.166  0.00  0.00    +0.000 A 
ATOM     31  C   UNL     1       7.373   5.678  17.947  0.00  0.00    +0.000 A 
ATOM     32  C   UNL     1       6.250   6.492  17.736  0.00  0.00    +0.000 A 
ENDBRANCH  26  27
ENDBRANCH  24  26
ENDBRANCH   8  22
BRANCH   1  34
ATOM     33  C   UNL     1      -1.953  13.073  19.971  0.00  0.00    +0.000 C 
ATOM     34  C   UNL     1      -0.807  12.494  19.151  0.00  0.00    +0.000 C 
ENDBRANCH   1  34
TORSDOF 10
ENDMDL
