MODEL 1
REMARK VINA RESULT:      -7.2      0.000      0.000
REMARK  Name = 
REMARK  6 active torsions:
REMARK  status: ('A' for Active; 'I' for Inactive)
REMARK    1  A    between atoms: C_8  and  C_9
REMARK    2  A    between atoms: C_12  and  C_13
REMARK    3  A    between atoms: C_13  and  N_14
REMARK    4  A    between atoms: N_14  and  C_15
REMARK    5  A    between atoms: C_15  and  C_16
REMARK    6  A    between atoms: C_16  and  N_17
REMARK                            x       y       z     vdW  Elec       q    Type
REMARK                         _______ _______ _______ _____ _____    ______ ____
ROOT
ATOM      1  C   UNL     1       4.506   4.392  19.191  0.00  0.00    +0.000 A 
ATOM      2  N   UNL     1       5.593   3.999  19.829  0.00  0.00    +0.000 NA
ATOM      3  N   UNL     1       6.626   4.799  19.397  0.00  0.00    +0.000 NA
ATOM      4  C   UNL     1       6.103   5.630  18.521  0.00  0.00    +0.000 A 
ATOM      5  O   UNL     1       4.754   5.452  18.355  0.00  0.00    +0.000 OA
ENDROOT
BRANCH   1  13
ATOM      6 CL   UNL     1       3.840   1.568  17.937  0.00  0.00    +0.000 Cl
ATOM      7  C   UNL     1       2.757   2.628  18.773  0.00  0.00    +0.000 A 
ATOM      8  C   UNL     1       1.451   2.141  18.942  0.00  0.00    +0.000 A 
ATOM      9  C   UNL     1       0.494   2.895  19.613  0.00  0.00    +0.000 A 
ATOM     10  C   UNL     1       0.841   4.148  20.106  0.00  0.00    +0.000 A 
ATOM     11  C   UNL     1       2.144   4.641  19.941  0.00  0.00    +0.000 A 
ATOM     12 CL   UNL     1       2.422   6.240  20.555  0.00  0.00    +0.000 Cl
ATOM     13  C   UNL     1       3.138   3.887  19.281  0.00  0.00    +0.000 A 
ENDBRANCH   1  13
BRANCH   4  14
ATOM     14  C   UNL     1       6.783   6.636  17.661  0.00  0.00    +0.000 C 
BRANCH  14  15
ATOM     15  N   UNL     1       7.089   6.156  16.295  0.00  0.00    +0.000 NA
ATOM     16  H   UNL     1       7.999   6.548  16.036  0.00  0.00    +0.000 HD
BRANCH  15  17
ATOM     17  C   UNL     1       7.196   4.685  16.197  0.00  0.00    +0.000 C 
BRANCH  17  18
ATOM     18  C   UNL     1       6.197   4.044  15.229  0.00  0.00    +0.000 C 
BRANCH  18  19
ATOM     19  N   UNL     1       6.578   4.223  13.840  0.00  0.00    +0.000 N 
ATOM     20  C   UNL     1       6.184   3.462  12.778  0.00  0.00    +0.000 A 
ATOM     21  C   UNL     1       6.876   3.941  11.690  0.00  0.00    +0.000 A 
ATOM     22  C   UNL     1       7.661   4.991  12.201  0.00  0.00    +0.000 A 
ATOM     23  N   UNL     1       7.474   5.171  13.509  0.00  0.00    +0.000 NA
ENDBRANCH  18  19
ENDBRANCH  17  18
ENDBRANCH  15  17
ENDBRANCH  14  15
ENDBRANCH   4  14
TORSDOF 6
ENDMDL
MODEL 2
REMARK VINA RESULT:      -7.2      1.304      2.384
REMARK  Name = 
REMARK  6 active torsions:
REMARK  status: ('A' for Active; 'I' for Inactive)
REMARK    1  A    between atoms: C_8  and  C_9
REMARK    2  A    between atoms: C_12  and  C_13
REMARK    3  A    between atoms: C_13  and  N_14
REMARK    4  A    between atoms: N_14  and  C_15
REMARK    5  A    between atoms: C_15  and  C_16
REMARK    6  A    between atoms: C_16  and  N_17
REMARK                            x       y       z     vdW  Elec       q    Type
REMARK                         _______ _______ _______ _____ _____    ______ ____
ROOT
ATOM      1  C   UNL     1       3.606   5.468  18.401  0.00  0.00    +0.000 A 
ATOM      2  N   UNL     1       3.262   6.416  17.548  0.00  0.00    +0.000 NA
ATOM      3  N   UNL     1       4.424   7.022  17.126  0.00  0.00    +0.000 NA
ATOM      4  C   UNL     1       5.404   6.403  17.749  0.00  0.00    +0.000 A 
ATOM      5  O   UNL     1       4.967   5.386  18.557  0.00  0.00    +0.000 OA
ENDROOT
BRANCH   1  13
ATOM      6 CL   UNL     1       1.779   6.559  20.737  0.00  0.00    +0.000 Cl
ATOM      7  C   UNL     1       1.902   4.927  20.174  0.00  0.00    +0.000 A 
ATOM      8  C   UNL     1       1.053   4.006  20.811  0.00  0.00    +0.000 A 
ATOM      9  C   UNL     1       1.050   2.668  20.434  0.00  0.00    +0.000 A 
ATOM     10  C   UNL     1       1.908   2.245  19.426  0.00  0.00    +0.000 A 
ATOM     11  C   UNL     1       2.758   3.158  18.786  0.00  0.00    +0.000 A 
ATOM     12 CL   UNL     1       3.815   2.484  17.586  0.00  0.00    +0.000 Cl
ATOM     13  C   UNL     1       2.767   4.526  19.136  0.00  0.00    +0.000 A 
ENDBRANCH   1  13
BRANCH   4  14
ATOM     14  C   UNL     1       6.859   6.718  17.751  0.00  0.00    +0.000 C 
BRANCH  14  15
ATOM     15  N   UNL     1       7.604   6.137  16.614  0.00  0.00    +0.000 NA
ATOM     16  H   UNL     1       8.597   6.333  16.774  0.00  0.00    +0.000 HD
BRANCH  15  17
ATOM     17  C   UNL     1       7.456   4.670  16.499  0.00  0.00    +0.000 C 
BRANCH  17  18
ATOM     18  C   UNL     1       6.358   4.223  15.529  0.00  0.00    +0.000 C 
BRANCH  18  19
ATOM     19  N   UNL     1       6.731   4.422  14.140  0.00  0.00    +0.000 N 
ATOM     20  C   UNL     1       6.279   3.718  13.061  0.00  0.00    +0.000 A 
ATOM     21  C   UNL     1       6.984   4.189  11.978  0.00  0.00    +0.000 A 
ATOM     22  C   UNL     1       7.835   5.175  12.508  0.00  0.00    +0.000 A 
ATOM     23  N   UNL     1       7.676   5.326  13.824  0.00  0.00    +0.000 NA
ENDBRANCH  18  19
ENDBRANCH  17  18
ENDBRANCH  15  17
ENDBRANCH  14  15
ENDBRANCH   4  14
TORSDOF 6
ENDMDL
MODEL 3
REMARK VINA RESULT:      -7.0      2.810      4.775
REMARK  Name = 
REMARK  6 active torsions:
REMARK  status: ('A' for Active; 'I' for Inactive)
REMARK    1  A    between atoms: C_8  and  C_9
REMARK    2  A    between atoms: C_12  and  C_13
REMARK    3  A    between atoms: C_13  and  N_14
REMARK    4  A    between atoms: N_14  and  C_15
REMARK    5  A    between atoms: C_15  and  C_16
REMARK    6  A    between atoms: C_16  and  N_17
REMARK                            x       y       z     vdW  Elec       q    Type
REMARK                         _______ _______ _______ _____ _____    ______ ____
ROOT
ATOM      1  C   UNL     1       4.535   4.348  18.803  0.00  0.00    +0.000 A 
ATOM      2  N   UNL     1       5.725   4.017  19.271  0.00  0.00    +0.000 NA
ATOM      3  N   UNL     1       6.657   4.704  18.526  0.00  0.00    +0.000 NA
ATOM      4  C   UNL     1       5.975   5.410  17.650  0.00  0.00    +0.000 A 
ATOM      5  O   UNL     1       4.620   5.259  17.779  0.00  0.00    +0.000 OA
ENDROOT
BRANCH   1  13
ATOM      6 CL   UNL     1       3.721   1.320  18.401  0.00  0.00    +0.000 Cl
ATOM      7  C   UNL     1       2.772   2.577  19.118  0.00  0.00    +0.000 A 
ATOM      8  C   UNL     1       1.519   2.177  19.611  0.00  0.00    +0.000 A 
ATOM      9  C   UNL     1       0.673   3.095  20.224  0.00  0.00    +0.000 A 
ATOM     10  C   UNL     1       1.074   4.421  20.333  0.00  0.00    +0.000 A 
ATOM     11  C   UNL     1       2.323   4.828  19.843  0.00  0.00    +0.000 A 
ATOM     12 CL   UNL     1       2.672   6.521  19.994  0.00  0.00    +0.000 Cl
ATOM     13  C   UNL     1       3.209   3.913  19.234  0.00  0.00    +0.000 A 
ENDBRANCH   1  13
BRANCH   4  14
ATOM     14  C   UNL     1       6.478   6.249  16.528  0.00  0.00    +0.000 C 
BRANCH  14  15
ATOM     15  N   UNL     1       7.744   6.955  16.821  0.00  0.00    +0.000 NA
ATOM     16  H   UNL     1       8.183   7.173  15.922  0.00  0.00    +0.000 HD
BRANCH  15  17
ATOM     17  C   UNL     1       7.553   8.233  17.541  0.00  0.00    +0.000 C 
BRANCH  17  18
ATOM     18  C   UNL     1       8.592   8.501  18.634  0.00  0.00    +0.000 C 
BRANCH  18  19
ATOM     19  N   UNL     1       8.889   9.914  18.783  0.00  0.00    +0.000 N 
ATOM     20  C   UNL     1       8.818  10.872  17.814  0.00  0.00    +0.000 A 
ATOM     21  C   UNL     1       9.288  12.030  18.390  0.00  0.00    +0.000 A 
ATOM     22  C   UNL     1       9.615  11.665  19.708  0.00  0.00    +0.000 A 
ATOM     23  N   UNL     1       9.364  10.378  19.954  0.00  0.00    +0.000 NA
ENDBRANCH  18  19
ENDBRANCH  17  18
ENDBRANCH  15  17
ENDBRANCH  14  15
ENDBRANCH   4  14
TORSDOF 6
ENDMDL
MODEL 4
REMARK VINA RESULT:      -7.0      3.249      5.177
REMARK  Name = 
REMARK  6 active torsions:
REMARK  status: ('A' for Active; 'I' for Inactive)
REMARK    1  A    between atoms: C_8  and  C_9
REMARK    2  A    between atoms: C_12  and  C_13
REMARK    3  A    between atoms: C_13  and  N_14
REMARK    4  A    between atoms: N_14  and  C_15
REMARK    5  A    between atoms: C_15  and  C_16
REMARK    6  A    between atoms: C_16  and  N_17
REMARK                            x       y       z     vdW  Elec       q    Type
REMARK                         _______ _______ _______ _____ _____    ______ ____
ROOT
ATOM      1  C   UNL     1       4.172   4.612  17.883  0.00  0.00    +0.000 A 
ATOM      2  N   UNL     1       4.252   4.480  16.571  0.00  0.00    +0.000 NA
ATOM      3  N   UNL     1       5.468   4.998  16.186  0.00  0.00    +0.000 NA
ATOM      4  C   UNL     1       6.053   5.413  17.288  0.00  0.00    +0.000 A 
ATOM      5  O   UNL     1       5.305   5.179  18.412  0.00  0.00    +0.000 OA
ENDROOT
BRANCH   1  13
ATOM      6 CL   UNL     1       3.546   1.539  18.271  0.00  0.00    +0.000 Cl
ATOM      7  C   UNL     1       2.771   2.876  19.051  0.00  0.00    +0.000 A 
ATOM      8  C   UNL     1       1.786   2.534  19.992  0.00  0.00    +0.000 A 
ATOM      9  C   UNL     1       1.105   3.522  20.695  0.00  0.00    +0.000 A 
ATOM     10  C   UNL     1       1.400   4.857  20.448  0.00  0.00    +0.000 A 
ATOM     11  C   UNL     1       2.382   5.206  19.509  0.00  0.00    +0.000 A 
ATOM     12 CL   UNL     1       2.608   6.909  19.260  0.00  0.00    +0.000 Cl
ATOM     13  C   UNL     1       3.102   4.223  18.796  0.00  0.00    +0.000 A 
ENDBRANCH   1  13
BRANCH   4  14
ATOM     14  C   UNL     1       7.334   6.154  17.446  0.00  0.00    +0.000 C 
BRANCH  14  15
ATOM     15  N   UNL     1       7.212   7.618  17.270  0.00  0.00    +0.000 NA
ATOM     16  H   UNL     1       6.273   7.881  17.583  0.00  0.00    +0.000 HD
BRANCH  15  17
ATOM     17  C   UNL     1       8.180   8.392  18.075  0.00  0.00    +0.000 C 
BRANCH  17  18
ATOM     18  C   UNL     1       8.064   9.910  17.911  0.00  0.00    +0.000 C 
BRANCH  18  19
ATOM     19  N   UNL     1       9.151  10.623  18.557  0.00  0.00    +0.000 N 
ATOM     20  C   UNL     1      10.171  11.292  17.943  0.00  0.00    +0.000 A 
ATOM     21  C   UNL     1      11.008  11.712  18.950  0.00  0.00    +0.000 A 
ATOM     22  C   UNL     1      10.407  11.248  20.132  0.00  0.00    +0.000 A 
ATOM     23  N   UNL     1       9.269  10.591  19.897  0.00  0.00    +0.000 NA
ENDBRANCH  18  19
ENDBRANCH  17  18
ENDBRANCH  15  17
ENDBRANCH  14  15
ENDBRANCH   4  14
TORSDOF 6
ENDMDL
MODEL 5
REMARK VINA RESULT:      -6.9      1.091      2.185
REMARK  Name = 
REMARK  6 active torsions:
REMARK  status: ('A' for Active; 'I' for Inactive)
REMARK    1  A    between atoms: C_8  and  C_9
REMARK    2  A    between atoms: C_12  and  C_13
REMARK    3  A    between atoms: C_13  and  N_14
REMARK    4  A    between atoms: N_14  and  C_15
REMARK    5  A    between atoms: C_15  and  C_16
REMARK    6  A    between atoms: C_16  and  N_17
REMARK                            x       y       z     vdW  Elec       q    Type
REMARK                         _______ _______ _______ _____ _____    ______ ____
ROOT
ATOM      1  C   UNL     1       4.779   4.900  19.331  0.00  0.00    +0.000 A 
ATOM      2  N   UNL     1       5.973   4.795  19.886  0.00  0.00    +0.000 NA
ATOM      3  N   UNL     1       6.859   5.458  19.067  0.00  0.00    +0.000 NA
ATOM      4  C   UNL     1       6.149   5.926  18.063  0.00  0.00    +0.000 A 
ATOM      5  O   UNL     1       4.814   5.636  18.172  0.00  0.00    +0.000 OA
ENDROOT
BRANCH   1  13
ATOM      6 CL   UNL     1       2.439   6.948  19.894  0.00  0.00    +0.000 Cl
ATOM      7  C   UNL     1       2.383   5.224  20.036  0.00  0.00    +0.000 A 
ATOM      8  C   UNL     1       1.136   4.690  20.400  0.00  0.00    +0.000 A 
ATOM      9  C   UNL     1       0.963   3.317  20.530  0.00  0.00    +0.000 A 
ATOM     10  C   UNL     1       2.045   2.472  20.307  0.00  0.00    +0.000 A 
ATOM     11  C   UNL     1       3.293   2.997  19.943  0.00  0.00    +0.000 A 
ATOM     12 CL   UNL     1       4.567   1.835  19.751  0.00  0.00    +0.000 Cl
ATOM     13  C   UNL     1       3.490   4.386  19.786  0.00  0.00    +0.000 A 
ENDBRANCH   1  13
BRANCH   4  14
ATOM     14  C   UNL     1       6.611   6.625  16.834  0.00  0.00    +0.000 C 
BRANCH  14  15
ATOM     15  N   UNL     1       7.460   5.796  15.950  0.00  0.00    +0.000 NA
ATOM     16  H   UNL     1       8.313   5.576  16.473  0.00  0.00    +0.000 HD
BRANCH  15  17
ATOM     17  C   UNL     1       6.834   4.513  15.565  0.00  0.00    +0.000 C 
BRANCH  17  18
ATOM     18  C   UNL     1       5.585   4.659  14.691  0.00  0.00    +0.000 C 
BRANCH  18  19
ATOM     19  N   UNL     1       5.729   4.001  13.405  0.00  0.00    +0.000 N 
ATOM     20  C   UNL     1       4.741   3.408  12.674  0.00  0.00    +0.000 A 
ATOM     21  C   UNL     1       5.364   2.834  11.590  0.00  0.00    +0.000 A 
ATOM     22  C   UNL     1       6.726   3.137  11.759  0.00  0.00    +0.000 A 
ATOM     23  N   UNL     1       6.951   3.857  12.860  0.00  0.00    +0.000 NA
ENDBRANCH  18  19
ENDBRANCH  17  18
ENDBRANCH  15  17
ENDBRANCH  14  15
ENDBRANCH   4  14
TORSDOF 6
ENDMDL
MODEL 6
REMARK VINA RESULT:      -6.9      3.255      5.301
REMARK  Name = 
REMARK  6 active torsions:
REMARK  status: ('A' for Active; 'I' for Inactive)
REMARK    1  A    between atoms: C_8  and  C_9
REMARK    2  A    between atoms: C_12  and  C_13
REMARK    3  A    between atoms: C_13  and  N_14
REMARK    4  A    between atoms: N_14  and  C_15
REMARK    5  A    between atoms: C_15  and  C_16
REMARK    6  A    between atoms: C_16  and  N_17
REMARK                            x       y       z     vdW  Elec       q    Type
REMARK                         _______ _______ _______ _____ _____    ______ ____
ROOT
ATOM      1  C   UNL     1       4.137   5.101  18.133  0.00  0.00    +0.000 A 
ATOM      2  N   UNL     1       4.155   5.363  16.839  0.00  0.00    +0.000 NA
ATOM      3  N   UNL     1       5.388   5.905  16.553  0.00  0.00    +0.000 NA
ATOM      4  C   UNL     1       6.044   5.940  17.693  0.00  0.00    +0.000 A 
ATOM      5  O   UNL     1       5.327   5.422  18.739  0.00  0.00    +0.000 OA
ENDROOT
BRANCH   1  13
ATOM      6 CL   UNL     1       3.728   1.968  18.077  0.00  0.00    +0.000 Cl
ATOM      7  C   UNL     1       2.843   3.127  19.009  0.00  0.00    +0.000 A 
ATOM      8  C   UNL     1       1.866   2.591  19.865  0.00  0.00    +0.000 A 
ATOM      9  C   UNL     1       1.101   3.421  20.676  0.00  0.00    +0.000 A 
ATOM     10  C   UNL     1       1.303   4.795  20.623  0.00  0.00    +0.000 A 
ATOM     11  C   UNL     1       2.276   5.338  19.771  0.00  0.00    +0.000 A 
ATOM     12 CL   UNL     1       2.383   7.070  19.765  0.00  0.00    +0.000 Cl
ATOM     13  C   UNL     1       3.079   4.516  18.952  0.00  0.00    +0.000 A 
ENDBRANCH   1  13
BRANCH   4  14
ATOM     14  C   UNL     1       7.378   6.530  17.988  0.00  0.00    +0.000 C 
BRANCH  14  15
ATOM     15  N   UNL     1       7.765   7.634  17.083  0.00  0.00    +0.000 NA
ATOM     16  H   UNL     1       7.064   7.670  16.336  0.00  0.00    +0.000 HD
BRANCH  15  17
ATOM     17  C   UNL     1       7.779   8.958  17.740  0.00  0.00    +0.000 C 
BRANCH  17  18
ATOM     18  C   UNL     1       8.868   9.120  18.806  0.00  0.00    +0.000 C 
BRANCH  18  19
ATOM     19  N   UNL     1       9.163  10.513  19.089  0.00  0.00    +0.000 N 
ATOM     20  C   UNL     1       9.443  11.059  20.308  0.00  0.00    +0.000 A 
ATOM     21  C   UNL     1       9.549  12.415  20.100  0.00  0.00    +0.000 A 
ATOM     22  C   UNL     1       9.319  12.585  18.724  0.00  0.00    +0.000 A 
ATOM     23  N   UNL     1       9.092  11.426  18.103  0.00  0.00    +0.000 NA
ENDBRANCH  18  19
ENDBRANCH  17  18
ENDBRANCH  15  17
ENDBRANCH  14  15
ENDBRANCH   4  14
TORSDOF 6
ENDMDL
MODEL 7
REMARK VINA RESULT:      -6.8      1.647      2.682
REMARK  Name = 
REMARK  6 active torsions:
REMARK  status: ('A' for Active; 'I' for Inactive)
REMARK    1  A    between atoms: C_8  and  C_9
REMARK    2  A    between atoms: C_12  and  C_13
REMARK    3  A    between atoms: C_13  and  N_14
REMARK    4  A    between atoms: N_14  and  C_15
REMARK    5  A    between atoms: C_15  and  C_16
REMARK    6  A    between atoms: C_16  and  N_17
REMARK                            x       y       z     vdW  Elec       q    Type
REMARK                         _______ _______ _______ _____ _____    ______ ____
ROOT
ATOM      1  C   UNL     1       5.085   4.520  19.148  0.00  0.00    +0.000 A 
ATOM      2  N   UNL     1       6.174   5.050  19.672  0.00  0.00    +0.000 NA
ATOM      3  N   UNL     1       7.110   5.128  18.666  0.00  0.00    +0.000 NA
ATOM      4  C   UNL     1       6.531   4.638  17.591  0.00  0.00    +0.000 A 
ATOM      5  O   UNL     1       5.234   4.255  17.809  0.00  0.00    +0.000 OA
ENDROOT
BRANCH   1  13
ATOM      6 CL   UNL     1       2.850   6.754  19.164  0.00  0.00    +0.000 Cl
ATOM      7  C   UNL     1       2.736   5.150  19.802  0.00  0.00    +0.000 A 
ATOM      8  C   UNL     1       1.486   4.806  20.344  0.00  0.00    +0.000 A 
ATOM      9  C   UNL     1       1.267   3.539  20.873  0.00  0.00    +0.000 A 
ATOM     10  C   UNL     1       2.305   2.614  20.872  0.00  0.00    +0.000 A 
ATOM     11  C   UNL     1       3.556   2.950  20.333  0.00  0.00    +0.000 A 
ATOM     12 CL   UNL     1       4.775   1.721  20.448  0.00  0.00    +0.000 Cl
ATOM     13  C   UNL     1       3.798   4.223  19.772  0.00  0.00    +0.000 A 
ENDBRANCH   1  13
BRANCH   4  14
ATOM     14  C   UNL     1       7.117   4.380  16.247  0.00  0.00    +0.000 C 
BRANCH  14  15
ATOM     15  N   UNL     1       6.218   3.650  15.326  0.00  0.00    +0.000 NA
ATOM     16  H   UNL     1       5.357   3.448  15.844  0.00  0.00    +0.000 HD
BRANCH  15  17
ATOM     17  C   UNL     1       5.842   4.430  14.128  0.00  0.00    +0.000 C 
BRANCH  17  18
ATOM     18  C   UNL     1       6.837   4.323  12.969  0.00  0.00    +0.000 C 
BRANCH  18  19
ATOM     19  N   UNL     1       6.570   3.181  12.113  0.00  0.00    +0.000 N 
ATOM     20  C   UNL     1       5.367   2.567  11.917  0.00  0.00    +0.000 A 
ATOM     21  C   UNL     1       5.623   1.479  11.114  0.00  0.00    +0.000 A 
ATOM     22  C   UNL     1       7.008   1.526  10.881  0.00  0.00    +0.000 A 
ATOM     23  N   UNL     1       7.588   2.567  11.481  0.00  0.00    +0.000 NA
ENDBRANCH  18  19
ENDBRANCH  17  18
ENDBRANCH  15  17
ENDBRANCH  14  15
ENDBRANCH   4  14
TORSDOF 6
ENDMDL
MODEL 8
REMARK VINA RESULT:      -6.7      3.089      4.987
REMARK  Name = 
REMARK  6 active torsions:
REMARK  status: ('A' for Active; 'I' for Inactive)
REMARK    1  A    between atoms: C_8  and  C_9
REMARK    2  A    between atoms: C_12  and  C_13
REMARK    3  A    between atoms: C_13  and  N_14
REMARK    4  A    between atoms: N_14  and  C_15
REMARK    5  A    between atoms: C_15  and  C_16
REMARK    6  A    between atoms: C_16  and  N_17
REMARK                            x       y       z     vdW  Elec       q    Type
REMARK                         _______ _______ _______ _____ _____    ______ ____
ROOT
ATOM      1  C   UNL     1       4.382   4.043  18.232  0.00  0.00    +0.000 A 
ATOM      2  N   UNL     1       4.437   3.756  16.945  0.00  0.00    +0.000 NA
ATOM      3  N   UNL     1       5.658   4.195  16.484  0.00  0.00    +0.000 NA
ATOM      4  C   UNL     1       6.270   4.723  17.522  0.00  0.00    +0.000 A 
ATOM      5  O   UNL     1       5.535   4.642  18.676  0.00  0.00    +0.000 OA
ENDROOT
BRANCH   1  13
ATOM      6 CL   UNL     1       4.755   1.708  20.329  0.00  0.00    +0.000 Cl
ATOM      7  C   UNL     1       3.410   2.788  20.187  0.00  0.00    +0.000 A 
ATOM      8  C   UNL     1       2.401   2.621  21.150  0.00  0.00    +0.000 A 
ATOM      9  C   UNL     1       1.278   3.440  21.149  0.00  0.00    +0.000 A 
ATOM     10  C   UNL     1       1.155   4.423  20.174  0.00  0.00    +0.000 A 
ATOM     11  C   UNL     1       2.159   4.596  19.209  0.00  0.00    +0.000 A 
ATOM     12 CL   UNL     1       1.850   5.822  18.020  0.00  0.00    +0.000 Cl
ATOM     13  C   UNL     1       3.318   3.791  19.200  0.00  0.00    +0.000 A 
ENDBRANCH   1  13
BRANCH   4  14
ATOM     14  C   UNL     1       7.570   5.447  17.574  0.00  0.00    +0.000 C 
BRANCH  14  15
ATOM     15  N   UNL     1       7.511   6.833  17.062  0.00  0.00    +0.000 NA
ATOM     16  H   UNL     1       6.521   7.066  16.936  0.00  0.00    +0.000 HD
BRANCH  15  17
ATOM     17  C   UNL     1       8.085   7.830  17.990  0.00  0.00    +0.000 C 
BRANCH  17  18
ATOM     18  C   UNL     1       7.850   9.286  17.576  0.00  0.00    +0.000 C 
BRANCH  18  19
ATOM     19  N   UNL     1       8.682  10.215  18.318  0.00  0.00    +0.000 N 
ATOM     20  C   UNL     1       9.246  10.011  19.544  0.00  0.00    +0.000 A 
ATOM     21  C   UNL     1       9.851  11.198  19.886  0.00  0.00    +0.000 A 
ATOM     22  C   UNL     1       9.596  12.054  18.800  0.00  0.00    +0.000 A 
ATOM     23  N   UNL     1       8.891  11.455  17.839  0.00  0.00    +0.000 NA
ENDBRANCH  18  19
ENDBRANCH  17  18
ENDBRANCH  15  17
ENDBRANCH  14  15
ENDBRANCH   4  14
TORSDOF 6
ENDMDL
MODEL 9
REMARK VINA RESULT:      -6.6      2.877      5.263
REMARK  Name = 
REMARK  6 active torsions:
REMARK  status: ('A' for Active; 'I' for Inactive)
REMARK    1  A    between atoms: C_8  and  C_9
REMARK    2  A    between atoms: C_12  and  C_13
REMARK    3  A    between atoms: C_13  and  N_14
REMARK    4  A    between atoms: N_14  and  C_15
REMARK    5  A    between atoms: C_15  and  C_16
REMARK    6  A    between atoms: C_16  and  N_17
REMARK                            x       y       z     vdW  Elec       q    Type
REMARK                         _______ _______ _______ _____ _____    ______ ____
ROOT
ATOM      1  C   UNL     1       4.434   4.381  18.901  0.00  0.00    +0.000 A 
ATOM      2  N   UNL     1       5.640   3.992  19.270  0.00  0.00    +0.000 NA
ATOM      3  N   UNL     1       6.542   4.821  18.641  0.00  0.00    +0.000 NA
ATOM      4  C   UNL     1       5.827   5.664  17.927  0.00  0.00    +0.000 A 
ATOM      5  O   UNL     1       4.477   5.466  18.060  0.00  0.00    +0.000 OA
ENDROOT
BRANCH   1  13
ATOM      6 CL   UNL     1       2.406   6.270  20.420  0.00  0.00    +0.000 Cl
ATOM      7  C   UNL     1       2.151   4.629  19.934  0.00  0.00    +0.000 A 
ATOM      8  C   UNL     1       0.876   4.110  20.216  0.00  0.00    +0.000 A 
ATOM      9  C   UNL     1       0.546   2.808  19.858  0.00  0.00    +0.000 A 
ATOM     10  C   UNL     1       1.497   2.015  19.227  0.00  0.00    +0.000 A 
ATOM     11  C   UNL     1       2.773   2.526  18.943  0.00  0.00    +0.000 A 
ATOM     12 CL   UNL     1       3.878   1.410  18.205  0.00  0.00    +0.000 Cl
ATOM     13  C   UNL     1       3.127   3.851  19.278  0.00  0.00    +0.000 A 
ENDBRANCH   1  13
BRANCH   4  14
ATOM     14  C   UNL     1       6.287   6.703  16.966  0.00  0.00    +0.000 C 
BRANCH  14  15
ATOM     15  N   UNL     1       7.728   7.020  17.064  0.00  0.00    +0.000 NA
ATOM     16  H   UNL     1       8.027   7.348  16.141  0.00  0.00    +0.000 HD
BRANCH  15  17
ATOM     17  C   UNL     1       8.031   8.094  18.034  0.00  0.00    +0.000 C 
BRANCH  17  18
ATOM     18  C   UNL     1       8.158   9.488  17.412  0.00  0.00    +0.000 C 
BRANCH  18  19
ATOM     19  N   UNL     1       8.779  10.443  18.312  0.00  0.00    +0.000 N 
ATOM     20  C   UNL     1       9.009  11.766  18.070  0.00  0.00    +0.000 A 
ATOM     21  C   UNL     1       9.707  12.235  19.159  0.00  0.00    +0.000 A 
ATOM     22  C   UNL     1       9.847  11.118  20.001  0.00  0.00    +0.000 A 
ATOM     23  N   UNL     1       9.275  10.025  19.492  0.00  0.00    +0.000 NA
ENDBRANCH  18  19
ENDBRANCH  17  18
ENDBRANCH  15  17
ENDBRANCH  14  15
ENDBRANCH   4  14
TORSDOF 6
ENDMDL
