MODEL 1
REMARK VINA RESULT:      -8.0      0.000      0.000
REMARK  Name = 
REMARK  7 active torsions:
REMARK  status: ('A' for Active; 'I' for Inactive)
REMARK    1  A    between atoms: C_1  and  C_2
REMARK    2  A    between atoms: C_6  and  O_7
REMARK    3  A    between atoms: O_7  and  C_8
REMARK    4  A    between atoms: C_8  and  C_9
REMARK    5  A    between atoms: C_9  and  C_10
REMARK    6  A    between atoms: C_10  and  N_11
REMARK    7  A    between atoms: C_18  and  C_19
REMARK                            x       y       z     vdW  Elec       q    Type
REMARK                         _______ _______ _______ _____ _____    ______ ____
ROOT
ATOM      1  C   UNL     1       7.561   6.249  18.447  0.00  0.00    +0.000 C 
ENDROOT
BRANCH   1   2
ATOM      2  N   UNL     1       6.635   5.147  18.187  0.00  0.00    +0.000 N 
ATOM      3  C   UNL     1       6.849   4.526  16.922  0.00  0.00    +0.000 A 
ATOM      4  O   UNL     1       7.881   4.572  16.272  0.00  0.00    +0.000 OA
ATOM      5  O   UNL     1       5.721   3.906  16.423  0.00  0.00    +0.000 OA
ATOM      6  C   UNL     1       4.763   4.266  17.341  0.00  0.00    +0.000 A 
ATOM      7  C   UNL     1       3.425   3.968  17.117  0.00  0.00    +0.000 A 
ATOM      8  C   UNL     1       2.530   4.316  18.108  0.00  0.00    +0.000 A 
ATOM      9  C   UNL     1       2.990   4.885  19.313  0.00  0.00    +0.000 A 
ATOM     10  C   UNL     1       1.949   4.946  20.407  0.00  0.00    +0.000 C 
ATOM     11  C   UNL     1       4.374   5.238  19.483  0.00  0.00    +0.000 A 
ATOM     12  C   UNL     1       5.258   4.960  18.444  0.00  0.00    +0.000 A 
ENDBRANCH   1   2
BRANCH   1  13
ATOM     13  C   UNL     1       7.677   7.593  17.696  0.00  0.00    +0.000 C 
BRANCH  13  14
ATOM     14  C   UNL     1       8.584   8.623  18.503  0.00  0.00    +0.000 C 
BRANCH  14  15
ATOM     15  O   UNL     1       8.450   9.958  17.976  0.00  0.00    +0.000 OA
BRANCH  15  21
ATOM     16  C   UNL     1      10.839  14.414  17.723  0.00  0.00    +0.000 C 
ATOM     17  C   UNL     1      10.429  13.147  18.421  0.00  0.00    +0.000 A 
ATOM     18  C   UNL     1      10.883  12.922  19.728  0.00  0.00    +0.000 A 
ATOM     19  C   UNL     1      10.528  11.744  20.385  0.00  0.00    +0.000 A 
ATOM     20  C   UNL     1       9.720  10.795  19.743  0.00  0.00    +0.000 A 
ATOM     21  C   UNL     1       9.244  10.994  18.437  0.00  0.00    +0.000 A 
ATOM     22  C   UNL     1       9.605  12.172  17.780  0.00  0.00    +0.000 A 
ENDBRANCH  15  21
ENDBRANCH  14  15
ENDBRANCH  13  14
ENDBRANCH   1  13
TORSDOF 5
ENDMDL
MODEL 2
REMARK VINA RESULT:      -7.8      0.746      1.440
REMARK  Name = 
REMARK  7 active torsions:
REMARK  status: ('A' for Active; 'I' for Inactive)
REMARK    1  A    between atoms: C_1  and  C_2
REMARK    2  A    between atoms: C_6  and  O_7
REMARK    3  A    between atoms: O_7  and  C_8
REMARK    4  A    between atoms: C_8  and  C_9
REMARK    5  A    between atoms: C_9  and  C_10
REMARK    6  A    between atoms: C_10  and  N_11
REMARK    7  A    between atoms: C_18  and  C_19
REMARK                            x       y       z     vdW  Elec       q    Type
REMARK                         _______ _______ _______ _____ _____    ______ ____
ROOT
ATOM      1  C   UNL     1       7.500   6.390  18.278  0.00  0.00    +0.000 C 
ENDROOT
BRANCH   1   2
ATOM      2  N   UNL     1       6.575   5.264  18.160  0.00  0.00    +0.000 N 
ATOM      3  C   UNL     1       6.783   4.493  16.979  0.00  0.00    +0.000 A 
ATOM      4  O   UNL     1       7.812   4.462  16.322  0.00  0.00    +0.000 OA
ATOM      5  O   UNL     1       5.655   3.816  16.565  0.00  0.00    +0.000 OA
ATOM      6  C   UNL     1       4.701   4.284  17.438  0.00  0.00    +0.000 A 
ATOM      7  C   UNL     1       3.362   3.959  17.260  0.00  0.00    +0.000 A 
ATOM      8  C   UNL     1       2.471   4.424  18.206  0.00  0.00    +0.000 A 
ATOM      9  C   UNL     1       2.937   5.136  19.330  0.00  0.00    +0.000 A 
ATOM     10  C   UNL     1       1.902   5.329  20.415  0.00  0.00    +0.000 C 
ATOM     11  C   UNL     1       4.322   5.509  19.447  0.00  0.00    +0.000 A 
ATOM     12  C   UNL     1       5.200   5.108  18.445  0.00  0.00    +0.000 A 
ENDBRANCH   1   2
BRANCH   1  13
ATOM     13  C   UNL     1       7.793   7.496  17.240  0.00  0.00    +0.000 C 
BRANCH  13  14
ATOM     14  C   UNL     1       7.746   8.938  17.912  0.00  0.00    +0.000 C 
BRANCH  14  15
ATOM     15  O   UNL     1       8.850   9.125  18.820  0.00  0.00    +0.000 OA
BRANCH  15  21
ATOM     16  C   UNL     1       9.778  13.109  21.802  0.00  0.00    +0.000 C 
ATOM     17  C   UNL     1       9.828  12.369  20.494  0.00  0.00    +0.000 A 
ATOM     18  C   UNL     1      10.421  12.995  19.389  0.00  0.00    +0.000 A 
ATOM     19  C   UNL     1      10.460  12.331  18.163  0.00  0.00    +0.000 A 
ATOM     20  C   UNL     1       9.913  11.047  18.040  0.00  0.00    +0.000 A 
ATOM     21  C   UNL     1       9.319  10.390  19.129  0.00  0.00    +0.000 A 
ATOM     22  C   UNL     1       9.277  11.059  20.354  0.00  0.00    +0.000 A 
ENDBRANCH  15  21
ENDBRANCH  14  15
ENDBRANCH  13  14
ENDBRANCH   1  13
TORSDOF 5
ENDMDL
MODEL 3
REMARK VINA RESULT:      -7.8      4.854      8.438
REMARK  Name = 
REMARK  7 active torsions:
REMARK  status: ('A' for Active; 'I' for Inactive)
REMARK    1  A    between atoms: C_1  and  C_2
REMARK    2  A    between atoms: C_6  and  O_7
REMARK    3  A    between atoms: O_7  and  C_8
REMARK    4  A    between atoms: C_8  and  C_9
REMARK    5  A    between atoms: C_9  and  C_10
REMARK    6  A    between atoms: C_10  and  N_11
REMARK    7  A    between atoms: C_18  and  C_19
REMARK                            x       y       z     vdW  Elec       q    Type
REMARK                         _______ _______ _______ _____ _____    ______ ____
ROOT
ATOM      1  C   UNL     1       4.905   6.268  16.425  0.00  0.00    +0.000 C 
ENDROOT
BRANCH   1   2
ATOM      2  N   UNL     1       5.864   5.413  15.726  0.00  0.00    +0.000 N 
ATOM      3  C   UNL     1       7.215   5.830  15.904  0.00  0.00    +0.000 A 
ATOM      4  O   UNL     1       7.629   6.532  16.813  0.00  0.00    +0.000 OA
ATOM      5  O   UNL     1       8.048   5.431  14.878  0.00  0.00    +0.000 OA
ATOM      6  C   UNL     1       7.162   4.869  13.989  0.00  0.00    +0.000 A 
ATOM      7  C   UNL     1       7.584   4.475  12.726  0.00  0.00    +0.000 A 
ATOM      8  C   UNL     1       6.649   3.873  11.910  0.00  0.00    +0.000 A 
ATOM      9  C   UNL     1       5.347   3.618  12.389  0.00  0.00    +0.000 A 
ATOM     10  C   UNL     1       4.528   2.706  11.505  0.00  0.00    +0.000 C 
ATOM     11  C   UNL     1       4.927   4.099  13.678  0.00  0.00    +0.000 A 
ATOM     12  C   UNL     1       5.853   4.780  14.462  0.00  0.00    +0.000 A 
ENDBRANCH   1   2
BRANCH   1  13
ATOM     13  C   UNL     1       4.553   6.272  17.929  0.00  0.00    +0.000 C 
BRANCH  13  14
ATOM     14  C   UNL     1       3.092   6.855  18.172  0.00  0.00    +0.000 C 
BRANCH  14  15
ATOM     15  O   UNL     1       2.081   5.897  17.801  0.00  0.00    +0.000 OA
BRANCH  15  21
ATOM     16  C   UNL     1       1.505   2.659  21.650  0.00  0.00    +0.000 C 
ATOM     17  C   UNL     1       1.735   2.999  20.203  0.00  0.00    +0.000 A 
ATOM     18  C   UNL     1       1.914   1.954  19.287  0.00  0.00    +0.000 A 
ATOM     19  C   UNL     1       2.147   2.252  17.944  0.00  0.00    +0.000 A 
ATOM     20  C   UNL     1       2.197   3.586  17.516  0.00  0.00    +0.000 A 
ATOM     21  C   UNL     1       2.014   4.654  18.408  0.00  0.00    +0.000 A 
ATOM     22  C   UNL     1       1.786   4.354  19.753  0.00  0.00    +0.000 A 
ENDBRANCH  15  21
ENDBRANCH  14  15
ENDBRANCH  13  14
ENDBRANCH   1  13
TORSDOF 5
ENDMDL
MODEL 4
REMARK VINA RESULT:      -7.7      4.765      8.410
REMARK  Name = 
REMARK  7 active torsions:
REMARK  status: ('A' for Active; 'I' for Inactive)
REMARK    1  A    between atoms: C_1  and  C_2
REMARK    2  A    between atoms: C_6  and  O_7
REMARK    3  A    between atoms: O_7  and  C_8
REMARK    4  A    between atoms: C_8  and  C_9
REMARK    5  A    between atoms: C_9  and  C_10
REMARK    6  A    between atoms: C_10  and  N_11
REMARK    7  A    between atoms: C_18  and  C_19
REMARK                            x       y       z     vdW  Elec       q    Type
REMARK                         _______ _______ _______ _____ _____    ______ ____
ROOT
ATOM      1  C   UNL     1       4.964   6.122  16.433  0.00  0.00    +0.000 C 
ENDROOT
BRANCH   1   2
ATOM      2  N   UNL     1       6.010   5.405  15.706  0.00  0.00    +0.000 N 
ATOM      3  C   UNL     1       7.292   6.019  15.823  0.00  0.00    +0.000 A 
ATOM      4  O   UNL     1       7.633   6.791  16.705  0.00  0.00    +0.000 OA
ATOM      5  O   UNL     1       8.133   5.728  14.768  0.00  0.00    +0.000 OA
ATOM      6  C   UNL     1       7.306   5.026  13.924  0.00  0.00    +0.000 A 
ATOM      7  C   UNL     1       7.732   4.675  12.649  0.00  0.00    +0.000 A 
ATOM      8  C   UNL     1       6.865   3.927  11.880  0.00  0.00    +0.000 A 
ATOM      9  C   UNL     1       5.634   3.494  12.415  0.00  0.00    +0.000 A 
ATOM     10  C   UNL     1       4.924   2.455  11.577  0.00  0.00    +0.000 C 
ATOM     11  C   UNL     1       5.199   3.931  13.715  0.00  0.00    +0.000 A 
ATOM     12  C   UNL     1       6.044   4.754  14.452  0.00  0.00    +0.000 A 
ENDBRANCH   1   2
BRANCH   1  13
ATOM     13  C   UNL     1       4.551   5.962  17.913  0.00  0.00    +0.000 C 
BRANCH  13  14
ATOM     14  C   UNL     1       5.645   5.139  18.726  0.00  0.00    +0.000 C 
BRANCH  14  15
ATOM     15  O   UNL     1       5.383   3.722  18.663  0.00  0.00    +0.000 OA
BRANCH  15  21
ATOM     16  C   UNL     1       1.379   2.674  21.578  0.00  0.00    +0.000 C 
ATOM     17  C   UNL     1       2.132   2.667  20.276  0.00  0.00    +0.000 A 
ATOM     18  C   UNL     1       1.535   2.073  19.157  0.00  0.00    +0.000 A 
ATOM     19  C   UNL     1       2.226   2.041  17.946  0.00  0.00    +0.000 A 
ATOM     20  C   UNL     1       3.507   2.603  17.850  0.00  0.00    +0.000 A 
ATOM     21  C   UNL     1       4.130   3.211  18.951  0.00  0.00    +0.000 A 
ATOM     22  C   UNL     1       3.437   3.237  20.164  0.00  0.00    +0.000 A 
ENDBRANCH  15  21
ENDBRANCH  14  15
ENDBRANCH  13  14
ENDBRANCH   1  13
TORSDOF 5
ENDMDL
MODEL 5
REMARK VINA RESULT:      -7.7      0.655      1.292
REMARK  Name = 
REMARK  7 active torsions:
REMARK  status: ('A' for Active; 'I' for Inactive)
REMARK    1  A    between atoms: C_1  and  C_2
REMARK    2  A    between atoms: C_6  and  O_7
REMARK    3  A    between atoms: O_7  and  C_8
REMARK    4  A    between atoms: C_8  and  C_9
REMARK    5  A    between atoms: C_9  and  C_10
REMARK    6  A    between atoms: C_10  and  N_11
REMARK    7  A    between atoms: C_18  and  C_19
REMARK                            x       y       z     vdW  Elec       q    Type
REMARK                         _______ _______ _______ _____ _____    ______ ____
ROOT
ATOM      1  C   UNL     1       7.541   6.336  18.266  0.00  0.00    +0.000 C 
ENDROOT
BRANCH   1   2
ATOM      2  N   UNL     1       6.556   5.276  18.056  0.00  0.00    +0.000 N 
ATOM      3  C   UNL     1       6.664   4.661  16.774  0.00  0.00    +0.000 A 
ATOM      4  O   UNL     1       7.655   4.673  16.060  0.00  0.00    +0.000 OA
ATOM      5  O   UNL     1       5.483   4.093  16.341  0.00  0.00    +0.000 OA
ATOM      6  C   UNL     1       4.600   4.481  17.321  0.00  0.00    +0.000 A 
ATOM      7  C   UNL     1       3.239   4.240  17.179  0.00  0.00    +0.000 A 
ATOM      8  C   UNL     1       2.423   4.612  18.227  0.00  0.00    +0.000 A 
ATOM      9  C   UNL     1       2.980   5.148  19.406  0.00  0.00    +0.000 A 
ATOM     10  C   UNL     1       2.013   5.239  20.565  0.00  0.00    +0.000 C 
ATOM     11  C   UNL     1       4.386   5.443  19.491  0.00  0.00    +0.000 A 
ATOM     12  C   UNL     1       5.191   5.141  18.397  0.00  0.00    +0.000 A 
ENDBRANCH   1   2
BRANCH   1  13
ATOM     13  C   UNL     1       7.748   7.622  17.438  0.00  0.00    +0.000 C 
BRANCH  13  14
ATOM     14  C   UNL     1       8.354   8.789  18.335  0.00  0.00    +0.000 C 
BRANCH  14  15
ATOM     15  O   UNL     1       8.293  10.057  17.651  0.00  0.00    +0.000 OA
BRANCH  15  21
ATOM     16  C   UNL     1      12.332  12.283  19.739  0.00  0.00    +0.000 C 
ATOM     17  C   UNL     1      11.016  12.297  19.012  0.00  0.00    +0.000 A 
ATOM     18  C   UNL     1      10.463  13.532  18.646  0.00  0.00    +0.000 A 
ATOM     19  C   UNL     1       9.233  13.565  17.987  0.00  0.00    +0.000 A 
ATOM     20  C   UNL     1       8.560  12.372  17.691  0.00  0.00    +0.000 A 
ATOM     21  C   UNL     1       9.090  11.120  18.038  0.00  0.00    +0.000 A 
ATOM     22  C   UNL     1      10.319  11.089  18.702  0.00  0.00    +0.000 A 
ENDBRANCH  15  21
ENDBRANCH  14  15
ENDBRANCH  13  14
ENDBRANCH   1  13
TORSDOF 5
ENDMDL
MODEL 6
REMARK VINA RESULT:      -7.7      5.256      7.151
REMARK  Name = 
REMARK  7 active torsions:
REMARK  status: ('A' for Active; 'I' for Inactive)
REMARK    1  A    between atoms: C_1  and  C_2
REMARK    2  A    between atoms: C_6  and  O_7
REMARK    3  A    between atoms: O_7  and  C_8
REMARK    4  A    between atoms: C_8  and  C_9
REMARK    5  A    between atoms: C_9  and  C_10
REMARK    6  A    between atoms: C_10  and  N_11
REMARK    7  A    between atoms: C_18  and  C_19
REMARK                            x       y       z     vdW  Elec       q    Type
REMARK                         _______ _______ _______ _____ _____    ______ ____
ROOT
ATOM      1  C   UNL     1       2.398   3.547  17.876  0.00  0.00    +0.000 C 
ENDROOT
BRANCH   1   2
ATOM      2  N   UNL     1       3.850   3.386  17.936  0.00  0.00    +0.000 N 
ATOM      3  C   UNL     1       4.358   3.402  19.267  0.00  0.00    +0.000 A 
ATOM      4  O   UNL     1       3.713   3.169  20.278  0.00  0.00    +0.000 OA
ATOM      5  O   UNL     1       5.677   3.800  19.343  0.00  0.00    +0.000 OA
ATOM      6  C   UNL     1       5.945   4.160  18.043  0.00  0.00    +0.000 A 
ATOM      7  C   UNL     1       7.146   4.776  17.714  0.00  0.00    +0.000 A 
ATOM      8  C   UNL     1       7.362   5.060  16.382  0.00  0.00    +0.000 A 
ATOM      9  C   UNL     1       6.419   4.669  15.410  0.00  0.00    +0.000 A 
ATOM     10  C   UNL     1       6.912   4.783  13.985  0.00  0.00    +0.000 C 
ATOM     11  C   UNL     1       5.158   4.092  15.794  0.00  0.00    +0.000 A 
ATOM     12  C   UNL     1       4.912   3.885  17.147  0.00  0.00    +0.000 A 
ENDBRANCH   1   2
BRANCH   1  13
ATOM     13  C   UNL     1       1.584   4.859  17.870  0.00  0.00    +0.000 C 
BRANCH  13  14
ATOM     14  C   UNL     1       2.530   6.120  18.092  0.00  0.00    +0.000 C 
BRANCH  14  15
ATOM     15  O   UNL     1       2.536   6.530  19.474  0.00  0.00    +0.000 OA
BRANCH  15  21
ATOM     16  C   UNL     1       0.048   9.486  22.745  0.00  0.00    +0.000 C 
ATOM     17  C   UNL     1       0.650   9.178  21.402  0.00  0.00    +0.000 A 
ATOM     18  C   UNL     1       0.540  10.132  20.381  0.00  0.00    +0.000 A 
ATOM     19  C   UNL     1       1.077   9.855  19.123  0.00  0.00    +0.000 A 
ATOM     20  C   UNL     1       1.723   8.634  18.886  0.00  0.00    +0.000 A 
ATOM     21  C   UNL     1       1.855   7.662  19.889  0.00  0.00    +0.000 A 
ATOM     22  C   UNL     1       1.313   7.939  21.146  0.00  0.00    +0.000 A 
ENDBRANCH  15  21
ENDBRANCH  14  15
ENDBRANCH  13  14
ENDBRANCH   1  13
TORSDOF 5
ENDMDL
MODEL 7
REMARK VINA RESULT:      -7.6      4.949      6.677
REMARK  Name = 
REMARK  7 active torsions:
REMARK  status: ('A' for Active; 'I' for Inactive)
REMARK    1  A    between atoms: C_1  and  C_2
REMARK    2  A    between atoms: C_6  and  O_7
REMARK    3  A    between atoms: O_7  and  C_8
REMARK    4  A    between atoms: C_8  and  C_9
REMARK    5  A    between atoms: C_9  and  C_10
REMARK    6  A    between atoms: C_10  and  N_11
REMARK    7  A    between atoms: C_18  and  C_19
REMARK                            x       y       z     vdW  Elec       q    Type
REMARK                         _______ _______ _______ _____ _____    ______ ____
ROOT
ATOM      1  C   UNL     1       2.097   2.530  20.393  0.00  0.00    +0.000 C 
ENDROOT
BRANCH   1   2
ATOM      2  N   UNL     1       1.643   3.619  19.530  0.00  0.00    +0.000 N 
ATOM      3  C   UNL     1       1.790   3.329  18.143  0.00  0.00    +0.000 A 
ATOM      4  O   UNL     1       1.887   2.213  17.655  0.00  0.00    +0.000 OA
ATOM      5  O   UNL     1       1.904   4.459  17.359  0.00  0.00    +0.000 OA
ATOM      6  C   UNL     1       1.957   5.459  18.301  0.00  0.00    +0.000 A 
ATOM      7  C   UNL     1       2.232   6.768  17.925  0.00  0.00    +0.000 A 
ATOM      8  C   UNL     1       2.219   7.724  18.920  0.00  0.00    +0.000 A 
ATOM      9  C   UNL     1       1.869   7.370  20.239  0.00  0.00    +0.000 A 
ATOM     10  C   UNL     1       1.616   8.549  21.151  0.00  0.00    +0.000 C 
ATOM     11  C   UNL     1       1.654   5.995  20.604  0.00  0.00    +0.000 A 
ATOM     12  C   UNL     1       1.752   5.026  19.610  0.00  0.00    +0.000 A 
ENDBRANCH   1   2
BRANCH   1  13
ATOM     13  C   UNL     1       3.547   2.147  20.762  0.00  0.00    +0.000 C 
BRANCH  13  14
ATOM     14  C   UNL     1       4.516   2.304  19.509  0.00  0.00    +0.000 C 
BRANCH  14  15
ATOM     15  O   UNL     1       5.198   3.574  19.534  0.00  0.00    +0.000 OA
BRANCH  15  21
ATOM     16  C   UNL     1       5.494   4.338  14.539  0.00  0.00    +0.000 C 
ATOM     17  C   UNL     1       5.534   4.792  15.972  0.00  0.00    +0.000 A 
ATOM     18  C   UNL     1       5.791   6.142  16.243  0.00  0.00    +0.000 A 
ATOM     19  C   UNL     1       5.850   6.576  17.568  0.00  0.00    +0.000 A 
ATOM     20  C   UNL     1       5.650   5.669  18.617  0.00  0.00    +0.000 A 
ATOM     21  C   UNL     1       5.383   4.312  18.378  0.00  0.00    +0.000 A 
ATOM     22  C   UNL     1       5.329   3.878  17.051  0.00  0.00    +0.000 A 
ENDBRANCH  15  21
ENDBRANCH  14  15
ENDBRANCH  13  14
ENDBRANCH   1  13
TORSDOF 5
ENDMDL
MODEL 8
REMARK VINA RESULT:      -7.5      1.148      1.399
REMARK  Name = 
REMARK  7 active torsions:
REMARK  status: ('A' for Active; 'I' for Inactive)
REMARK    1  A    between atoms: C_1  and  C_2
REMARK    2  A    between atoms: C_6  and  O_7
REMARK    3  A    between atoms: O_7  and  C_8
REMARK    4  A    between atoms: C_8  and  C_9
REMARK    5  A    between atoms: C_9  and  C_10
REMARK    6  A    between atoms: C_10  and  N_11
REMARK    7  A    between atoms: C_18  and  C_19
REMARK                            x       y       z     vdW  Elec       q    Type
REMARK                         _______ _______ _______ _____ _____    ______ ____
ROOT
ATOM      1  C   UNL     1       6.658   7.417  17.346  0.00  0.00    +0.000 C 
ENDROOT
BRANCH   1   2
ATOM      2  N   UNL     1       6.145   6.052  17.446  0.00  0.00    +0.000 N 
ATOM      3  C   UNL     1       6.498   5.240  16.328  0.00  0.00    +0.000 A 
ATOM      4  O   UNL     1       7.425   5.450  15.561  0.00  0.00    +0.000 OA
ATOM      5  O   UNL     1       5.623   4.194  16.117  0.00  0.00    +0.000 OA
ATOM      6  C   UNL     1       4.642   4.447  17.046  0.00  0.00    +0.000 A 
ATOM      7  C   UNL     1       3.472   3.697  17.059  0.00  0.00    +0.000 A 
ATOM      8  C   UNL     1       2.558   3.976  18.054  0.00  0.00    +0.000 A 
ATOM      9  C   UNL     1       2.853   4.937  19.042  0.00  0.00    +0.000 A 
ATOM     10  C   UNL     1       1.902   4.933  20.217  0.00  0.00    +0.000 C 
ATOM     11  C   UNL     1       4.045   5.739  18.959  0.00  0.00    +0.000 A 
ATOM     12  C   UNL     1       4.923   5.509  17.905  0.00  0.00    +0.000 A 
ENDBRANCH   1   2
BRANCH   1  13
ATOM     13  C   UNL     1       7.979   7.983  17.912  0.00  0.00    +0.000 C 
BRANCH  13  14
ATOM     14  C   UNL     1       7.978   9.574  17.884  0.00  0.00    +0.000 C 
BRANCH  14  15
ATOM     15  O   UNL     1       9.209  10.105  18.416  0.00  0.00    +0.000 OA
BRANCH  15  21
ATOM     16  C   UNL     1       8.631  15.118  18.021  0.00  0.00    +0.000 C 
ATOM     17  C   UNL     1       9.431  13.848  17.942  0.00  0.00    +0.000 A 
ATOM     18  C   UNL     1      10.775  13.922  17.551  0.00  0.00    +0.000 A 
ATOM     19  C   UNL     1      11.527  12.752  17.454  0.00  0.00    +0.000 A 
ATOM     20  C   UNL     1      10.944  11.512  17.750  0.00  0.00    +0.000 A 
ATOM     21  C   UNL     1       9.603  11.405  18.152  0.00  0.00    +0.000 A 
ATOM     22  C   UNL     1       8.850  12.578  18.243  0.00  0.00    +0.000 A 
ENDBRANCH  15  21
ENDBRANCH  14  15
ENDBRANCH  13  14
ENDBRANCH   1  13
TORSDOF 5
ENDMDL
MODEL 9
REMARK VINA RESULT:      -7.5      4.931      7.196
REMARK  Name = 
REMARK  7 active torsions:
REMARK  status: ('A' for Active; 'I' for Inactive)
REMARK    1  A    between atoms: C_1  and  C_2
REMARK    2  A    between atoms: C_6  and  O_7
REMARK    3  A    between atoms: O_7  and  C_8
REMARK    4  A    between atoms: C_8  and  C_9
REMARK    5  A    between atoms: C_9  and  C_10
REMARK    6  A    between atoms: C_10  and  N_11
REMARK    7  A    between atoms: C_18  and  C_19
REMARK                            x       y       z     vdW  Elec       q    Type
REMARK                         _______ _______ _______ _____ _____    ______ ____
ROOT
ATOM      1  C   UNL     1       4.972   4.468  17.258  0.00  0.00    +0.000 C 
ENDROOT
BRANCH   1   2
ATOM      2  N   UNL     1       6.080   4.409  16.306  0.00  0.00    +0.000 N 
ATOM      3  C   UNL     1       7.063   5.417  16.531  0.00  0.00    +0.000 A 
ATOM      4  O   UNL     1       7.239   6.018  17.579  0.00  0.00    +0.000 OA
ATOM      5  O   UNL     1       7.781   5.740  15.398  0.00  0.00    +0.000 OA
ATOM      6  C   UNL     1       7.138   5.007  14.429  0.00  0.00    +0.000 A 
ATOM      7  C   UNL     1       7.461   5.171  13.088  0.00  0.00    +0.000 A 
ATOM      8  C   UNL     1       6.808   4.363  12.180  0.00  0.00    +0.000 A 
ATOM      9  C   UNL     1       5.908   3.374  12.628  0.00  0.00    +0.000 A 
ATOM     10  C   UNL     1       5.493   2.385  11.564  0.00  0.00    +0.000 C 
ATOM     11  C   UNL     1       5.550   3.276  14.018  0.00  0.00    +0.000 A 
ATOM     12  C   UNL     1       6.151   4.152  14.918  0.00  0.00    +0.000 A 
ENDBRANCH   1   2
BRANCH   1  13
ATOM     13  C   UNL     1       3.601   3.763  17.169  0.00  0.00    +0.000 C 
BRANCH  13  14
ATOM     14  C   UNL     1       2.447   4.678  17.772  0.00  0.00    +0.000 C 
BRANCH  14  15
ATOM     15  O   UNL     1       2.949   5.519  18.830  0.00  0.00    +0.000 OA
BRANCH  15  21
ATOM     16  C   UNL     1       0.779   9.097  21.680  0.00  0.00    +0.000 C 
ATOM     17  C   UNL     1       1.341   8.563  20.391  0.00  0.00    +0.000 A 
ATOM     18  C   UNL     1       1.319   9.384  19.256  0.00  0.00    +0.000 A 
ATOM     19  C   UNL     1       1.819   8.898  18.048  0.00  0.00    +0.000 A 
ATOM     20  C   UNL     1       2.342   7.600  17.972  0.00  0.00    +0.000 A 
ATOM     21  C   UNL     1       2.384   6.755  19.092  0.00  0.00    +0.000 A 
ATOM     22  C   UNL     1       1.879   7.242  20.300  0.00  0.00    +0.000 A 
ENDBRANCH  15  21
ENDBRANCH  14  15
ENDBRANCH  13  14
ENDBRANCH   1  13
TORSDOF 5
ENDMDL
