MODEL 1
REMARK VINA RESULT:      -7.7      0.000      0.000
REMARK  Name = 
REMARK  7 active torsions:
REMARK  status: ('A' for Active; 'I' for Inactive)
REMARK    1  A    between atoms: N_4  and  N_5
REMARK    2  A    between atoms: C_6  and  C_7
REMARK    3  A    between atoms: C_6  and  C_21
REMARK    4  A    between atoms: C_12  and  N_13
REMARK    5  A    between atoms: C_19  and  O_20
REMARK    6  A    between atoms: C_21  and  O_22
REMARK    7  A    between atoms: C_21  and  C_23
REMARK                            x       y       z     vdW  Elec       q    Type
REMARK                         _______ _______ _______ _____ _____    ______ ____
ROOT
ATOM      1  N   UNL     1       5.476   6.294  17.863  0.00  0.00    +0.000 NA
ATOM      2  C   UNL     1       4.227   5.893  17.893  0.00  0.00    +0.000 C 
ENDROOT
BRANCH   2   3
ATOM      3  C   UNL     1       3.247   6.771  18.611  0.00  0.00    +0.000 A 
ATOM      4  N   UNL     1       2.832   7.882  17.938  0.00  0.00    +0.000 NA
ATOM      5  C   UNL     1       1.923   8.668  18.549  0.00  0.00    +0.000 A 
ATOM      6  C   UNL     1       1.444   9.811  17.916  0.00  0.00    +0.000 A 
ATOM      7  C   UNL     1       0.518  10.656  18.536  0.00  0.00    +0.000 A 
ATOM      8  C   UNL     1       0.060  10.340  19.816  0.00  0.00    +0.000 A 
ATOM      9  C   UNL     1       0.520   9.192  20.465  0.00  0.00    +0.000 A 
ATOM     10  C   UNL     1       1.434   8.356  19.848  0.00  0.00    +0.000 A 
ATOM     11  N   UNL     1       1.835   7.255  20.501  0.00  0.00    +0.000 NA
ATOM     12  C   UNL     1       2.720   6.472  19.861  0.00  0.00    +0.000 A 
BRANCH   8  13
ATOM     13  N   UNL     1      -0.911  11.211  20.490  0.00  0.00    +0.000 N 
ATOM     14  O   UNL     1      -1.012  11.112  21.721  0.00  0.00    +0.000 OA
ATOM     15  O   UNL     1      -1.568  11.989  19.787  0.00  0.00    +0.000 OA
ENDBRANCH   8  13
BRANCH  12  16
ATOM     16  O   UNL     1       2.991   5.349  20.561  0.00  0.00    +0.000 OA
ATOM     17  H   UNL     1       2.117   5.136  20.936  0.00  0.00    +0.000 HD
ENDBRANCH  12  16
ENDBRANCH   2   3
BRANCH   1  21
ATOM     18  N   UNL     1       7.289   5.007  19.285  0.00  0.00    +0.000 N 
ATOM     19  C   UNL     1       7.365   4.835  17.942  0.00  0.00    +0.000 C 
ATOM     20  O   UNL     1       8.234   4.155  17.412  0.00  0.00    +0.000 OA
ATOM     21  N   UNL     1       6.413   5.528  17.234  0.00  0.00    +0.000 N 
ATOM     22  H   UNL     1       8.034   4.670  19.870  0.00  0.00    +0.000 HD
ATOM     23  H   UNL     1       6.648   5.723  19.601  0.00  0.00    +0.000 HD
ATOM     24  H   UNL     1       6.395   5.375  16.227  0.00  0.00    +0.000 HD
ENDBRANCH   1  21
BRANCH   2  25
ATOM     25  C   UNL     1       3.666   4.666  17.162  0.00  0.00    +0.000 C 
BRANCH  25  26
ATOM     26  C   UNL     1       3.673   3.423  17.988  0.00  0.00    +0.000 A 
ATOM     27  C   UNL     1       3.081   2.187  17.818  0.00  0.00    +0.000 A 
ATOM     28  C   UNL     1       3.588   1.355  18.844  0.00  0.00    +0.000 A 
ATOM     29  C   UNL     1       4.437   2.138  19.589  0.00  0.00    +0.000 A 
ATOM     30  O   UNL     1       4.481   3.400  19.091  0.00  0.00    +0.000 OA
ENDBRANCH  25  26
BRANCH  25  31
ATOM     31  O   UNL     1       4.402   4.428  15.967  0.00  0.00    +0.000 OA
ATOM     32  H   UNL     1       4.356   3.469  15.802  0.00  0.00    +0.000 HD
ENDBRANCH  25  31
ENDBRANCH   2  25
TORSDOF 7
ENDMDL
MODEL 2
REMARK VINA RESULT:      -7.7      1.411      2.237
REMARK  Name = 
REMARK  7 active torsions:
REMARK  status: ('A' for Active; 'I' for Inactive)
REMARK    1  A    between atoms: N_4  and  N_5
REMARK    2  A    between atoms: C_6  and  C_7
REMARK    3  A    between atoms: C_6  and  C_21
REMARK    4  A    between atoms: C_12  and  N_13
REMARK    5  A    between atoms: C_19  and  O_20
REMARK    6  A    between atoms: C_21  and  O_22
REMARK    7  A    between atoms: C_21  and  C_23
REMARK                            x       y       z     vdW  Elec       q    Type
REMARK                         _______ _______ _______ _____ _____    ______ ____
ROOT
ATOM      1  N   UNL     1       5.552   5.264  19.265  0.00  0.00    +0.000 NA
ATOM      2  C   UNL     1       4.361   5.198  18.721  0.00  0.00    +0.000 C 
ENDROOT
BRANCH   2   3
ATOM      3  C   UNL     1       3.339   6.186  19.197  0.00  0.00    +0.000 A 
ATOM      4  N   UNL     1       3.126   7.263  18.388  0.00  0.00    +0.000 NA
ATOM      5  C   UNL     1       2.184   8.148  18.777  0.00  0.00    +0.000 A 
ATOM      6  C   UNL     1       1.904   9.264  17.995  0.00  0.00    +0.000 A 
ATOM      7  C   UNL     1       0.950  10.209  18.385  0.00  0.00    +0.000 A 
ATOM      8  C   UNL     1       0.259  10.022  19.584  0.00  0.00    +0.000 A 
ATOM      9  C   UNL     1       0.518   8.903  20.379  0.00  0.00    +0.000 A 
ATOM     10  C   UNL     1       1.462   7.969  19.988  0.00  0.00    +0.000 A 
ATOM     11  N   UNL     1       1.665   6.900  20.774  0.00  0.00    +0.000 NA
ATOM     12  C   UNL     1       2.588   6.018  20.352  0.00  0.00    +0.000 A 
BRANCH   8  13
ATOM     13  N   UNL     1      -0.746  10.999  20.018  0.00  0.00    +0.000 N 
ATOM     14  O   UNL     1      -1.705  11.210  19.263  0.00  0.00    +0.000 OA
ATOM     15  O   UNL     1      -0.572  11.553  21.111  0.00  0.00    +0.000 OA
ENDBRANCH   8  13
BRANCH  12  16
ATOM     16  O   UNL     1       2.654   4.939  21.162  0.00  0.00    +0.000 OA
ATOM     17  H   UNL     1       1.827   5.025  21.670  0.00  0.00    +0.000 HD
ENDBRANCH  12  16
ENDBRANCH   2   3
BRANCH   1  21
ATOM     18  N   UNL     1       7.689   6.132  17.983  0.00  0.00    +0.000 N 
ATOM     19  C   UNL     1       7.649   4.798  18.220  0.00  0.00    +0.000 C 
ATOM     20  O   UNL     1       8.526   4.033  17.841  0.00  0.00    +0.000 OA
ATOM     21  N   UNL     1       6.518   4.381  18.879  0.00  0.00    +0.000 N 
ATOM     22  H   UNL     1       8.395   6.505  17.371  0.00  0.00    +0.000 HD
ATOM     23  H   UNL     1       6.837   6.641  18.181  0.00  0.00    +0.000 HD
ATOM     24  H   UNL     1       6.478   3.396  19.135  0.00  0.00    +0.000 HD
ENDBRANCH   1  21
BRANCH   2  25
ATOM     25  C   UNL     1       3.959   4.274  17.564  0.00  0.00    +0.000 C 
BRANCH  25  26
ATOM     26  C   UNL     1       4.787   4.459  16.336  0.00  0.00    +0.000 A 
ATOM     27  C   UNL     1       5.081   5.569  15.569  0.00  0.00    +0.000 A 
ATOM     28  C   UNL     1       6.058   5.159  14.630  0.00  0.00    +0.000 A 
ATOM     29  C   UNL     1       6.280   3.823  14.865  0.00  0.00    +0.000 A 
ATOM     30  O   UNL     1       5.500   3.383  15.885  0.00  0.00    +0.000 OA
ENDBRANCH  25  26
BRANCH  25  31
ATOM     31  O   UNL     1       2.590   4.474  17.230  0.00  0.00    +0.000 OA
ATOM     32  H   UNL     1       2.193   3.588  17.151  0.00  0.00    +0.000 HD
ENDBRANCH  25  31
ENDBRANCH   2  25
TORSDOF 7
ENDMDL
MODEL 3
REMARK VINA RESULT:      -7.7      1.130      1.300
REMARK  Name = 
REMARK  7 active torsions:
REMARK  status: ('A' for Active; 'I' for Inactive)
REMARK    1  A    between atoms: N_4  and  N_5
REMARK    2  A    between atoms: C_6  and  C_7
REMARK    3  A    between atoms: C_6  and  C_21
REMARK    4  A    between atoms: C_12  and  N_13
REMARK    5  A    between atoms: C_19  and  O_20
REMARK    6  A    between atoms: C_21  and  O_22
REMARK    7  A    between atoms: C_21  and  C_23
REMARK                            x       y       z     vdW  Elec       q    Type
REMARK                         _______ _______ _______ _____ _____    ______ ____
ROOT
ATOM      1  N   UNL     1       5.376   5.427  18.747  0.00  0.00    +0.000 NA
ATOM      2  C   UNL     1       4.112   5.348  18.408  0.00  0.00    +0.000 C 
ENDROOT
BRANCH   2   3
ATOM      3  C   UNL     1       3.188   6.384  18.976  0.00  0.00    +0.000 A 
ATOM      4  N   UNL     1       2.968   7.482  18.198  0.00  0.00    +0.000 NA
ATOM      5  C   UNL     1       2.112   8.410  18.672  0.00  0.00    +0.000 A 
ATOM      6  C   UNL     1       1.830   9.550  17.926  0.00  0.00    +0.000 A 
ATOM      7  C   UNL     1       0.964  10.540  18.404  0.00  0.00    +0.000 A 
ATOM      8  C   UNL     1       0.366  10.374  19.654  0.00  0.00    +0.000 A 
ATOM      9  C   UNL     1       0.628   9.231  20.414  0.00  0.00    +0.000 A 
ATOM     10  C   UNL     1       1.483   8.254  19.938  0.00  0.00    +0.000 A 
ATOM     11  N   UNL     1       1.692   7.165  20.693  0.00  0.00    +0.000 NA
ATOM     12  C   UNL     1       2.527   6.240  20.188  0.00  0.00    +0.000 A 
BRANCH   8  13
ATOM     13  N   UNL     1      -0.545  11.398  20.180  0.00  0.00    +0.000 N 
ATOM     14  O   UNL     1      -0.354  11.795  21.338  0.00  0.00    +0.000 OA
ATOM     15  O   UNL     1      -1.448  11.800  19.435  0.00  0.00    +0.000 OA
ENDBRANCH   8  13
BRANCH  12  16
ATOM     16  O   UNL     1       2.601   5.148  20.980  0.00  0.00    +0.000 OA
ATOM     17  H   UNL     1       3.456   4.767  20.709  0.00  0.00    +0.000 HD
ENDBRANCH  12  16
ENDBRANCH   2   3
BRANCH   1  21
ATOM     18  N   UNL     1       7.579   6.223  17.532  0.00  0.00    +0.000 N 
ATOM     19  C   UNL     1       7.421   4.881  17.641  0.00  0.00    +0.000 C 
ATOM     20  O   UNL     1       8.227   4.082  17.183  0.00  0.00    +0.000 OA
ATOM     21  N   UNL     1       6.260   4.503  18.270  0.00  0.00    +0.000 N 
ATOM     22  H   UNL     1       8.314   6.589  16.952  0.00  0.00    +0.000 HD
ATOM     23  H   UNL     1       6.776   6.783  17.786  0.00  0.00    +0.000 HD
ATOM     24  H   UNL     1       6.133   3.506  18.431  0.00  0.00    +0.000 HD
ENDBRANCH   1  21
BRANCH   2  25
ATOM     25  C   UNL     1       3.520   4.361  17.393  0.00  0.00    +0.000 C 
BRANCH  25  26
ATOM     26  C   UNL     1       2.661   3.310  18.013  0.00  0.00    +0.000 A 
ATOM     27  C   UNL     1       2.952   2.220  18.810  0.00  0.00    +0.000 A 
ATOM     28  C   UNL     1       1.709   1.690  19.232  0.00  0.00    +0.000 A 
ATOM     29  C   UNL     1       0.740   2.471  18.648  0.00  0.00    +0.000 A 
ATOM     30  O   UNL     1       1.306   3.445  17.891  0.00  0.00    +0.000 OA
ENDBRANCH  25  26
BRANCH  25  31
ATOM     31  O   UNL     1       4.563   3.729  16.658  0.00  0.00    +0.000 OA
ATOM     32  H   UNL     1       4.293   3.754  15.723  0.00  0.00    +0.000 HD
ENDBRANCH  25  31
ENDBRANCH   2  25
TORSDOF 7
ENDMDL
MODEL 4
REMARK VINA RESULT:      -7.7      2.106      3.093
REMARK  Name = 
REMARK  7 active torsions:
REMARK  status: ('A' for Active; 'I' for Inactive)
REMARK    1  A    between atoms: N_4  and  N_5
REMARK    2  A    between atoms: C_6  and  C_7
REMARK    3  A    between atoms: C_6  and  C_21
REMARK    4  A    between atoms: C_12  and  N_13
REMARK    5  A    between atoms: C_19  and  O_20
REMARK    6  A    between atoms: C_21  and  O_22
REMARK    7  A    between atoms: C_21  and  C_23
REMARK                            x       y       z     vdW  Elec       q    Type
REMARK                         _______ _______ _______ _____ _____    ______ ____
ROOT
ATOM      1  N   UNL     1       3.380   3.890  19.147  0.00  0.00    +0.000 NA
ATOM      2  C   UNL     1       3.867   5.087  18.921  0.00  0.00    +0.000 C 
ENDROOT
BRANCH   2   3
ATOM      3  C   UNL     1       3.013   6.255  19.315  0.00  0.00    +0.000 A 
ATOM      4  N   UNL     1       2.941   7.276  18.413  0.00  0.00    +0.000 NA
ATOM      5  C   UNL     1       2.150   8.321  18.730  0.00  0.00    +0.000 A 
ATOM      6  C   UNL     1       2.018   9.393  17.852  0.00  0.00    +0.000 A 
ATOM      7  C   UNL     1       1.223  10.500  18.165  0.00  0.00    +0.000 A 
ATOM      8  C   UNL     1       0.542  10.526  19.383  0.00  0.00    +0.000 A 
ATOM      9  C   UNL     1       0.653   9.455  20.275  0.00  0.00    +0.000 A 
ATOM     10  C   UNL     1       1.439   8.361  19.961  0.00  0.00    +0.000 A 
ATOM     11  N   UNL     1       1.503   7.348  20.838  0.00  0.00    +0.000 NA
ATOM     12  C   UNL     1       2.274   6.304  20.489  0.00  0.00    +0.000 A 
BRANCH   8  13
ATOM     13  N   UNL     1      -0.297  11.677  19.738  0.00  0.00    +0.000 N 
ATOM     14  O   UNL     1       0.128  12.805  19.455  0.00  0.00    +0.000 OA
ATOM     15  O   UNL     1      -1.376  11.448  20.299  0.00  0.00    +0.000 OA
ENDBRANCH   8  13
BRANCH  12  16
ATOM     16  O   UNL     1       2.201   5.304  21.394  0.00  0.00    +0.000 OA
ATOM     17  H   UNL     1       2.957   4.747  21.132  0.00  0.00    +0.000 HD
ENDBRANCH  12  16
ENDBRANCH   2   3
BRANCH   1  21
ATOM     18  N   UNL     1       2.157   1.598  18.684  0.00  0.00    +0.000 N 
ATOM     19  C   UNL     1       3.505   1.584  18.538  0.00  0.00    +0.000 C 
ATOM     20  O   UNL     1       4.127   0.573  18.241  0.00  0.00    +0.000 OA
ATOM     21  N   UNL     1       4.109   2.791  18.796  0.00  0.00    +0.000 N 
ATOM     22  H   UNL     1       1.649   0.731  18.671  0.00  0.00    +0.000 HD
ATOM     23  H   UNL     1       1.768   2.435  19.100  0.00  0.00    +0.000 HD
ATOM     24  H   UNL     1       5.113   2.841  18.635  0.00  0.00    +0.000 HD
ENDBRANCH   1  21
BRANCH   2  25
ATOM     25  C   UNL     1       5.275   5.393  18.394  0.00  0.00    +0.000 C 
BRANCH  25  26
ATOM     26  C   UNL     1       5.438   5.132  16.935  0.00  0.00    +0.000 A 
ATOM     27  C   UNL     1       5.285   5.935  15.821  0.00  0.00    +0.000 A 
ATOM     28  C   UNL     1       5.745   5.179  14.716  0.00  0.00    +0.000 A 
ATOM     29  C   UNL     1       6.124   3.957  15.218  0.00  0.00    +0.000 A 
ATOM     30  O   UNL     1       5.923   3.910  16.560  0.00  0.00    +0.000 OA
ENDBRANCH  25  26
BRANCH  25  31
ATOM     31  O   UNL     1       6.242   4.631  19.109  0.00  0.00    +0.000 OA
ATOM     32  H   UNL     1       6.343   5.061  19.977  0.00  0.00    +0.000 HD
ENDBRANCH  25  31
ENDBRANCH   2  25
TORSDOF 7
ENDMDL
MODEL 5
REMARK VINA RESULT:      -7.6      2.066      2.676
REMARK  Name = 
REMARK  7 active torsions:
REMARK  status: ('A' for Active; 'I' for Inactive)
REMARK    1  A    between atoms: N_4  and  N_5
REMARK    2  A    between atoms: C_6  and  C_7
REMARK    3  A    between atoms: C_6  and  C_21
REMARK    4  A    between atoms: C_12  and  N_13
REMARK    5  A    between atoms: C_19  and  O_20
REMARK    6  A    between atoms: C_21  and  O_22
REMARK    7  A    between atoms: C_21  and  C_23
REMARK                            x       y       z     vdW  Elec       q    Type
REMARK                         _______ _______ _______ _____ _____    ______ ____
ROOT
ATOM      1  N   UNL     1       4.187   6.476  18.446  0.00  0.00    +0.000 NA
ATOM      2  C   UNL     1       2.916   6.326  18.736  0.00  0.00    +0.000 C 
ENDROOT
BRANCH   2   3
ATOM      3  C   UNL     1       2.166   7.551  19.164  0.00  0.00    +0.000 A 
ATOM      4  N   UNL     1       1.720   7.562  20.452  0.00  0.00    +0.000 NA
ATOM      5  C   UNL     1       1.074   8.669  20.871  0.00  0.00    +0.000 A 
ATOM      6  C   UNL     1       0.602   8.755  22.177  0.00  0.00    +0.000 A 
ATOM      7  C   UNL     1      -0.091   9.882  22.630  0.00  0.00    +0.000 A 
ATOM      8  C   UNL     1      -0.308  10.946  21.753  0.00  0.00    +0.000 A 
ATOM      9  C   UNL     1       0.166  10.883  20.440  0.00  0.00    +0.000 A 
ATOM     10  C   UNL     1       0.853   9.768  19.995  0.00  0.00    +0.000 A 
ATOM     11  N   UNL     1       1.306   9.758  18.732  0.00  0.00    +0.000 NA
ATOM     12  C   UNL     1       1.972   8.656  18.346  0.00  0.00    +0.000 A 
BRANCH   8  13
ATOM     13  N   UNL     1      -1.035  12.139  22.202  0.00  0.00    +0.000 N 
ATOM     14  O   UNL     1      -0.633  12.703  23.229  0.00  0.00    +0.000 OA
ATOM     15  O   UNL     1      -2.006  12.507  21.528  0.00  0.00    +0.000 OA
ENDBRANCH   8  13
BRANCH  12  16
ATOM     16  O   UNL     1       2.460   8.781  17.093  0.00  0.00    +0.000 OA
ATOM     17  H   UNL     1       2.843   7.897  16.943  0.00  0.00    +0.000 HD
ENDBRANCH  12  16
ENDBRANCH   2   3
BRANCH   1  21
ATOM     18  N   UNL     1       6.019   6.730  16.565  0.00  0.00    +0.000 N 
ATOM     19  C   UNL     1       5.892   5.489  17.096  0.00  0.00    +0.000 C 
ATOM     20  O   UNL     1       6.556   4.535  16.713  0.00  0.00    +0.000 OA
ATOM     21  N   UNL     1       4.922   5.391  18.064  0.00  0.00    +0.000 N 
ATOM     22  H   UNL     1       6.588   6.862  15.746  0.00  0.00    +0.000 HD
ATOM     23  H   UNL     1       5.306   7.397  16.828  0.00  0.00    +0.000 HD
ATOM     24  H   UNL     1       4.838   4.493  18.534  0.00  0.00    +0.000 HD
ENDBRANCH   1  21
BRANCH   2  25
ATOM     25  C   UNL     1       2.109   5.032  18.567  0.00  0.00    +0.000 C 
BRANCH  25  26
ATOM     26  C   UNL     1       2.129   4.153  19.772  0.00  0.00    +0.000 A 
ATOM     27  C   UNL     1       1.158   3.811  20.693  0.00  0.00    +0.000 A 
ATOM     28  C   UNL     1       1.720   2.805  21.514  0.00  0.00    +0.000 A 
ATOM     29  C   UNL     1       3.004   2.612  21.061  0.00  0.00    +0.000 A 
ATOM     30  O   UNL     1       3.269   3.439  20.018  0.00  0.00    +0.000 OA
ENDBRANCH  25  26
BRANCH  25  31
ATOM     31  O   UNL     1       2.595   4.293  17.451  0.00  0.00    +0.000 OA
ATOM     32  H   UNL     1       2.794   3.398  17.779  0.00  0.00    +0.000 HD
ENDBRANCH  25  31
ENDBRANCH   2  25
TORSDOF 7
ENDMDL
MODEL 6
REMARK VINA RESULT:      -7.5      2.052      3.488
REMARK  Name = 
REMARK  7 active torsions:
REMARK  status: ('A' for Active; 'I' for Inactive)
REMARK    1  A    between atoms: N_4  and  N_5
REMARK    2  A    between atoms: C_6  and  C_7
REMARK    3  A    between atoms: C_6  and  C_21
REMARK    4  A    between atoms: C_12  and  N_13
REMARK    5  A    between atoms: C_19  and  O_20
REMARK    6  A    between atoms: C_21  and  O_22
REMARK    7  A    between atoms: C_21  and  C_23
REMARK                            x       y       z     vdW  Elec       q    Type
REMARK                         _______ _______ _______ _____ _____    ______ ____
ROOT
ATOM      1  N   UNL     1       2.827   4.402  18.209  0.00  0.00    +0.000 NA
ATOM      2  C   UNL     1       3.558   5.470  18.424  0.00  0.00    +0.000 C 
ENDROOT
BRANCH   2   3
ATOM      3  C   UNL     1       2.828   6.745  18.724  0.00  0.00    +0.000 A 
ATOM      4  N   UNL     1       2.254   6.831  19.958  0.00  0.00    +0.000 NA
ATOM      5  C   UNL     1       1.623   7.983  20.265  0.00  0.00    +0.000 A 
ATOM      6  C   UNL     1       1.026   8.146  21.510  0.00  0.00    +0.000 A 
ATOM      7  C   UNL     1       0.346   9.321  21.846  0.00  0.00    +0.000 A 
ATOM      8  C   UNL     1       0.272  10.355  20.911  0.00  0.00    +0.000 A 
ATOM      9  C   UNL     1       0.874  10.215  19.658  0.00  0.00    +0.000 A 
ATOM     10  C   UNL     1       1.548   9.052  19.330  0.00  0.00    +0.000 A 
ATOM     11  N   UNL     1       2.125   8.968  18.122  0.00  0.00    +0.000 NA
ATOM     12  C   UNL     1       2.773   7.821  17.849  0.00  0.00    +0.000 A 
BRANCH   8  13
ATOM     13  N   UNL     1      -0.438  11.598  21.236  0.00  0.00    +0.000 N 
ATOM     14  O   UNL     1       0.055  12.328  22.108  0.00  0.00    +0.000 OA
ATOM     15  O   UNL     1      -1.484  11.838  20.622  0.00  0.00    +0.000 OA
ENDBRANCH   8  13
BRANCH  12  16
ATOM     16  O   UNL     1       3.392   7.871  16.650  0.00  0.00    +0.000 OA
ATOM     17  H   UNL     1       3.285   8.810  16.413  0.00  0.00    +0.000 HD
ENDBRANCH  12  16
ENDBRANCH   2   3
BRANCH   1  21
ATOM     18  N   UNL     1       2.304   2.265  19.665  0.00  0.00    +0.000 N 
ATOM     19  C   UNL     1       3.181   2.081  18.648  0.00  0.00    +0.000 C 
ATOM     20  O   UNL     1       3.725   1.006  18.430  0.00  0.00    +0.000 OA
ATOM     21  N   UNL     1       3.438   3.216  17.919  0.00  0.00    +0.000 N 
ATOM     22  H   UNL     1       2.176   1.536  20.346  0.00  0.00    +0.000 HD
ATOM     23  H   UNL     1       2.052   3.225  19.863  0.00  0.00    +0.000 HD
ATOM     24  H   UNL     1       4.041   3.108  17.106  0.00  0.00    +0.000 HD
ENDBRANCH   1  21
BRANCH   2  25
ATOM     25  C   UNL     1       5.089   5.501  18.508  0.00  0.00    +0.000 C 
BRANCH  25  26
ATOM     26  C   UNL     1       5.764   5.307  17.191  0.00  0.00    +0.000 A 
ATOM     27  C   UNL     1       7.024   4.858  16.847  0.00  0.00    +0.000 A 
ATOM     28  C   UNL     1       7.030   4.725  15.438  0.00  0.00    +0.000 A 
ATOM     29  C   UNL     1       5.787   5.125  15.009  0.00  0.00    +0.000 A 
ATOM     30  O   UNL     1       5.017   5.499  16.062  0.00  0.00    +0.000 OA
ENDBRANCH  25  26
BRANCH  25  31
ATOM     31  O   UNL     1       5.551   4.504  19.413  0.00  0.00    +0.000 OA
ATOM     32  H   UNL     1       6.299   4.061  18.975  0.00  0.00    +0.000 HD
ENDBRANCH  25  31
ENDBRANCH   2  25
TORSDOF 7
ENDMDL
MODEL 7
REMARK VINA RESULT:      -7.5      1.517      2.246
REMARK  Name = 
REMARK  7 active torsions:
REMARK  status: ('A' for Active; 'I' for Inactive)
REMARK    1  A    between atoms: N_4  and  N_5
REMARK    2  A    between atoms: C_6  and  C_7
REMARK    3  A    between atoms: C_6  and  C_21
REMARK    4  A    between atoms: C_12  and  N_13
REMARK    5  A    between atoms: C_19  and  O_20
REMARK    6  A    between atoms: C_21  and  O_22
REMARK    7  A    between atoms: C_21  and  C_23
REMARK                            x       y       z     vdW  Elec       q    Type
REMARK                         _______ _______ _______ _____ _____    ______ ____
ROOT
ATOM      1  N   UNL     1       5.509   5.817  18.718  0.00  0.00    +0.000 NA
ATOM      2  C   UNL     1       4.230   5.531  18.674  0.00  0.00    +0.000 C 
ENDROOT
BRANCH   2   3
ATOM      3  C   UNL     1       3.272   6.682  18.749  0.00  0.00    +0.000 A 
ATOM      4  N   UNL     1       2.587   6.817  19.920  0.00  0.00    +0.000 NA
ATOM      5  C   UNL     1       1.746   7.866  20.024  0.00  0.00    +0.000 A 
ATOM      6  C   UNL     1       1.025   8.074  21.195  0.00  0.00    +0.000 A 
ATOM      7  C   UNL     1       0.129   9.141  21.322  0.00  0.00    +0.000 A 
ATOM      8  C   UNL     1      -0.039  10.019  20.250  0.00  0.00    +0.000 A 
ATOM      9  C   UNL     1       0.684   9.834  19.069  0.00  0.00    +0.000 A 
ATOM     10  C   UNL     1       1.571   8.779  18.948  0.00  0.00    +0.000 A 
ATOM     11  N   UNL     1       2.257   8.650  17.802  0.00  0.00    +0.000 NA
ATOM     12  C   UNL     1       3.110   7.613  17.732  0.00  0.00    +0.000 A 
BRANCH   8  13
ATOM     13  N   UNL     1      -0.974  11.146  20.355  0.00  0.00    +0.000 N 
ATOM     14  O   UNL     1      -1.747  11.339  19.407  0.00  0.00    +0.000 OA
ATOM     15  O   UNL     1      -0.931  11.832  21.384  0.00  0.00    +0.000 OA
ENDBRANCH   8  13
BRANCH  12  16
ATOM     16  O   UNL     1       3.814   7.622  16.579  0.00  0.00    +0.000 OA
ATOM     17  H   UNL     1       3.800   6.679  16.333  0.00  0.00    +0.000 HD
ENDBRANCH  12  16
ENDBRANCH   2   3
BRANCH   1  21
ATOM     18  N   UNL     1       7.570   5.997  17.079  0.00  0.00    +0.000 N 
ATOM     19  C   UNL     1       7.517   4.872  17.834  0.00  0.00    +0.000 C 
ATOM     20  O   UNL     1       8.348   3.978  17.746  0.00  0.00    +0.000 OA
ATOM     21  N   UNL     1       6.426   4.808  18.667  0.00  0.00    +0.000 N 
ATOM     22  H   UNL     1       8.240   6.060  16.332  0.00  0.00    +0.000 HD
ATOM     23  H   UNL     1       6.745   6.583  17.103  0.00  0.00    +0.000 HD
ATOM     24  H   UNL     1       6.382   4.010  19.298  0.00  0.00    +0.000 HD
ENDBRANCH   1  21
BRANCH   2  25
ATOM     25  C   UNL     1       3.635   4.136  18.440  0.00  0.00    +0.000 C 
BRANCH  25  26
ATOM     26  C   UNL     1       2.775   3.658  19.562  0.00  0.00    +0.000 A 
ATOM     27  C   UNL     1       1.407   3.514  19.693  0.00  0.00    +0.000 A 
ATOM     28  C   UNL     1       1.190   2.851  20.924  0.00  0.00    +0.000 A 
ATOM     29  C   UNL     1       2.432   2.654  21.479  0.00  0.00    +0.000 A 
ATOM     30  O   UNL     1       3.400   3.158  20.671  0.00  0.00    +0.000 OA
ENDBRANCH  25  26
BRANCH  25  31
ATOM     31  O   UNL     1       4.675   3.190  18.221  0.00  0.00    +0.000 OA
ATOM     32  H   UNL     1       4.958   3.302  17.296  0.00  0.00    +0.000 HD
ENDBRANCH  25  31
ENDBRANCH   2  25
TORSDOF 7
ENDMDL
MODEL 8
REMARK VINA RESULT:      -7.3      2.169      3.716
REMARK  Name = 
REMARK  7 active torsions:
REMARK  status: ('A' for Active; 'I' for Inactive)
REMARK    1  A    between atoms: N_4  and  N_5
REMARK    2  A    between atoms: C_6  and  C_7
REMARK    3  A    between atoms: C_6  and  C_21
REMARK    4  A    between atoms: C_12  and  N_13
REMARK    5  A    between atoms: C_19  and  O_20
REMARK    6  A    between atoms: C_21  and  O_22
REMARK    7  A    between atoms: C_21  and  C_23
REMARK                            x       y       z     vdW  Elec       q    Type
REMARK                         _______ _______ _______ _____ _____    ______ ____
ROOT
ATOM      1  N   UNL     1       2.329   5.224  17.826  0.00  0.00    +0.000 NA
ATOM      2  C   UNL     1       2.893   5.912  18.789  0.00  0.00    +0.000 C 
ENDROOT
BRANCH   2   3
ATOM      3  C   UNL     1       2.256   7.218  19.157  0.00  0.00    +0.000 A 
ATOM      4  N   UNL     1       1.784   7.317  20.433  0.00  0.00    +0.000 NA
ATOM      5  C   UNL     1       1.239   8.495  20.798  0.00  0.00    +0.000 A 
ATOM      6  C   UNL     1       0.749   8.671  22.088  0.00  0.00    +0.000 A 
ATOM      7  C   UNL     1       0.158   9.875  22.487  0.00  0.00    +0.000 A 
ATOM      8  C   UNL     1       0.066  10.923  21.571  0.00  0.00    +0.000 A 
ATOM      9  C   UNL     1       0.561  10.770  20.273  0.00  0.00    +0.000 A 
ATOM     10  C   UNL     1       1.147   9.579  19.883  0.00  0.00    +0.000 A 
ATOM     11  N   UNL     1       1.624   9.482  18.633  0.00  0.00    +0.000 NA
ATOM     12  C   UNL     1       2.188   8.308  18.299  0.00  0.00    +0.000 A 
BRANCH   8  13
ATOM     13  N   UNL     1      -0.552  12.196  21.962  0.00  0.00    +0.000 N 
ATOM     14  O   UNL     1      -0.874  12.979  21.058  0.00  0.00    +0.000 OA
ATOM     15  O   UNL     1      -0.710  12.409  23.171  0.00  0.00    +0.000 OA
ENDBRANCH   8  13
BRANCH  12  16
ATOM     16  O   UNL     1       2.715   8.342  17.056  0.00  0.00    +0.000 OA
ATOM     17  H   UNL     1       3.432   7.686  17.129  0.00  0.00    +0.000 HD
ENDBRANCH  12  16
ENDBRANCH   2   3
BRANCH   1  21
ATOM     18  N   UNL     1       1.161   2.961  18.517  0.00  0.00    +0.000 N 
ATOM     19  C   UNL     1       2.287   2.837  17.773  0.00  0.00    +0.000 C 
ATOM     20  O   UNL     1       2.758   1.750  17.463  0.00  0.00    +0.000 OA
ATOM     21  N   UNL     1       2.873   4.033  17.441  0.00  0.00    +0.000 N 
ATOM     22  H   UNL     1       0.754   2.144  18.939  0.00  0.00    +0.000 HD
ATOM     23  H   UNL     1       0.961   3.891  18.862  0.00  0.00    +0.000 HD
ATOM     24  H   UNL     1       3.685   3.988  16.827  0.00  0.00    +0.000 HD
ENDBRANCH   1  21
BRANCH   2  25
ATOM     25  C   UNL     1       4.077   5.443  19.645  0.00  0.00    +0.000 C 
BRANCH  25  26
ATOM     26  C   UNL     1       5.400   5.607  18.975  0.00  0.00    +0.000 A 
ATOM     27  C   UNL     1       5.768   6.142  17.755  0.00  0.00    +0.000 A 
ATOM     28  C   UNL     1       7.183   6.179  17.744  0.00  0.00    +0.000 A 
ATOM     29  C   UNL     1       7.590   5.643  18.943  0.00  0.00    +0.000 A 
ATOM     30  O   UNL     1       6.518   5.274  19.689  0.00  0.00    +0.000 OA
ENDBRANCH  25  26
BRANCH  25  31
ATOM     31  O   UNL     1       3.910   4.076  20.006  0.00  0.00    +0.000 OA
ATOM     32  H   UNL     1       3.421   3.657  19.275  0.00  0.00    +0.000 HD
ENDBRANCH  25  31
ENDBRANCH   2  25
TORSDOF 7
ENDMDL
MODEL 9
REMARK VINA RESULT:      -7.3      2.179      3.547
REMARK  Name = 
REMARK  7 active torsions:
REMARK  status: ('A' for Active; 'I' for Inactive)
REMARK    1  A    between atoms: N_4  and  N_5
REMARK    2  A    between atoms: C_6  and  C_7
REMARK    3  A    between atoms: C_6  and  C_21
REMARK    4  A    between atoms: C_12  and  N_13
REMARK    5  A    between atoms: C_19  and  O_20
REMARK    6  A    between atoms: C_21  and  O_22
REMARK    7  A    between atoms: C_21  and  C_23
REMARK                            x       y       z     vdW  Elec       q    Type
REMARK                         _______ _______ _______ _____ _____    ______ ____
ROOT
ATOM      1  N   UNL     1       2.405   4.734  18.449  0.00  0.00    +0.000 NA
ATOM      2  C   UNL     1       3.113   5.834  18.542  0.00  0.00    +0.000 C 
ENDROOT
BRANCH   2   3
ATOM      3  C   UNL     1       2.388   7.078  18.958  0.00  0.00    +0.000 A 
ATOM      4  N   UNL     1       1.911   7.095  20.236  0.00  0.00    +0.000 NA
ATOM      5  C   UNL     1       1.286   8.218  20.645  0.00  0.00    +0.000 A 
ATOM      6  C   UNL     1       0.786   8.311  21.939  0.00  0.00    +0.000 A 
ATOM      7  C   UNL     1       0.114   9.455  22.382  0.00  0.00    +0.000 A 
ATOM      8  C   UNL     1      -0.052  10.529  21.506  0.00  0.00    +0.000 A 
ATOM      9  C   UNL     1       0.452  10.459  20.205  0.00  0.00    +0.000 A 
ATOM     10  C   UNL     1       1.119   9.327  19.771  0.00  0.00    +0.000 A 
ATOM     11  N   UNL     1       1.601   9.311  18.519  0.00  0.00    +0.000 NA
ATOM     12  C   UNL     1       2.245   8.192  18.143  0.00  0.00    +0.000 A 
BRANCH   8  13
ATOM     13  N   UNL     1      -0.755  11.740  21.944  0.00  0.00    +0.000 N 
ATOM     14  O   UNL     1      -1.539  12.269  21.144  0.00  0.00    +0.000 OA
ATOM     15  O   UNL     1      -0.520  12.159  23.085  0.00  0.00    +0.000 OA
ENDBRANCH   8  13
BRANCH  12  16
ATOM     16  O   UNL     1       2.767   8.310  16.902  0.00  0.00    +0.000 OA
ATOM     17  H   UNL     1       3.503   7.671  16.939  0.00  0.00    +0.000 HD
ENDBRANCH  12  16
ENDBRANCH   2   3
BRANCH   1  21
ATOM     18  N   UNL     1       2.183   2.573  19.948  0.00  0.00    +0.000 N 
ATOM     19  C   UNL     1       2.908   2.427  18.812  0.00  0.00    +0.000 C 
ATOM     20  O   UNL     1       3.454   1.375  18.508  0.00  0.00    +0.000 OA
ATOM     21  N   UNL     1       3.011   3.574  18.063  0.00  0.00    +0.000 N 
ATOM     22  H   UNL     1       2.184   1.838  20.634  0.00  0.00    +0.000 HD
ATOM     23  H   UNL     1       1.927   3.522  20.189  0.00  0.00    +0.000 HD
ATOM     24  H   UNL     1       3.492   3.491  17.169  0.00  0.00    +0.000 HD
ENDBRANCH   1  21
BRANCH   2  25
ATOM     25  C   UNL     1       4.635   5.932  18.373  0.00  0.00    +0.000 C 
BRANCH  25  26
ATOM     26  C   UNL     1       5.118   5.480  17.036  0.00  0.00    +0.000 A 
ATOM     27  C   UNL     1       5.204   6.115  15.812  0.00  0.00    +0.000 A 
ATOM     28  C   UNL     1       5.906   5.236  14.954  0.00  0.00    +0.000 A 
ATOM     29  C   UNL     1       6.181   4.112  15.696  0.00  0.00    +0.000 A 
ATOM     30  O   UNL     1       5.691   4.241  16.955  0.00  0.00    +0.000 OA
ENDBRANCH  25  26
BRANCH  25  31
ATOM     31  O   UNL     1       5.290   5.170  19.382  0.00  0.00    +0.000 OA
ATOM     32  H   UNL     1       4.676   5.127  20.136  0.00  0.00    +0.000 HD
ENDBRANCH  25  31
ENDBRANCH   2  25
TORSDOF 7
ENDMDL
