MODEL 1
REMARK VINA RESULT:      -8.0      0.000      0.000
REMARK  Name = 
REMARK  9 active torsions:
REMARK  status: ('A' for Active; 'I' for Inactive)
REMARK    1  A    between atoms: C_1  and  C_2
REMARK    2  A    between atoms: C_4  and  C_5
REMARK    3  A    between atoms: C_7  and  C_8
REMARK    4  A    between atoms: C_11  and  O_12
REMARK    5  A    between atoms: O_12  and  C_13
REMARK    6  A    between atoms: C_17  and  C_18
REMARK    7  A    between atoms: C_25  and  C_26
REMARK    8  A    between atoms: CA_29  and  C_30
REMARK    9  A    between atoms: C_30  and  O_31
REMARK                            x       y       z     vdW  Elec       q    Type
REMARK                         _______ _______ _______ _____ _____    ______ ____
ROOT
ATOM      1  C   UNL     1       4.113   5.581  18.876  0.00  0.00    +0.000 A 
ATOM      2  N   UNL     1       3.540   6.828  18.903  0.00  0.00    +0.000 NA
ATOM      3  C   UNL     1       2.429   6.733  19.614  0.00  0.00    +0.000 A 
ATOM      4  N   UNL     1       2.237   5.408  19.983  0.00  0.00    +0.000 N 
ATOM      5  C   UNL     1       3.360   4.691  19.619  0.00  0.00    +0.000 A 
ATOM      6  C   UNL     1       3.616   3.252  19.957  0.00  0.00    +0.000 C 
ATOM      7  C   UNL     1       2.853   2.734  21.163  0.00  0.00    +0.000 C 
ATOM      8  O   UNL     1       1.496   2.410  20.874  0.00  0.00    +0.000 OA
ATOM      9  C   UNL     1       0.687   3.415  20.255  0.00  0.00    +0.000 C 
ATOM     10  C   UNL     1       0.549   3.150  18.754  0.00  0.00    +0.000 C 
ATOM     11  C   UNL     1       1.042   4.866  20.609  0.00  0.00    +0.000 C 
ENDROOT
BRANCH   1  15
ATOM     12  C   UNL     1       6.658   4.247  14.808  0.00  0.00    +0.000 C 
ATOM     13  C   UNL     1       6.620   4.649  16.254  0.00  0.00    +0.000 A 
ATOM     14  C   UNL     1       5.424   5.039  16.832  0.00  0.00    +0.000 A 
ATOM     15  C   UNL     1       5.373   5.296  18.202  0.00  0.00    +0.000 A 
ATOM     16  C   UNL     1       6.556   5.241  18.933  0.00  0.00    +0.000 A 
ATOM     17  CA  UNL     1       7.731   4.884  18.279  0.00  0.00    +0.000 A 
ATOM     18  N   UNL     1       7.775   4.566  16.955  0.00  0.00    +0.000 NA
BRANCH  17  19
ATOM     19  C   UNL     1       9.022   4.775  19.059  0.00  0.00    +0.000 C 
BRANCH  19  20
ATOM     20  O   UNL     1       8.824   5.088  20.437  0.00  0.00    +0.000 OA
ATOM     21  H   UNL     1       8.124   4.470  20.733  0.00  0.00    +0.000 HD
ENDBRANCH  19  20
ENDBRANCH  17  19
ENDBRANCH   1  15
BRANCH   3  22
ATOM     22  C   UNL     1       1.558   7.878  19.938  0.00  0.00    +0.000 A 
ATOM     23  C   UNL     1       1.235   8.807  18.947  0.00  0.00    +0.000 A 
ATOM     24  C   UNL     1       0.479   9.945  19.256  0.00  0.00    +0.000 A 
ATOM     25  C   UNL     1       0.022  10.189  20.559  0.00  0.00    +0.000 A 
ATOM     26  C   UNL     1       0.352   9.283  21.575  0.00  0.00    +0.000 A 
ATOM     27  C   UNL     1       0.021   9.447  23.033  0.00  0.00    +0.000 C 
ATOM     28  C   UNL     1       1.111   8.136  21.241  0.00  0.00    +0.000 A 
BRANCH  25  29
ATOM     29  O   UNL     1      -0.523  11.426  20.734  0.00  0.00    +0.000 OA
BRANCH  29  30
ATOM     30  C   UNL     1       0.324  12.554  20.888  0.00  0.00    +0.000 C 
ATOM     31  F   UNL     1       1.638  12.259  20.956  0.00  0.00    +0.000 F 
ATOM     32  F   UNL     1       0.121  13.384  19.839  0.00  0.00    +0.000 F 
ATOM     33  F   UNL     1      -0.017  13.220  22.014  0.00  0.00    +0.000 F 
ENDBRANCH  29  30
ENDBRANCH  25  29
ENDBRANCH   3  22
TORSDOF 6
ENDMDL
MODEL 2
REMARK VINA RESULT:      -7.9      1.553      2.234
REMARK  Name = 
REMARK  9 active torsions:
REMARK  status: ('A' for Active; 'I' for Inactive)
REMARK    1  A    between atoms: C_1  and  C_2
REMARK    2  A    between atoms: C_4  and  C_5
REMARK    3  A    between atoms: C_7  and  C_8
REMARK    4  A    between atoms: C_11  and  O_12
REMARK    5  A    between atoms: O_12  and  C_13
REMARK    6  A    between atoms: C_17  and  C_18
REMARK    7  A    between atoms: C_25  and  C_26
REMARK    8  A    between atoms: CA_29  and  C_30
REMARK    9  A    between atoms: C_30  and  O_31
REMARK                            x       y       z     vdW  Elec       q    Type
REMARK                         _______ _______ _______ _____ _____    ______ ____
ROOT
ATOM      1  C   UNL     1       4.156   5.432  18.598  0.00  0.00    +0.000 A 
ATOM      2  N   UNL     1       3.629   6.699  18.570  0.00  0.00    +0.000 NA
ATOM      3  C   UNL     1       2.550   6.692  19.335  0.00  0.00    +0.000 A 
ATOM      4  N   UNL     1       2.329   5.402  19.798  0.00  0.00    +0.000 N 
ATOM      5  C   UNL     1       3.407   4.620  19.430  0.00  0.00    +0.000 A 
ATOM      6  C   UNL     1       3.628   3.197  19.850  0.00  0.00    +0.000 C 
ATOM      7  C   UNL     1       2.905   2.786  21.119  0.00  0.00    +0.000 C 
ATOM      8  O   UNL     1       1.526   2.497  20.913  0.00  0.00    +0.000 OA
ATOM      9  C   UNL     1       0.724   3.491  20.268  0.00  0.00    +0.000 C 
ATOM     10  C   UNL     1       0.506   3.137  18.795  0.00  0.00    +0.000 C 
ATOM     11  C   UNL     1       1.146   4.946  20.510  0.00  0.00    +0.000 C 
ENDROOT
BRANCH   1  15
ATOM     12  C   UNL     1       9.015   4.338  18.581  0.00  0.00    +0.000 C 
ATOM     13  C   UNL     1       7.714   4.532  17.855  0.00  0.00    +0.000 A 
ATOM     14  C   UNL     1       6.552   4.760  18.570  0.00  0.00    +0.000 A 
ATOM     15  C   UNL     1       5.371   5.057  17.888  0.00  0.00    +0.000 A 
ATOM     16  C   UNL     1       5.381   5.022  16.497  0.00  0.00    +0.000 A 
ATOM     17  CA  UNL     1       6.576   4.742  15.842  0.00  0.00    +0.000 A 
ATOM     18  N   UNL     1       7.748   4.518  16.502  0.00  0.00    +0.000 NA
BRANCH  17  19
ATOM     19  C   UNL     1       6.624   4.741  14.331  0.00  0.00    +0.000 C 
BRANCH  19  20
ATOM     20  O   UNL     1       7.705   5.536  13.846  0.00  0.00    +0.000 OA
ATOM     21  H   UNL     1       8.487   5.222  14.346  0.00  0.00    +0.000 HD
ENDBRANCH  19  20
ENDBRANCH  17  19
ENDBRANCH   1  15
BRANCH   3  22
ATOM     22  C   UNL     1       1.737   7.888  19.622  0.00  0.00    +0.000 A 
ATOM     23  C   UNL     1       1.559   8.860  18.637  0.00  0.00    +0.000 A 
ATOM     24  C   UNL     1       0.860  10.042  18.918  0.00  0.00    +0.000 A 
ATOM     25  C   UNL     1       0.318  10.286  20.188  0.00  0.00    +0.000 A 
ATOM     26  C   UNL     1       0.502   9.335  21.200  0.00  0.00    +0.000 A 
ATOM     27  C   UNL     1       0.067   9.489  22.631  0.00  0.00    +0.000 C 
ATOM     28  C   UNL     1       1.205   8.147  20.893  0.00  0.00    +0.000 A 
BRANCH  25  29
ATOM     29  O   UNL     1      -0.153  11.554  20.356  0.00  0.00    +0.000 OA
BRANCH  29  30
ATOM     30  C   UNL     1      -1.511  11.847  20.065  0.00  0.00    +0.000 C 
ATOM     31  F   UNL     1      -2.116  10.943  19.268  0.00  0.00    +0.000 F 
ATOM     32  F   UNL     1      -2.190  11.918  21.232  0.00  0.00    +0.000 F 
ATOM     33  F   UNL     1      -1.590  13.056  19.465  0.00  0.00    +0.000 F 
ENDBRANCH  29  30
ENDBRANCH  25  29
ENDBRANCH   3  22
TORSDOF 6
ENDMDL
MODEL 3
REMARK VINA RESULT:      -7.9      0.980      1.184
REMARK  Name = 
REMARK  9 active torsions:
REMARK  status: ('A' for Active; 'I' for Inactive)
REMARK    1  A    between atoms: C_1  and  C_2
REMARK    2  A    between atoms: C_4  and  C_5
REMARK    3  A    between atoms: C_7  and  C_8
REMARK    4  A    between atoms: C_11  and  O_12
REMARK    5  A    between atoms: O_12  and  C_13
REMARK    6  A    between atoms: C_17  and  C_18
REMARK    7  A    between atoms: C_25  and  C_26
REMARK    8  A    between atoms: CA_29  and  C_30
REMARK    9  A    between atoms: C_30  and  O_31
REMARK                            x       y       z     vdW  Elec       q    Type
REMARK                         _______ _______ _______ _____ _____    ______ ____
ROOT
ATOM      1  C   UNL     1       4.112   5.590  18.744  0.00  0.00    +0.000 A 
ATOM      2  N   UNL     1       3.553   6.843  18.745  0.00  0.00    +0.000 NA
ATOM      3  C   UNL     1       2.452   6.780  19.476  0.00  0.00    +0.000 A 
ATOM      4  N   UNL     1       2.252   5.469  19.885  0.00  0.00    +0.000 N 
ATOM      5  C   UNL     1       3.361   4.729  19.523  0.00  0.00    +0.000 A 
ATOM      6  C   UNL     1       3.608   3.297  19.899  0.00  0.00    +0.000 C 
ATOM      7  C   UNL     1       2.858   2.822  21.130  0.00  0.00    +0.000 C 
ATOM      8  O   UNL     1       1.494   2.505  20.872  0.00  0.00    +0.000 OA
ATOM      9  C   UNL     1       0.686   3.501  20.238  0.00  0.00    +0.000 C 
ATOM     10  C   UNL     1       0.521   3.196  18.747  0.00  0.00    +0.000 C 
ATOM     11  C   UNL     1       1.062   4.957  20.545  0.00  0.00    +0.000 C 
ENDROOT
BRANCH   1  15
ATOM     12  C   UNL     1       6.589   4.237  14.640  0.00  0.00    +0.000 C 
ATOM     13  C   UNL     1       6.572   4.615  16.093  0.00  0.00    +0.000 A 
ATOM     14  C   UNL     1       5.394   5.037  16.684  0.00  0.00    +0.000 A 
ATOM     15  C   UNL     1       5.358   5.272  18.058  0.00  0.00    +0.000 A 
ATOM     16  C   UNL     1       6.542   5.162  18.782  0.00  0.00    +0.000 A 
ATOM     17  CA  UNL     1       7.700   4.775  18.116  0.00  0.00    +0.000 A 
ATOM     18  N   UNL     1       7.727   4.479  16.786  0.00  0.00    +0.000 NA
BRANCH  17  19
ATOM     19  C   UNL     1       8.989   4.605  18.887  0.00  0.00    +0.000 C 
BRANCH  19  20
ATOM     20  O   UNL     1       8.864   5.094  20.222  0.00  0.00    +0.000 OA
ATOM     21  H   UNL     1       8.216   4.494  20.645  0.00  0.00    +0.000 HD
ENDBRANCH  19  20
ENDBRANCH  17  19
ENDBRANCH   1  15
BRANCH   3  22
ATOM     22  C   UNL     1       1.599   7.944  19.781  0.00  0.00    +0.000 A 
ATOM     23  C   UNL     1       1.440   8.956  18.833  0.00  0.00    +0.000 A 
ATOM     24  C   UNL     1       0.702  10.108  19.136  0.00  0.00    +0.000 A 
ATOM     25  C   UNL     1       0.101  10.282  20.391  0.00  0.00    +0.000 A 
ATOM     26  C   UNL     1       0.265   9.290  21.366  0.00  0.00    +0.000 A 
ATOM     27  C   UNL     1      -0.235   9.368  22.782  0.00  0.00    +0.000 C 
ATOM     28  C   UNL     1       1.008   8.132  21.037  0.00  0.00    +0.000 A 
BRANCH  25  29
ATOM     29  O   UNL     1      -0.407  11.530  20.594  0.00  0.00    +0.000 OA
BRANCH  29  30
ATOM     30  C   UNL     1      -1.646  11.893  20.005  0.00  0.00    +0.000 C 
ATOM     31  F   UNL     1      -2.165  10.959  19.182  0.00  0.00    +0.000 F 
ATOM     32  F   UNL     1      -2.534  12.137  20.996  0.00  0.00    +0.000 F 
ATOM     33  F   UNL     1      -1.489  13.035  19.299  0.00  0.00    +0.000 F 
ENDBRANCH  29  30
ENDBRANCH  25  29
ENDBRANCH   3  22
TORSDOF 6
ENDMDL
MODEL 4
REMARK VINA RESULT:      -7.9      1.235      2.005
REMARK  Name = 
REMARK  9 active torsions:
REMARK  status: ('A' for Active; 'I' for Inactive)
REMARK    1  A    between atoms: C_1  and  C_2
REMARK    2  A    between atoms: C_4  and  C_5
REMARK    3  A    between atoms: C_7  and  C_8
REMARK    4  A    between atoms: C_11  and  O_12
REMARK    5  A    between atoms: O_12  and  C_13
REMARK    6  A    between atoms: C_17  and  C_18
REMARK    7  A    between atoms: C_25  and  C_26
REMARK    8  A    between atoms: CA_29  and  C_30
REMARK    9  A    between atoms: C_30  and  O_31
REMARK                            x       y       z     vdW  Elec       q    Type
REMARK                         _______ _______ _______ _____ _____    ______ ____
ROOT
ATOM      1  C   UNL     1       4.137   5.405  18.644  0.00  0.00    +0.000 A 
ATOM      2  N   UNL     1       3.588   6.663  18.635  0.00  0.00    +0.000 NA
ATOM      3  C   UNL     1       2.510   6.627  19.400  0.00  0.00    +0.000 A 
ATOM      4  N   UNL     1       2.311   5.326  19.844  0.00  0.00    +0.000 N 
ATOM      5  C   UNL     1       3.402   4.568  19.464  0.00  0.00    +0.000 A 
ATOM      6  C   UNL     1       3.647   3.143  19.863  0.00  0.00    +0.000 C 
ATOM      7  C   UNL     1       2.931   2.701  21.126  0.00  0.00    +0.000 C 
ATOM      8  O   UNL     1       1.557   2.392  20.916  0.00  0.00    +0.000 OA
ATOM      9  C   UNL     1       0.739   3.382  20.286  0.00  0.00    +0.000 C 
ATOM     10  C   UNL     1       0.525   3.047  18.808  0.00  0.00    +0.000 C 
ATOM     11  C   UNL     1       1.137   4.841  20.550  0.00  0.00    +0.000 C 
ENDROOT
BRANCH   1  15
ATOM     12  C   UNL     1       9.015   4.399  18.608  0.00  0.00    +0.000 C 
ATOM     13  C   UNL     1       7.710   4.578  17.886  0.00  0.00    +0.000 A 
ATOM     14  C   UNL     1       6.544   4.776  18.605  0.00  0.00    +0.000 A 
ATOM     15  C   UNL     1       5.358   5.060  17.928  0.00  0.00    +0.000 A 
ATOM     16  C   UNL     1       5.366   5.042  16.536  0.00  0.00    +0.000 A 
ATOM     17  CA  UNL     1       6.565   4.793  15.877  0.00  0.00    +0.000 A 
ATOM     18  N   UNL     1       7.742   4.582  16.533  0.00  0.00    +0.000 NA
BRANCH  17  19
ATOM     19  C   UNL     1       6.611   4.811  14.366  0.00  0.00    +0.000 C 
BRANCH  19  20
ATOM     20  O   UNL     1       7.767   5.500  13.891  0.00  0.00    +0.000 OA
ATOM     21  H   UNL     1       8.309   4.806  13.461  0.00  0.00    +0.000 HD
ENDBRANCH  19  20
ENDBRANCH  17  19
ENDBRANCH   1  15
BRANCH   3  22
ATOM     22  C   UNL     1       1.678   7.805  19.706  0.00  0.00    +0.000 A 
ATOM     23  C   UNL     1       1.395   8.734  18.703  0.00  0.00    +0.000 A 
ATOM     24  C   UNL     1       0.676   9.901  18.994  0.00  0.00    +0.000 A 
ATOM     25  C   UNL     1       0.218  10.173  20.292  0.00  0.00    +0.000 A 
ATOM     26  C   UNL     1       0.508   9.267  21.319  0.00  0.00    +0.000 A 
ATOM     27  C   UNL     1       0.172   9.457  22.772  0.00  0.00    +0.000 C 
ATOM     28  C   UNL     1       1.230   8.092  21.002  0.00  0.00    +0.000 A 
BRANCH  25  29
ATOM     29  O   UNL     1      -0.285  11.430  20.450  0.00  0.00    +0.000 OA
BRANCH  29  30
ATOM     30  C   UNL     1       0.596  12.542  20.497  0.00  0.00    +0.000 C 
ATOM     31  F   UNL     1       0.779  13.157  19.311  0.00  0.00    +0.000 F 
ATOM     32  F   UNL     1       0.100  13.441  21.378  0.00  0.00    +0.000 F 
ATOM     33  F   UNL     1       1.803  12.139  20.952  0.00  0.00    +0.000 F 
ENDBRANCH  29  30
ENDBRANCH  25  29
ENDBRANCH   3  22
TORSDOF 6
ENDMDL
MODEL 5
REMARK VINA RESULT:      -7.8      4.825      9.436
REMARK  Name = 
REMARK  9 active torsions:
REMARK  status: ('A' for Active; 'I' for Inactive)
REMARK    1  A    between atoms: C_1  and  C_2
REMARK    2  A    between atoms: C_4  and  C_5
REMARK    3  A    between atoms: C_7  and  C_8
REMARK    4  A    between atoms: C_11  and  O_12
REMARK    5  A    between atoms: O_12  and  C_13
REMARK    6  A    between atoms: C_17  and  C_18
REMARK    7  A    between atoms: C_25  and  C_26
REMARK    8  A    between atoms: CA_29  and  C_30
REMARK    9  A    between atoms: C_30  and  O_31
REMARK                            x       y       z     vdW  Elec       q    Type
REMARK                         _______ _______ _______ _____ _____    ______ ____
ROOT
ATOM      1  C   UNL     1      -1.082  10.443  18.138  0.00  0.00    +0.000 A 
ATOM      2  N   UNL     1      -0.252   9.407  17.790  0.00  0.00    +0.000 NA
ATOM      3  C   UNL     1       0.730   9.378  18.675  0.00  0.00    +0.000 A 
ATOM      4  N   UNL     1       0.584  10.443  19.553  0.00  0.00    +0.000 N 
ATOM      5  C   UNL     1      -0.627  11.055  19.291  0.00  0.00    +0.000 A 
ATOM      6  C   UNL     1      -1.230  12.164  20.102  0.00  0.00    +0.000 C 
ATOM      7  C   UNL     1      -0.730  12.254  21.533  0.00  0.00    +0.000 C 
ATOM      8  O   UNL     1       0.543  12.882  21.646  0.00  0.00    +0.000 OA
ATOM      9  C   UNL     1       1.615  12.367  20.849  0.00  0.00    +0.000 C 
ATOM     10  C   UNL     1       1.845  13.247  19.619  0.00  0.00    +0.000 C 
ATOM     11  C   UNL     1       1.557  10.864  20.547  0.00  0.00    +0.000 C 
ENDROOT
BRANCH   1  15
ATOM     12  C   UNL     1      -5.697  12.311  17.996  0.00  0.00    +0.000 C 
ATOM     13  C   UNL     1      -4.526  11.664  17.314  0.00  0.00    +0.000 A 
ATOM     14  C   UNL     1      -3.340  11.481  18.004  0.00  0.00    +0.000 A 
ATOM     15  C   UNL     1      -2.297  10.774  17.405  0.00  0.00    +0.000 A 
ATOM     16  C   UNL     1      -2.451  10.353  16.087  0.00  0.00    +0.000 A 
ATOM     17  CA  UNL     1      -3.654  10.609  15.438  0.00  0.00    +0.000 A 
ATOM     18  N   UNL     1      -4.701  11.240  16.041  0.00  0.00    +0.000 NA
BRANCH  17  19
ATOM     19  C   UNL     1      -3.863  10.124  14.022  0.00  0.00    +0.000 C 
BRANCH  19  20
ATOM     20  O   UNL     1      -2.619   9.936  13.349  0.00  0.00    +0.000 OA
ATOM     21  H   UNL     1      -2.816  10.121  12.408  0.00  0.00    +0.000 HD
ENDBRANCH  19  20
ENDBRANCH  17  19
ENDBRANCH   1  15
BRANCH   3  22
ATOM     22  C   UNL     1       1.795   8.358  18.689  0.00  0.00    +0.000 A 
ATOM     23  C   UNL     1       2.781   8.369  17.701  0.00  0.00    +0.000 A 
ATOM     24  C   UNL     1       3.752   7.360  17.649  0.00  0.00    +0.000 A 
ATOM     25  C   UNL     1       3.767   6.313  18.582  0.00  0.00    +0.000 A 
ATOM     26  C   UNL     1       2.776   6.267  19.570  0.00  0.00    +0.000 A 
ATOM     27  C   UNL     1       2.599   5.167  20.579  0.00  0.00    +0.000 C 
ATOM     28  C   UNL     1       1.809   7.300  19.608  0.00  0.00    +0.000 A 
BRANCH  25  29
ATOM     29  O   UNL     1       4.643   5.313  18.279  0.00  0.00    +0.000 OA
BRANCH  29  30
ATOM     30  C   UNL     1       4.191   4.168  17.573  0.00  0.00    +0.000 C 
ATOM     31  F   UNL     1       2.922   4.256  17.125  0.00  0.00    +0.000 F 
ATOM     32  F   UNL     1       5.010   3.970  16.515  0.00  0.00    +0.000 F 
ATOM     33  F   UNL     1       4.281   3.083  18.375  0.00  0.00    +0.000 F 
ENDBRANCH  29  30
ENDBRANCH  25  29
ENDBRANCH   3  22
TORSDOF 6
ENDMDL
MODEL 6
REMARK VINA RESULT:      -7.6      4.660      9.330
REMARK  Name = 
REMARK  9 active torsions:
REMARK  status: ('A' for Active; 'I' for Inactive)
REMARK    1  A    between atoms: C_1  and  C_2
REMARK    2  A    between atoms: C_4  and  C_5
REMARK    3  A    between atoms: C_7  and  C_8
REMARK    4  A    between atoms: C_11  and  O_12
REMARK    5  A    between atoms: O_12  and  C_13
REMARK    6  A    between atoms: C_17  and  C_18
REMARK    7  A    between atoms: C_25  and  C_26
REMARK    8  A    between atoms: CA_29  and  C_30
REMARK    9  A    between atoms: C_30  and  O_31
REMARK                            x       y       z     vdW  Elec       q    Type
REMARK                         _______ _______ _______ _____ _____    ______ ____
ROOT
ATOM      1  C   UNL     1      -1.093  10.373  18.110  0.00  0.00    +0.000 A 
ATOM      2  N   UNL     1      -0.221   9.392  17.709  0.00  0.00    +0.000 NA
ATOM      3  C   UNL     1       0.736   9.322  18.619  0.00  0.00    +0.000 A 
ATOM      4  N   UNL     1       0.531  10.311  19.572  0.00  0.00    +0.000 N 
ATOM      5  C   UNL     1      -0.690  10.906  19.321  0.00  0.00    +0.000 A 
ATOM      6  C   UNL     1      -1.351  11.930  20.196  0.00  0.00    +0.000 C 
ATOM      7  C   UNL     1      -0.894  11.922  21.644  0.00  0.00    +0.000 C 
ATOM      8  O   UNL     1       0.355  12.577  21.844  0.00  0.00    +0.000 OA
ATOM      9  C   UNL     1       1.464  12.157  21.044  0.00  0.00    +0.000 C 
ATOM     10  C   UNL     1       1.702  13.137  19.893  0.00  0.00    +0.000 C 
ATOM     11  C   UNL     1       1.462  10.681  20.625  0.00  0.00    +0.000 C 
ENDROOT
BRANCH   1  15
ATOM     12  C   UNL     1      -5.701  12.256  17.947  0.00  0.00    +0.000 C 
ATOM     13  C   UNL     1      -4.521  11.623  17.267  0.00  0.00    +0.000 A 
ATOM     14  C   UNL     1      -3.346  11.420  17.969  0.00  0.00    +0.000 A 
ATOM     15  C   UNL     1      -2.297  10.725  17.368  0.00  0.00    +0.000 A 
ATOM     16  C   UNL     1      -2.432  10.336  16.038  0.00  0.00    +0.000 A 
ATOM     17  CA  UNL     1      -3.625  10.612  15.378  0.00  0.00    +0.000 A 
ATOM     18  N   UNL     1      -4.680  11.230  15.981  0.00  0.00    +0.000 NA
BRANCH  17  19
ATOM     19  C   UNL     1      -3.814  10.162  13.948  0.00  0.00    +0.000 C 
BRANCH  19  20
ATOM     20  O   UNL     1      -2.564   9.860  13.329  0.00  0.00    +0.000 OA
ATOM     21  H   UNL     1      -2.061  10.700  13.365  0.00  0.00    +0.000 HD
ENDBRANCH  19  20
ENDBRANCH  17  19
ENDBRANCH   1  15
BRANCH   3  22
ATOM     22  C   UNL     1       1.831   8.335  18.587  0.00  0.00    +0.000 A 
ATOM     23  C   UNL     1       2.793   8.398  17.577  0.00  0.00    +0.000 A 
ATOM     24  C   UNL     1       3.792   7.420  17.482  0.00  0.00    +0.000 A 
ATOM     25  C   UNL     1       3.862   6.355  18.392  0.00  0.00    +0.000 A 
ATOM     26  C   UNL     1       2.895   6.258  19.401  0.00  0.00    +0.000 A 
ATOM     27  C   UNL     1       2.777   5.133  20.390  0.00  0.00    +0.000 C 
ATOM     28  C   UNL     1       1.899   7.260  19.483  0.00  0.00    +0.000 A 
BRANCH  25  29
ATOM     29  O   UNL     1       4.761   5.390  18.047  0.00  0.00    +0.000 OA
BRANCH  29  30
ATOM     30  C   UNL     1       6.106   5.489  18.488  0.00  0.00    +0.000 C 
ATOM     31  F   UNL     1       6.765   6.570  18.024  0.00  0.00    +0.000 F 
ATOM     32  F   UNL     1       6.109   5.528  19.840  0.00  0.00    +0.000 F 
ATOM     33  F   UNL     1       6.786   4.385  18.104  0.00  0.00    +0.000 F 
ENDBRANCH  29  30
ENDBRANCH  25  29
ENDBRANCH   3  22
TORSDOF 6
ENDMDL
MODEL 7
REMARK VINA RESULT:      -7.6      1.614      2.054
REMARK  Name = 
REMARK  9 active torsions:
REMARK  status: ('A' for Active; 'I' for Inactive)
REMARK    1  A    between atoms: C_1  and  C_2
REMARK    2  A    between atoms: C_4  and  C_5
REMARK    3  A    between atoms: C_7  and  C_8
REMARK    4  A    between atoms: C_11  and  O_12
REMARK    5  A    between atoms: O_12  and  C_13
REMARK    6  A    between atoms: C_17  and  C_18
REMARK    7  A    between atoms: C_25  and  C_26
REMARK    8  A    between atoms: CA_29  and  C_30
REMARK    9  A    between atoms: C_30  and  O_31
REMARK                            x       y       z     vdW  Elec       q    Type
REMARK                         _______ _______ _______ _____ _____    ______ ____
ROOT
ATOM      1  C   UNL     1       3.918   6.146  18.609  0.00  0.00    +0.000 A 
ATOM      2  N   UNL     1       3.227   7.316  18.795  0.00  0.00    +0.000 NA
ATOM      3  C   UNL     1       2.219   7.051  19.610  0.00  0.00    +0.000 A 
ATOM      4  N   UNL     1       2.207   5.691  19.890  0.00  0.00    +0.000 N 
ATOM      5  C   UNL     1       3.349   5.129  19.353  0.00  0.00    +0.000 A 
ATOM      6  C   UNL     1       3.788   3.707  19.546  0.00  0.00    +0.000 C 
ATOM      7  C   UNL     1       3.223   3.027  20.780  0.00  0.00    +0.000 C 
ATOM      8  O   UNL     1       1.883   2.576  20.611  0.00  0.00    +0.000 OA
ATOM      9  C   UNL     1       0.911   3.525  20.163  0.00  0.00    +0.000 C 
ATOM     10  C   UNL     1       0.631   3.349  18.668  0.00  0.00    +0.000 C 
ATOM     11  C   UNL     1       1.153   4.978  20.592  0.00  0.00    +0.000 C 
ENDROOT
BRANCH   1  15
ATOM     12  C   UNL     1       8.375   7.868  17.201  0.00  0.00    +0.000 C 
ATOM     13  C   UNL     1       7.264   6.864  17.086  0.00  0.00    +0.000 A 
ATOM     14  C   UNL     1       6.200   6.907  17.970  0.00  0.00    +0.000 A 
ATOM     15  C   UNL     1       5.116   6.048  17.785  0.00  0.00    +0.000 A 
ATOM     16  C   UNL     1       5.183   5.105  16.763  0.00  0.00    +0.000 A 
ATOM     17  CA  UNL     1       6.302   5.089  15.938  0.00  0.00    +0.000 A 
ATOM     18  N   UNL     1       7.334   5.970  16.072  0.00  0.00    +0.000 NA
BRANCH  17  19
ATOM     19  C   UNL     1       6.380   4.104  14.794  0.00  0.00    +0.000 C 
BRANCH  19  20
ATOM     20  O   UNL     1       7.005   4.686  13.651  0.00  0.00    +0.000 OA
ATOM     21  H   UNL     1       7.949   4.764  13.898  0.00  0.00    +0.000 HD
ENDBRANCH  19  20
ENDBRANCH  17  19
ENDBRANCH   1  15
BRANCH   3  22
ATOM     22  C   UNL     1       1.278   8.068  20.114  0.00  0.00    +0.000 A 
ATOM     23  C   UNL     1       0.685   8.967  19.226  0.00  0.00    +0.000 A 
ATOM     24  C   UNL     1      -0.146   9.992  19.696  0.00  0.00    +0.000 A 
ATOM     25  C   UNL     1      -0.410  10.149  21.065  0.00  0.00    +0.000 A 
ATOM     26  C   UNL     1       0.191   9.273  21.977  0.00  0.00    +0.000 A 
ATOM     27  C   UNL     1       0.085   9.365  23.474  0.00  0.00    +0.000 C 
ATOM     28  C   UNL     1       1.021   8.241  21.481  0.00  0.00    +0.000 A 
BRANCH  25  29
ATOM     29  O   UNL     1      -1.068  11.302  21.374  0.00  0.00    +0.000 OA
BRANCH  29  30
ATOM     30  C   UNL     1      -0.346  12.519  21.484  0.00  0.00    +0.000 C 
ATOM     31  F   UNL     1       0.987  12.392  21.315  0.00  0.00    +0.000 F 
ATOM     32  F   UNL     1      -0.819  13.380  20.553  0.00  0.00    +0.000 F 
ATOM     33  F   UNL     1      -0.566  13.063  22.701  0.00  0.00    +0.000 F 
ENDBRANCH  29  30
ENDBRANCH  25  29
ENDBRANCH   3  22
TORSDOF 6
ENDMDL
MODEL 8
REMARK VINA RESULT:      -7.6      0.701      1.497
REMARK  Name = 
REMARK  9 active torsions:
REMARK  status: ('A' for Active; 'I' for Inactive)
REMARK    1  A    between atoms: C_1  and  C_2
REMARK    2  A    between atoms: C_4  and  C_5
REMARK    3  A    between atoms: C_7  and  C_8
REMARK    4  A    between atoms: C_11  and  O_12
REMARK    5  A    between atoms: O_12  and  C_13
REMARK    6  A    between atoms: C_17  and  C_18
REMARK    7  A    between atoms: C_25  and  C_26
REMARK    8  A    between atoms: CA_29  and  C_30
REMARK    9  A    between atoms: C_30  and  O_31
REMARK                            x       y       z     vdW  Elec       q    Type
REMARK                         _______ _______ _______ _____ _____    ______ ____
ROOT
ATOM      1  C   UNL     1       4.109   5.539  18.844  0.00  0.00    +0.000 A 
ATOM      2  N   UNL     1       3.555   6.792  18.919  0.00  0.00    +0.000 NA
ATOM      3  C   UNL     1       2.462   6.694  19.657  0.00  0.00    +0.000 A 
ATOM      4  N   UNL     1       2.259   5.363  19.995  0.00  0.00    +0.000 N 
ATOM      5  C   UNL     1       3.362   4.640  19.582  0.00  0.00    +0.000 A 
ATOM      6  C   UNL     1       3.605   3.188  19.874  0.00  0.00    +0.000 C 
ATOM      7  C   UNL     1       2.865   2.648  21.085  0.00  0.00    +0.000 C 
ATOM      8  O   UNL     1       1.497   2.352  20.823  0.00  0.00    +0.000 OA
ATOM      9  C   UNL     1       0.688   3.386  20.254  0.00  0.00    +0.000 C 
ATOM     10  C   UNL     1       0.506   3.164  18.750  0.00  0.00    +0.000 C 
ATOM     11  C   UNL     1       1.073   4.821  20.637  0.00  0.00    +0.000 C 
ENDROOT
BRANCH   1  15
ATOM     12  C   UNL     1       6.527   4.298  14.670  0.00  0.00    +0.000 C 
ATOM     13  C   UNL     1       6.532   4.651  16.130  0.00  0.00    +0.000 A 
ATOM     14  C   UNL     1       5.359   5.043  16.750  0.00  0.00    +0.000 A 
ATOM     15  C   UNL     1       5.346   5.254  18.129  0.00  0.00    +0.000 A 
ATOM     16  C   UNL     1       6.545   5.153  18.828  0.00  0.00    +0.000 A 
ATOM     17  CA  UNL     1       7.697   4.797  18.133  0.00  0.00    +0.000 A 
ATOM     18  N   UNL     1       7.703   4.524  16.798  0.00  0.00    +0.000 NA
BRANCH  17  19
ATOM     19  C   UNL     1       9.004   4.638  18.876  0.00  0.00    +0.000 C 
BRANCH  19  20
ATOM     20  O   UNL     1       8.890   5.082  20.227  0.00  0.00    +0.000 OA
ATOM     21  H   UNL     1       9.236   4.338  20.762  0.00  0.00    +0.000 HD
ENDBRANCH  19  20
ENDBRANCH  17  19
ENDBRANCH   1  15
BRANCH   3  22
ATOM     22  C   UNL     1       1.618   7.843  20.035  0.00  0.00    +0.000 A 
ATOM     23  C   UNL     1       1.044   7.895  21.306  0.00  0.00    +0.000 A 
ATOM     24  C   UNL     1       0.172   8.935  21.654  0.00  0.00    +0.000 A 
ATOM     25  C   UNL     1      -0.150   9.953  20.744  0.00  0.00    +0.000 A 
ATOM     26  C   UNL     1       0.396   9.911  19.455  0.00  0.00    +0.000 A 
ATOM     27  C   UNL     1       0.077  10.869  18.341  0.00  0.00    +0.000 C 
ATOM     28  C   UNL     1       1.278   8.855  19.127  0.00  0.00    +0.000 A 
BRANCH  25  29
ATOM     29  O   UNL     1      -1.156  10.772  21.162  0.00  0.00    +0.000 OA
BRANCH  29  30
ATOM     30  C   UNL     1      -0.859  11.898  21.974  0.00  0.00    +0.000 C 
ATOM     31  F   UNL     1      -0.913  11.657  23.300  0.00  0.00    +0.000 F 
ATOM     32  F   UNL     1       0.385  12.330  21.664  0.00  0.00    +0.000 F 
ATOM     33  F   UNL     1      -1.726  12.895  21.692  0.00  0.00    +0.000 F 
ENDBRANCH  29  30
ENDBRANCH  25  29
ENDBRANCH   3  22
TORSDOF 6
ENDMDL
MODEL 9
REMARK VINA RESULT:      -7.5      1.346      2.342
REMARK  Name = 
REMARK  9 active torsions:
REMARK  status: ('A' for Active; 'I' for Inactive)
REMARK    1  A    between atoms: C_1  and  C_2
REMARK    2  A    between atoms: C_4  and  C_5
REMARK    3  A    between atoms: C_7  and  C_8
REMARK    4  A    between atoms: C_11  and  O_12
REMARK    5  A    between atoms: O_12  and  C_13
REMARK    6  A    between atoms: C_17  and  C_18
REMARK    7  A    between atoms: C_25  and  C_26
REMARK    8  A    between atoms: CA_29  and  C_30
REMARK    9  A    between atoms: C_30  and  O_31
REMARK                            x       y       z     vdW  Elec       q    Type
REMARK                         _______ _______ _______ _____ _____    ______ ____
ROOT
ATOM      1  C   UNL     1       4.155   5.375  18.754  0.00  0.00    +0.000 A 
ATOM      2  N   UNL     1       3.630   6.641  18.809  0.00  0.00    +0.000 NA
ATOM      3  C   UNL     1       2.553   6.586  19.574  0.00  0.00    +0.000 A 
ATOM      4  N   UNL     1       2.330   5.269  19.953  0.00  0.00    +0.000 N 
ATOM      5  C   UNL     1       3.407   4.512  19.534  0.00  0.00    +0.000 A 
ATOM      6  C   UNL     1       3.627   3.064  19.860  0.00  0.00    +0.000 C 
ATOM      7  C   UNL     1       2.905   2.573  21.102  0.00  0.00    +0.000 C 
ATOM      8  O   UNL     1       1.525   2.299  20.881  0.00  0.00    +0.000 OA
ATOM      9  C   UNL     1       0.724   3.334  20.302  0.00  0.00    +0.000 C 
ATOM     10  C   UNL     1       0.503   3.076  18.810  0.00  0.00    +0.000 C 
ATOM     11  C   UNL     1       1.149   4.770  20.637  0.00  0.00    +0.000 C 
ENDROOT
BRANCH   1  15
ATOM     12  C   UNL     1       9.039   4.404  18.644  0.00  0.00    +0.000 C 
ATOM     13  C   UNL     1       7.724   4.579  17.942  0.00  0.00    +0.000 A 
ATOM     14  C   UNL     1       6.566   4.763  18.678  0.00  0.00    +0.000 A 
ATOM     15  C   UNL     1       5.369   5.044  18.019  0.00  0.00    +0.000 A 
ATOM     16  C   UNL     1       5.359   5.037  16.627  0.00  0.00    +0.000 A 
ATOM     17  CA  UNL     1       6.550   4.800  15.950  0.00  0.00    +0.000 A 
ATOM     18  N   UNL     1       7.737   4.593  16.588  0.00  0.00    +0.000 NA
BRANCH  17  19
ATOM     19  C   UNL     1       6.575   4.831  14.439  0.00  0.00    +0.000 C 
BRANCH  19  20
ATOM     20  O   UNL     1       7.697   5.567  13.953  0.00  0.00    +0.000 OA
ATOM     21  H   UNL     1       7.497   5.729  13.008  0.00  0.00    +0.000 HD
ENDBRANCH  19  20
ENDBRANCH  17  19
ENDBRANCH   1  15
BRANCH   3  22
ATOM     22  C   UNL     1       1.742   7.763  19.939  0.00  0.00    +0.000 A 
ATOM     23  C   UNL     1       1.211   7.868  21.226  0.00  0.00    +0.000 A 
ATOM     24  C   UNL     1       0.370   8.935  21.566  0.00  0.00    +0.000 A 
ATOM     25  C   UNL     1       0.036   9.929  20.633  0.00  0.00    +0.000 A 
ATOM     26  C   UNL     1       0.539   9.833  19.330  0.00  0.00    +0.000 A 
ATOM     27  C   UNL     1       0.201  10.760  18.195  0.00  0.00    +0.000 C 
ATOM     28  C   UNL     1       1.391   8.751  19.010  0.00  0.00    +0.000 A 
BRANCH  25  29
ATOM     29  O   UNL     1      -0.941  10.780  21.056  0.00  0.00    +0.000 OA
BRANCH  29  30
ATOM     30  C   UNL     1      -0.591  11.973  21.739  0.00  0.00    +0.000 C 
ATOM     31  F   UNL     1       0.660  12.411  21.489  0.00  0.00    +0.000 F 
ATOM     32  F   UNL     1      -1.467  12.941  21.382  0.00  0.00    +0.000 F 
ATOM     33  F   UNL     1      -0.710  11.779  23.071  0.00  0.00    +0.000 F 
ENDBRANCH  29  30
ENDBRANCH  25  29
ENDBRANCH   3  22
TORSDOF 6
ENDMDL
