MODEL 1
REMARK VINA RESULT:      -8.1      0.000      0.000
REMARK  Name = 
REMARK  7 active torsions:
REMARK  status: ('A' for Active; 'I' for Inactive)
REMARK    1  A    between atoms: C_1  and  S_2
REMARK    2  A    between atoms: S_2  and  N_5
REMARK    3  A    between atoms: C_11  and  O_12
REMARK    4  A    between atoms: O_12  and  C_13
REMARK    5  A    between atoms: C_13  and  C_14
REMARK    6  A    between atoms: C_14  and  C_15
REMARK    7  A    between atoms: C_15  and  N_16
REMARK                            x       y       z     vdW  Elec       q    Type
REMARK                         _______ _______ _______ _____ _____    ______ ____
ROOT
ATOM      1  N   UNL     1       2.843   2.451  18.961  0.00  0.00    +0.000 NA
ATOM      2  C   UNL     1       3.201   2.567  17.532  0.00  0.00    +0.000 C 
ATOM      3  C   UNL     1       3.235   3.995  17.011  0.00  0.00    +0.000 C 
ATOM      4  C   UNL     1       4.450   4.793  17.420  0.00  0.00    +0.000 A 
ATOM      5  C   UNL     1       5.040   5.573  16.406  0.00  0.00    +0.000 A 
ATOM      6  C   UNL     1       6.164   6.357  16.648  0.00  0.00    +0.000 A 
ATOM      7  C   UNL     1       6.725   6.381  17.916  0.00  0.00    +0.000 A 
ATOM      8  C   UNL     1       6.125   5.648  18.942  0.00  0.00    +0.000 A 
ATOM      9  C   UNL     1       4.983   4.851  18.723  0.00  0.00    +0.000 A 
ATOM     10  C   UNL     1       4.360   4.209  19.947  0.00  0.00    +0.000 C 
ATOM     11  C   UNL     1       4.003   2.729  19.851  0.00  0.00    +0.000 C 
ENDROOT
BRANCH   1  13
ATOM     12  C   UNL     1       1.386   2.600  21.255  0.00  0.00    +0.000 C 
ATOM     13  S   UNL     1       1.331   2.985  19.521  0.00  0.00    +0.000 S 
ATOM     14  O   UNL     1       0.288   2.179  18.922  0.00  0.00    +0.000 OA
ATOM     15  O   UNL     1       1.305   4.425  19.382  0.00  0.00    +0.000 OA
ENDBRANCH   1  13
BRANCH   7  16
ATOM     16  O   UNL     1       7.840   7.079  18.285  0.00  0.00    +0.000 OA
BRANCH  16  17
ATOM     17  C   UNL     1       8.008   8.354  17.666  0.00  0.00    +0.000 C 
BRANCH  17  18
ATOM     18  C   UNL     1       8.691   9.271  18.672  0.00  0.00    +0.000 C 
BRANCH  18  19
ATOM     19  C   UNL     1       8.908  10.677  18.109  0.00  0.00    +0.000 C 
BRANCH  19  20
ATOM     20  N   UNL     1      10.291  11.167  18.255  0.00  0.00    +0.000 NA
ATOM     21  C   UNL     1      10.514  12.400  17.481  0.00  0.00    +0.000 C 
ATOM     22  C   UNL     1      11.952  12.896  17.608  0.00  0.00    +0.000 C 
ATOM     23  C   UNL     1      12.333  13.109  19.065  0.00  0.00    +0.000 C 
ATOM     24  C   UNL     1      12.053  11.846  19.870  0.00  0.00    +0.000 C 
ATOM     25  C   UNL     1      10.610  11.372  19.678  0.00  0.00    +0.000 C 
ENDBRANCH  19  20
ENDBRANCH  18  19
ENDBRANCH  17  18
ENDBRANCH  16  17
ENDBRANCH   7  16
TORSDOF 6
ENDMDL
MODEL 2
REMARK VINA RESULT:      -8.0      5.875      8.886
REMARK  Name = 
REMARK  7 active torsions:
REMARK  status: ('A' for Active; 'I' for Inactive)
REMARK    1  A    between atoms: C_1  and  S_2
REMARK    2  A    between atoms: S_2  and  N_5
REMARK    3  A    between atoms: C_11  and  O_12
REMARK    4  A    between atoms: O_12  and  C_13
REMARK    5  A    between atoms: C_13  and  C_14
REMARK    6  A    between atoms: C_14  and  C_15
REMARK    7  A    between atoms: C_15  and  N_16
REMARK                            x       y       z     vdW  Elec       q    Type
REMARK                         _______ _______ _______ _____ _____    ______ ____
ROOT
ATOM      1  N   UNL     1      -0.733   9.888  21.006  0.00  0.00    +0.000 NA
ATOM      2  C   UNL     1      -0.772   9.985  19.532  0.00  0.00    +0.000 C 
ATOM      3  C   UNL     1       0.581  10.245  18.888  0.00  0.00    +0.000 C 
ATOM      4  C   UNL     1       1.496   9.045  18.823  0.00  0.00    +0.000 A 
ATOM      5  C   UNL     1       2.180   8.863  17.606  0.00  0.00    +0.000 A 
ATOM      6  C   UNL     1       3.055   7.799  17.412  0.00  0.00    +0.000 A 
ATOM      7  C   UNL     1       3.269   6.890  18.438  0.00  0.00    +0.000 A 
ATOM      8  C   UNL     1       2.632   7.083  19.665  0.00  0.00    +0.000 A 
ATOM      9  C   UNL     1       1.746   8.157  19.887  0.00  0.00    +0.000 A 
ATOM     10  C   UNL     1       1.223   8.322  21.301  0.00  0.00    +0.000 C 
ATOM     11  C   UNL     1      -0.278   8.548  21.465  0.00  0.00    +0.000 C 
ENDROOT
BRANCH   1  13
ATOM     12  C   UNL     1      -1.459  12.442  21.606  0.00  0.00    +0.000 C 
ATOM     13  S   UNL     1      -0.227  11.208  21.949  0.00  0.00    +0.000 S 
ATOM     14  O   UNL     1       1.040  11.696  21.445  0.00  0.00    +0.000 OA
ATOM     15  O   UNL     1      -0.356  10.820  23.336  0.00  0.00    +0.000 OA
ENDBRANCH   1  13
BRANCH   7  16
ATOM     16  O   UNL     1       4.074   5.788  18.376  0.00  0.00    +0.000 OA
BRANCH  16  17
ATOM     17  C   UNL     1       4.360   5.300  17.066  0.00  0.00    +0.000 C 
BRANCH  17  18
ATOM     18  C   UNL     1       3.836   3.873  16.978  0.00  0.00    +0.000 C 
BRANCH  18  19
ATOM     19  C   UNL     1       4.254   3.034  18.187  0.00  0.00    +0.000 C 
BRANCH  19  20
ATOM     20  N   UNL     1       3.132   2.653  19.063  0.00  0.00    +0.000 NA
ATOM     21  C   UNL     1       3.422   2.948  20.476  0.00  0.00    +0.000 C 
ATOM     22  C   UNL     1       2.272   2.529  21.389  0.00  0.00    +0.000 C 
ATOM     23  C   UNL     1       0.968   3.190  20.968  0.00  0.00    +0.000 C 
ATOM     24  C   UNL     1       0.699   2.922  19.491  0.00  0.00    +0.000 C 
ATOM     25  C   UNL     1       1.896   3.325  18.626  0.00  0.00    +0.000 C 
ENDBRANCH  19  20
ENDBRANCH  18  19
ENDBRANCH  17  18
ENDBRANCH  16  17
ENDBRANCH   7  16
TORSDOF 6
ENDMDL
MODEL 3
REMARK VINA RESULT:      -7.8      0.962      1.472
REMARK  Name = 
REMARK  7 active torsions:
REMARK  status: ('A' for Active; 'I' for Inactive)
REMARK    1  A    between atoms: C_1  and  S_2
REMARK    2  A    between atoms: S_2  and  N_5
REMARK    3  A    between atoms: C_11  and  O_12
REMARK    4  A    between atoms: O_12  and  C_13
REMARK    5  A    between atoms: C_13  and  C_14
REMARK    6  A    between atoms: C_14  and  C_15
REMARK    7  A    between atoms: C_15  and  N_16
REMARK                            x       y       z     vdW  Elec       q    Type
REMARK                         _______ _______ _______ _____ _____    ______ ____
ROOT
ATOM      1  N   UNL     1       2.940   2.398  19.090  0.00  0.00    +0.000 NA
ATOM      2  C   UNL     1       3.329   2.337  17.666  0.00  0.00    +0.000 C 
ATOM      3  C   UNL     1       3.360   3.688  16.969  0.00  0.00    +0.000 C 
ATOM      4  C   UNL     1       4.559   4.545  17.299  0.00  0.00    +0.000 A 
ATOM      5  C   UNL     1       5.164   5.198  16.207  0.00  0.00    +0.000 A 
ATOM      6  C   UNL     1       6.274   6.019  16.371  0.00  0.00    +0.000 A 
ATOM      7  C   UNL     1       6.807   6.210  17.637  0.00  0.00    +0.000 A 
ATOM      8  C   UNL     1       6.192   5.605  18.734  0.00  0.00    +0.000 A 
ATOM      9  C   UNL     1       5.062   4.774  18.595  0.00  0.00    +0.000 A 
ATOM     10  C   UNL     1       4.418   4.284  19.877  0.00  0.00    +0.000 C 
ATOM     11  C   UNL     1       4.077   2.799  19.961  0.00  0.00    +0.000 C 
ENDROOT
BRANCH   1  13
ATOM     12  C   UNL     1       1.361   2.653  21.293  0.00  0.00    +0.000 C 
ATOM     13  S   UNL     1       1.411   2.980  19.547  0.00  0.00    +0.000 S 
ATOM     14  O   UNL     1       0.385   2.175  18.917  0.00  0.00    +0.000 OA
ATOM     15  O   UNL     1       1.424   4.415  19.360  0.00  0.00    +0.000 OA
ENDBRANCH   1  13
BRANCH   7  16
ATOM     16  O   UNL     1       7.907   6.962  17.937  0.00  0.00    +0.000 OA
BRANCH  16  17
ATOM     17  C   UNL     1       7.810   8.354  17.636  0.00  0.00    +0.000 C 
BRANCH  17  18
ATOM     18  C   UNL     1       8.658   9.108  18.651  0.00  0.00    +0.000 C 
BRANCH  18  19
ATOM     19  C   UNL     1       9.201  10.420  18.082  0.00  0.00    +0.000 C 
BRANCH  19  20
ATOM     20  N   UNL     1       9.193  11.534  19.047  0.00  0.00    +0.000 NA
ATOM     21  C   UNL     1       9.410  11.062  20.424  0.00  0.00    +0.000 C 
ATOM     22  C   UNL     1       9.375  12.210  21.430  0.00  0.00    +0.000 C 
ATOM     23  C   UNL     1      10.392  13.283  21.073  0.00  0.00    +0.000 C 
ATOM     24  C   UNL     1      10.194  13.733  19.630  0.00  0.00    +0.000 C 
ATOM     25  C   UNL     1      10.201  12.541  18.670  0.00  0.00    +0.000 C 
ENDBRANCH  19  20
ENDBRANCH  18  19
ENDBRANCH  17  18
ENDBRANCH  16  17
ENDBRANCH   7  16
TORSDOF 6
ENDMDL
MODEL 4
REMARK VINA RESULT:      -7.7      1.325      1.683
REMARK  Name = 
REMARK  7 active torsions:
REMARK  status: ('A' for Active; 'I' for Inactive)
REMARK    1  A    between atoms: C_1  and  S_2
REMARK    2  A    between atoms: S_2  and  N_5
REMARK    3  A    between atoms: C_11  and  O_12
REMARK    4  A    between atoms: O_12  and  C_13
REMARK    5  A    between atoms: C_13  and  C_14
REMARK    6  A    between atoms: C_14  and  C_15
REMARK    7  A    between atoms: C_15  and  N_16
REMARK                            x       y       z     vdW  Elec       q    Type
REMARK                         _______ _______ _______ _____ _____    ______ ____
ROOT
ATOM      1  N   UNL     1       2.892   3.463  19.532  0.00  0.00    +0.000 NA
ATOM      2  C   UNL     1       3.893   2.665  18.794  0.00  0.00    +0.000 C 
ATOM      3  C   UNL     1       4.165   3.157  17.382  0.00  0.00    +0.000 C 
ATOM      4  C   UNL     1       5.029   4.393  17.294  0.00  0.00    +0.000 A 
ATOM      5  C   UNL     1       6.030   4.372  16.304  0.00  0.00    +0.000 A 
ATOM      6  C   UNL     1       6.894   5.445  16.115  0.00  0.00    +0.000 A 
ATOM      7  C   UNL     1       6.774   6.572  16.914  0.00  0.00    +0.000 A 
ATOM      8  C   UNL     1       5.759   6.626  17.871  0.00  0.00    +0.000 A 
ATOM      9  C   UNL     1       4.868   5.553  18.077  0.00  0.00    +0.000 A 
ATOM     10  C   UNL     1       3.735   5.792  19.057  0.00  0.00    +0.000 C 
ATOM     11  C   UNL     1       3.477   4.707  20.098  0.00  0.00    +0.000 C 
ENDROOT
BRANCH   1  13
ATOM     12  C   UNL     1       0.789   1.885  18.823  0.00  0.00    +0.000 C 
ATOM     13  S   UNL     1       1.293   3.583  18.968  0.00  0.00    +0.000 S 
ATOM     14  O   UNL     1       1.299   4.157  17.638  0.00  0.00    +0.000 OA
ATOM     15  O   UNL     1       0.511   4.195  20.019  0.00  0.00    +0.000 OA
ENDBRANCH   1  13
BRANCH   7  16
ATOM     16  O   UNL     1       7.570   7.682  16.858  0.00  0.00    +0.000 OA
BRANCH  16  17
ATOM     17  C   UNL     1       8.230   8.036  18.072  0.00  0.00    +0.000 C 
BRANCH  17  18
ATOM     18  C   UNL     1       8.390   9.550  18.088  0.00  0.00    +0.000 C 
BRANCH  18  19
ATOM     19  C   UNL     1       9.187  10.029  19.303  0.00  0.00    +0.000 C 
BRANCH  19  20
ATOM     20  N   UNL     1       9.675  11.415  19.185  0.00  0.00    +0.000 NA
ATOM     21  C   UNL     1       9.466  12.172  20.430  0.00  0.00    +0.000 C 
ATOM     22  C   UNL     1       9.945  13.616  20.302  0.00  0.00    +0.000 C 
ATOM     23  C   UNL     1      11.407  13.675  19.885  0.00  0.00    +0.000 C 
ATOM     24  C   UNL     1      11.625  12.848  18.624  0.00  0.00    +0.000 C 
ATOM     25  C   UNL     1      11.095  11.423  18.794  0.00  0.00    +0.000 C 
ENDBRANCH  19  20
ENDBRANCH  18  19
ENDBRANCH  17  18
ENDBRANCH  16  17
ENDBRANCH   7  16
TORSDOF 6
ENDMDL
MODEL 5
REMARK VINA RESULT:      -7.7      1.844      2.489
REMARK  Name = 
REMARK  7 active torsions:
REMARK  status: ('A' for Active; 'I' for Inactive)
REMARK    1  A    between atoms: C_1  and  S_2
REMARK    2  A    between atoms: S_2  and  N_5
REMARK    3  A    between atoms: C_11  and  O_12
REMARK    4  A    between atoms: O_12  and  C_13
REMARK    5  A    between atoms: C_13  and  C_14
REMARK    6  A    between atoms: C_14  and  C_15
REMARK    7  A    between atoms: C_15  and  N_16
REMARK                            x       y       z     vdW  Elec       q    Type
REMARK                         _______ _______ _______ _____ _____    ______ ____
ROOT
ATOM      1  N   UNL     1       2.400   4.849  18.989  0.00  0.00    +0.000 NA
ATOM      2  C   UNL     1       3.443   4.588  20.003  0.00  0.00    +0.000 C 
ATOM      3  C   UNL     1       4.773   4.129  19.427  0.00  0.00    +0.000 C 
ATOM      4  C   UNL     1       5.604   5.222  18.798  0.00  0.00    +0.000 A 
ATOM      5  C   UNL     1       6.979   5.199  19.105  0.00  0.00    +0.000 A 
ATOM      6  C   UNL     1       7.858   6.147  18.591  0.00  0.00    +0.000 A 
ATOM      7  C   UNL     1       7.381   7.143  17.752  0.00  0.00    +0.000 A 
ATOM      8  C   UNL     1       6.029   7.152  17.403  0.00  0.00    +0.000 A 
ATOM      9  C   UNL     1       5.120   6.199  17.906  0.00  0.00    +0.000 A 
ATOM     10  C   UNL     1       3.711   6.246  17.348  0.00  0.00    +0.000 C 
ATOM     11  C   UNL     1       2.563   6.183  18.352  0.00  0.00    +0.000 C 
ENDROOT
BRANCH   1  13
ATOM     12  C   UNL     1       0.971   2.534  19.090  0.00  0.00    +0.000 C 
ATOM     13  S   UNL     1       1.848   3.603  17.974  0.00  0.00    +0.000 S 
ATOM     14  O   UNL     1       2.985   2.868  17.458  0.00  0.00    +0.000 OA
ATOM     15  O   UNL     1       0.887   4.186  17.063  0.00  0.00    +0.000 OA
ENDBRANCH   1  13
BRANCH   7  16
ATOM     16  O   UNL     1       8.123   8.150  17.202  0.00  0.00    +0.000 OA
BRANCH  16  17
ATOM     17  C   UNL     1       7.884   9.455  17.725  0.00  0.00    +0.000 C 
BRANCH  17  18
ATOM     18  C   UNL     1       8.941   9.731  18.786  0.00  0.00    +0.000 C 
BRANCH  18  19
ATOM     19  C   UNL     1       9.865  10.884  18.388  0.00  0.00    +0.000 C 
BRANCH  19  20
ATOM     20  N   UNL     1      10.115  11.846  19.476  0.00  0.00    +0.000 NA
ATOM     21  C   UNL     1       9.900  13.234  19.033  0.00  0.00    +0.000 C 
ATOM     22  C   UNL     1      10.184  14.235  20.150  0.00  0.00    +0.000 C 
ATOM     23  C   UNL     1       9.344  13.937  21.383  0.00  0.00    +0.000 C 
ATOM     24  C   UNL     1       9.534  12.485  21.806  0.00  0.00    +0.000 C 
ATOM     25  C   UNL     1       9.272  11.527  20.641  0.00  0.00    +0.000 C 
ENDBRANCH  19  20
ENDBRANCH  18  19
ENDBRANCH  17  18
ENDBRANCH  16  17
ENDBRANCH   7  16
TORSDOF 6
ENDMDL
MODEL 6
REMARK VINA RESULT:      -7.6      5.542      7.754
REMARK  Name = 
REMARK  7 active torsions:
REMARK  status: ('A' for Active; 'I' for Inactive)
REMARK    1  A    between atoms: C_1  and  S_2
REMARK    2  A    between atoms: S_2  and  N_5
REMARK    3  A    between atoms: C_11  and  O_12
REMARK    4  A    between atoms: O_12  and  C_13
REMARK    5  A    between atoms: C_13  and  C_14
REMARK    6  A    between atoms: C_14  and  C_15
REMARK    7  A    between atoms: C_15  and  N_16
REMARK                            x       y       z     vdW  Elec       q    Type
REMARK                         _______ _______ _______ _____ _____    ______ ____
ROOT
ATOM      1  N   UNL     1      -0.530  11.180  19.975  0.00  0.00    +0.000 NA
ATOM      2  C   UNL     1      -0.336  10.736  18.579  0.00  0.00    +0.000 C 
ATOM      3  C   UNL     1       1.103  10.393  18.227  0.00  0.00    +0.000 C 
ATOM      4  C   UNL     1       1.587   9.065  18.757  0.00  0.00    +0.000 A 
ATOM      5  C   UNL     1       2.335   8.282  17.856  0.00  0.00    +0.000 A 
ATOM      6  C   UNL     1       2.843   7.038  18.216  0.00  0.00    +0.000 A 
ATOM      7  C   UNL     1       2.617   6.547  19.494  0.00  0.00    +0.000 A 
ATOM      8  C   UNL     1       1.915   7.331  20.411  0.00  0.00    +0.000 A 
ATOM      9  C   UNL     1       1.396   8.597  20.072  0.00  0.00    +0.000 A 
ATOM     10  C   UNL     1       0.767   9.395  21.197  0.00  0.00    +0.000 C 
ATOM     11  C   UNL     1      -0.591  10.035  20.921  0.00  0.00    +0.000 C 
ENDROOT
BRANCH   1  13
ATOM     12  C   UNL     1      -0.501  13.874  19.584  0.00  0.00    +0.000 C 
ATOM     13  S   UNL     1       0.238  12.582  20.553  0.00  0.00    +0.000 S 
ATOM     14  O   UNL     1       1.646  12.527  20.216  0.00  0.00    +0.000 OA
ATOM     15  O   UNL     1      -0.172  12.761  21.928  0.00  0.00    +0.000 OA
ENDBRANCH   1  13
BRANCH   7  16
ATOM     16  O   UNL     1       3.029   5.335  19.969  0.00  0.00    +0.000 OA
BRANCH  16  17
ATOM     17  C   UNL     1       2.497   4.191  19.303  0.00  0.00    +0.000 C 
BRANCH  17  18
ATOM     18  C   UNL     1       3.602   3.602  18.438  0.00  0.00    +0.000 C 
BRANCH  18  19
ATOM     19  C   UNL     1       4.928   3.497  19.194  0.00  0.00    +0.000 C 
BRANCH  19  20
ATOM     20  N   UNL     1       6.043   4.202  18.539  0.00  0.00    +0.000 NA
ATOM     21  C   UNL     1       5.742   4.505  17.130  0.00  0.00    +0.000 C 
ATOM     22  C   UNL     1       6.907   5.211  16.440  0.00  0.00    +0.000 C 
ATOM     23  C   UNL     1       7.296   6.481  17.183  0.00  0.00    +0.000 C 
ATOM     24  C   UNL     1       7.558   6.169  18.651  0.00  0.00    +0.000 C 
ATOM     25  C   UNL     1       6.376   5.429  19.283  0.00  0.00    +0.000 C 
ENDBRANCH  19  20
ENDBRANCH  18  19
ENDBRANCH  17  18
ENDBRANCH  16  17
ENDBRANCH   7  16
TORSDOF 6
ENDMDL
MODEL 7
REMARK VINA RESULT:      -7.5      1.421      1.547
REMARK  Name = 
REMARK  7 active torsions:
REMARK  status: ('A' for Active; 'I' for Inactive)
REMARK    1  A    between atoms: C_1  and  S_2
REMARK    2  A    between atoms: S_2  and  N_5
REMARK    3  A    between atoms: C_11  and  O_12
REMARK    4  A    between atoms: O_12  and  C_13
REMARK    5  A    between atoms: C_13  and  C_14
REMARK    6  A    between atoms: C_14  and  C_15
REMARK    7  A    between atoms: C_15  and  N_16
REMARK                            x       y       z     vdW  Elec       q    Type
REMARK                         _______ _______ _______ _____ _____    ______ ____
ROOT
ATOM      1  N   UNL     1       3.011   3.145  19.405  0.00  0.00    +0.000 NA
ATOM      2  C   UNL     1       3.774   2.446  18.351  0.00  0.00    +0.000 C 
ATOM      3  C   UNL     1       3.960   3.253  17.076  0.00  0.00    +0.000 C 
ATOM      4  C   UNL     1       5.002   4.343  17.160  0.00  0.00    +0.000 A 
ATOM      5  C   UNL     1       5.864   4.452  16.052  0.00  0.00    +0.000 A 
ATOM      6  C   UNL     1       6.868   5.415  15.999  0.00  0.00    +0.000 A 
ATOM      7  C   UNL     1       7.030   6.297  17.057  0.00  0.00    +0.000 A 
ATOM      8  C   UNL     1       6.155   6.229  18.142  0.00  0.00    +0.000 A 
ATOM      9  C   UNL     1       5.127   5.267  18.216  0.00  0.00    +0.000 A 
ATOM     10  C   UNL     1       4.170   5.385  19.386  0.00  0.00    +0.000 C 
ATOM     11  C   UNL     1       3.856   4.108  20.160  0.00  0.00    +0.000 C 
ENDROOT
BRANCH   1  13
ATOM     12  C   UNL     1       0.572   2.077  18.839  0.00  0.00    +0.000 C 
ATOM     13  S   UNL     1       1.401   3.619  19.140  0.00  0.00    +0.000 S 
ATOM     14  O   UNL     1       1.329   4.404  17.924  0.00  0.00    +0.000 OA
ATOM     15  O   UNL     1       0.902   4.161  20.384  0.00  0.00    +0.000 OA
ENDBRANCH   1  13
BRANCH   7  16
ATOM     16  O   UNL     1       7.988   7.267  17.150  0.00  0.00    +0.000 OA
BRANCH  16  17
ATOM     17  C   UNL     1       7.530   8.554  17.560  0.00  0.00    +0.000 C 
BRANCH  17  18
ATOM     18  C   UNL     1       8.614   9.176  18.430  0.00  0.00    +0.000 C 
BRANCH  18  19
ATOM     19  C   UNL     1       9.098  10.516  17.873  0.00  0.00    +0.000 C 
BRANCH  19  20
ATOM     20  N   UNL     1       9.766  11.369  18.872  0.00  0.00    +0.000 NA
ATOM     21  C   UNL     1       9.539  12.798  18.606  0.00  0.00    +0.000 C 
ATOM     22  C   UNL     1      10.252  13.685  19.624  0.00  0.00    +0.000 C 
ATOM     23  C   UNL     1       9.832  13.338  21.044  0.00  0.00    +0.000 C 
ATOM     24  C   UNL     1      10.024  11.847  21.297  0.00  0.00    +0.000 C 
ATOM     25  C   UNL     1       9.320  11.007  20.229  0.00  0.00    +0.000 C 
ENDBRANCH  19  20
ENDBRANCH  18  19
ENDBRANCH  17  18
ENDBRANCH  16  17
ENDBRANCH   7  16
TORSDOF 6
ENDMDL
MODEL 8
REMARK VINA RESULT:      -7.5      1.051      1.404
REMARK  Name = 
REMARK  7 active torsions:
REMARK  status: ('A' for Active; 'I' for Inactive)
REMARK    1  A    between atoms: C_1  and  S_2
REMARK    2  A    between atoms: S_2  and  N_5
REMARK    3  A    between atoms: C_11  and  O_12
REMARK    4  A    between atoms: O_12  and  C_13
REMARK    5  A    between atoms: C_13  and  C_14
REMARK    6  A    between atoms: C_14  and  C_15
REMARK    7  A    between atoms: C_15  and  N_16
REMARK                            x       y       z     vdW  Elec       q    Type
REMARK                         _______ _______ _______ _____ _____    ______ ____
ROOT
ATOM      1  N   UNL     1       2.925   2.835  19.162  0.00  0.00    +0.000 NA
ATOM      2  C   UNL     1       3.653   2.191  18.049  0.00  0.00    +0.000 C 
ATOM      3  C   UNL     1       3.772   3.051  16.801  0.00  0.00    +0.000 C 
ATOM      4  C   UNL     1       4.799   4.155  16.885  0.00  0.00    +0.000 A 
ATOM      5  C   UNL     1       5.611   4.324  15.747  0.00  0.00    +0.000 A 
ATOM      6  C   UNL     1       6.596   5.305  15.691  0.00  0.00    +0.000 A 
ATOM      7  C   UNL     1       6.789   6.148  16.776  0.00  0.00    +0.000 A 
ATOM      8  C   UNL     1       5.962   6.022  17.893  0.00  0.00    +0.000 A 
ATOM      9  C   UNL     1       4.954   5.039  17.971  0.00  0.00    +0.000 A 
ATOM     10  C   UNL     1       4.046   5.094  19.184  0.00  0.00    +0.000 C 
ATOM     11  C   UNL     1       3.786   3.782  19.919  0.00  0.00    +0.000 C 
ENDROOT
BRANCH   1  13
ATOM     12  C   UNL     1       1.366   4.543  17.726  0.00  0.00    +0.000 C 
ATOM     13  S   UNL     1       1.298   3.290  18.983  0.00  0.00    +0.000 S 
ATOM     14  O   UNL     1       0.840   3.916  20.207  0.00  0.00    +0.000 OA
ATOM     15  O   UNL     1       0.589   2.151  18.443  0.00  0.00    +0.000 OA
ENDBRANCH   1  13
BRANCH   7  16
ATOM     16  O   UNL     1       7.734   7.130  16.867  0.00  0.00    +0.000 OA
BRANCH  16  17
ATOM     17  C   UNL     1       7.605   8.014  17.980  0.00  0.00    +0.000 C 
BRANCH  17  18
ATOM     18  C   UNL     1       8.473   9.235  17.704  0.00  0.00    +0.000 C 
BRANCH  18  19
ATOM     19  C   UNL     1       8.933   9.914  18.995  0.00  0.00    +0.000 C 
BRANCH  19  20
ATOM     20  N   UNL     1      10.122  10.769  18.826  0.00  0.00    +0.000 NA
ATOM     21  C   UNL     1       9.912  11.792  17.788  0.00  0.00    +0.000 C 
ATOM     22  C   UNL     1      11.152  12.661  17.591  0.00  0.00    +0.000 C 
ATOM     23  C   UNL     1      11.578  13.313  18.898  0.00  0.00    +0.000 C 
ATOM     24  C   UNL     1      11.745  12.254  19.981  0.00  0.00    +0.000 C 
ATOM     25  C   UNL     1      10.490  11.388  20.111  0.00  0.00    +0.000 C 
ENDBRANCH  19  20
ENDBRANCH  18  19
ENDBRANCH  17  18
ENDBRANCH  16  17
ENDBRANCH   7  16
TORSDOF 6
ENDMDL
MODEL 9
REMARK VINA RESULT:      -7.5      5.859      9.079
REMARK  Name = 
REMARK  7 active torsions:
REMARK  status: ('A' for Active; 'I' for Inactive)
REMARK    1  A    between atoms: C_1  and  S_2
REMARK    2  A    between atoms: S_2  and  N_5
REMARK    3  A    between atoms: C_11  and  O_12
REMARK    4  A    between atoms: O_12  and  C_13
REMARK    5  A    between atoms: C_13  and  C_14
REMARK    6  A    between atoms: C_14  and  C_15
REMARK    7  A    between atoms: C_15  and  N_16
REMARK                            x       y       z     vdW  Elec       q    Type
REMARK                         _______ _______ _______ _____ _____    ______ ____
ROOT
ATOM      1  N   UNL     1       0.666  11.203  19.684  0.00  0.00    +0.000 NA
ATOM      2  C   UNL     1       1.043  10.427  20.883  0.00  0.00    +0.000 C 
ATOM      3  C   UNL     1       0.722   8.944  20.794  0.00  0.00    +0.000 C 
ATOM      4  C   UNL     1       1.665   8.140  19.931  0.00  0.00    +0.000 A 
ATOM      5  C   UNL     1       2.072   6.900  20.459  0.00  0.00    +0.000 A 
ATOM      6  C   UNL     1       2.938   6.059  19.767  0.00  0.00    +0.000 A 
ATOM      7  C   UNL     1       3.416   6.440  18.522  0.00  0.00    +0.000 A 
ATOM      8  C   UNL     1       2.987   7.646  17.966  0.00  0.00    +0.000 A 
ATOM      9  C   UNL     1       2.105   8.512  18.645  0.00  0.00    +0.000 A 
ATOM     10  C   UNL     1       1.620   9.725  17.876  0.00  0.00    +0.000 C 
ATOM     11  C   UNL     1       1.670  11.070  18.595  0.00  0.00    +0.000 C 
ENDROOT
BRANCH   1  13
ATOM     12  C   UNL     1      -0.953  12.677  18.066  0.00  0.00    +0.000 C 
ATOM     13  S   UNL     1      -0.957  11.301  19.190  0.00  0.00    +0.000 S 
ATOM     14  O   UNL     1      -1.781  11.660  20.326  0.00  0.00    +0.000 OA
ATOM     15  O   UNL     1      -1.249  10.103  18.433  0.00  0.00    +0.000 OA
ENDBRANCH   1  13
BRANCH   7  16
ATOM     16  O   UNL     1       4.291   5.730  17.749  0.00  0.00    +0.000 OA
BRANCH  16  17
ATOM     17  C   UNL     1       3.714   4.711  16.933  0.00  0.00    +0.000 C 
BRANCH  17  18
ATOM     18  C   UNL     1       4.152   3.365  17.494  0.00  0.00    +0.000 C 
BRANCH  18  19
ATOM     19  C   UNL     1       2.982   2.387  17.617  0.00  0.00    +0.000 C 
BRANCH  19  20
ATOM     20  N   UNL     1       2.487   2.225  18.996  0.00  0.00    +0.000 NA
ATOM     21  C   UNL     1       3.528   2.541  19.988  0.00  0.00    +0.000 C 
ATOM     22  C   UNL     1       3.026   2.347  21.417  0.00  0.00    +0.000 C 
ATOM     23  C   UNL     1       1.778   3.177  21.678  0.00  0.00    +0.000 C 
ATOM     24  C   UNL     1       0.723   2.882  20.618  0.00  0.00    +0.000 C 
ATOM     25  C   UNL     1       1.288   3.055  19.206  0.00  0.00    +0.000 C 
ENDBRANCH  19  20
ENDBRANCH  18  19
ENDBRANCH  17  18
ENDBRANCH  16  17
ENDBRANCH   7  16
TORSDOF 6
ENDMDL
