MODEL 1
REMARK VINA RESULT:      -9.1      0.000      0.000
REMARK  Name = 
REMARK  5 active torsions:
REMARK  status: ('A' for Active; 'I' for Inactive)
REMARK    1  A    between atoms: C_1  and  C_2
REMARK    2  A    between atoms: C_4  and  C_5
REMARK    3  A    between atoms: C_5  and  O_6
REMARK    4  A    between atoms: O_6  and  C_7
REMARK    5  A    between atoms: C_17  and  C_18
REMARK                            x       y       z     vdW  Elec       q    Type
REMARK                         _______ _______ _______ _____ _____    ______ ____
ROOT
ATOM      1  C   UNL     1       8.209   8.462  17.783  0.00  0.00    +0.000 C 
ATOM      2  C   UNL     1       7.517   7.153  17.555  0.00  0.00    +0.000 A 
ATOM      3  C   UNL     1       6.899   6.480  18.590  0.00  0.00    +0.000 A 
ATOM      4  C   UNL     1       6.309   5.269  18.282  0.00  0.00    +0.000 A 
ATOM      5  N   UNL     1       6.307   4.770  17.028  0.00  0.00    +0.000 NA
ATOM      6  C   UNL     1       6.917   5.494  16.068  0.00  0.00    +0.000 A 
ATOM      7  N   UNL     1       7.539   6.674  16.296  0.00  0.00    +0.000 NA
ENDROOT
BRANCH   6   8
ATOM      8  C   UNL     1       6.914   4.975  14.675  0.00  0.00    +0.000 A 
ATOM      9  C   UNL     1       6.039   3.960  14.271  0.00  0.00    +0.000 A 
ATOM     10  C   UNL     1       6.080   3.492  12.959  0.00  0.00    +0.000 A 
ATOM     11  C   UNL     1       6.993   4.041  12.070  0.00  0.00    +0.000 A 
ATOM     12  C   UNL     1       7.828   5.043  12.532  0.00  0.00    +0.000 A 
ATOM     13  N   UNL     1       7.808   5.516  13.795  0.00  0.00    +0.000 NA
ENDBRANCH   6   8
BRANCH   4  14
ATOM     14  C   UNL     1       5.651   4.440  19.362  0.00  0.00    +0.000 C 
BRANCH  14  15
ATOM     15  O   UNL     1       4.437   5.068  19.784  0.00  0.00    +0.000 OA
BRANCH  15  16
ATOM     16  C   UNL     1       3.270   4.402  19.508  0.00  0.00    +0.000 A 
ATOM     17  C   UNL     1       2.670   3.802  20.619  0.00  0.00    +0.000 A 
ATOM     18  C   UNL     1       1.496   3.066  20.465  0.00  0.00    +0.000 A 
ATOM     19  F   UNL     1       0.936   2.487  21.535  0.00  0.00    +0.000 F 
ATOM     20  C   UNL     1       0.912   2.926  19.211  0.00  0.00    +0.000 A 
ATOM     21  F   UNL     1      -0.209   2.208  19.064  0.00  0.00    +0.000 F 
ATOM     22  C   UNL     1       1.488   3.523  18.100  0.00  0.00    +0.000 A 
ATOM     23  C   UNL     1       2.660   4.260  18.254  0.00  0.00    +0.000 A 
ATOM     24  F   UNL     1       3.184   4.812  17.151  0.00  0.00    +0.000 F 
ENDBRANCH  15  16
ENDBRANCH  14  15
ENDBRANCH   4  14
TORSDOF 4
ENDMDL
MODEL 2
REMARK VINA RESULT:      -8.9      1.060      1.814
REMARK  Name = 
REMARK  5 active torsions:
REMARK  status: ('A' for Active; 'I' for Inactive)
REMARK    1  A    between atoms: C_1  and  C_2
REMARK    2  A    between atoms: C_4  and  C_5
REMARK    3  A    between atoms: C_5  and  O_6
REMARK    4  A    between atoms: O_6  and  C_7
REMARK    5  A    between atoms: C_17  and  C_18
REMARK                            x       y       z     vdW  Elec       q    Type
REMARK                         _______ _______ _______ _____ _____    ______ ____
ROOT
ATOM      1  C   UNL     1       8.178   8.571  17.760  0.00  0.00    +0.000 C 
ATOM      2  C   UNL     1       7.549   7.224  17.572  0.00  0.00    +0.000 A 
ATOM      3  C   UNL     1       7.016   6.528  18.639  0.00  0.00    +0.000 A 
ATOM      4  C   UNL     1       6.479   5.284  18.365  0.00  0.00    +0.000 A 
ATOM      5  N   UNL     1       6.447   4.776  17.116  0.00  0.00    +0.000 NA
ATOM      6  C   UNL     1       6.973   5.522  16.124  0.00  0.00    +0.000 A 
ATOM      7  N   UNL     1       7.540   6.736  16.316  0.00  0.00    +0.000 NA
ENDROOT
BRANCH   6   8
ATOM      8  C   UNL     1       6.935   4.992  14.735  0.00  0.00    +0.000 A 
ATOM      9  C   UNL     1       6.046   3.979  14.360  0.00  0.00    +0.000 A 
ATOM     10  C   UNL     1       6.054   3.500  13.052  0.00  0.00    +0.000 A 
ATOM     11  C   UNL     1       6.948   4.038  12.138  0.00  0.00    +0.000 A 
ATOM     12  C   UNL     1       7.799   5.039  12.571  0.00  0.00    +0.000 A 
ATOM     13  N   UNL     1       7.810   5.523  13.831  0.00  0.00    +0.000 NA
ENDBRANCH   6   8
BRANCH   4  14
ATOM     14  C   UNL     1       5.917   4.430  19.479  0.00  0.00    +0.000 C 
BRANCH  14  15
ATOM     15  O   UNL     1       5.264   3.283  18.928  0.00  0.00    +0.000 OA
BRANCH  15  16
ATOM     16  C   UNL     1       3.921   3.157  19.181  0.00  0.00    +0.000 A 
ATOM     17  C   UNL     1       3.094   3.714  18.202  0.00  0.00    +0.000 A 
ATOM     18  C   UNL     1       1.708   3.682  18.359  0.00  0.00    +0.000 A 
ATOM     19  F   UNL     1       0.927   4.229  17.419  0.00  0.00    +0.000 F 
ATOM     20  C   UNL     1       1.140   3.094  19.483  0.00  0.00    +0.000 A 
ATOM     21  F   UNL     1      -0.190   3.076  19.637  0.00  0.00    +0.000 F 
ATOM     22  C   UNL     1       1.947   2.527  20.459  0.00  0.00    +0.000 A 
ATOM     23  C   UNL     1       3.330   2.557  20.302  0.00  0.00    +0.000 A 
ATOM     24  F   UNL     1       4.068   2.005  21.274  0.00  0.00    +0.000 F 
ENDBRANCH  15  16
ENDBRANCH  14  15
ENDBRANCH   4  14
TORSDOF 4
ENDMDL
MODEL 3
REMARK VINA RESULT:      -8.7      2.149      3.149
REMARK  Name = 
REMARK  5 active torsions:
REMARK  status: ('A' for Active; 'I' for Inactive)
REMARK    1  A    between atoms: C_1  and  C_2
REMARK    2  A    between atoms: C_4  and  C_5
REMARK    3  A    between atoms: C_5  and  O_6
REMARK    4  A    between atoms: O_6  and  C_7
REMARK    5  A    between atoms: C_17  and  C_18
REMARK                            x       y       z     vdW  Elec       q    Type
REMARK                         _______ _______ _______ _____ _____    ______ ____
ROOT
ATOM      1  C   UNL     1       7.941   6.005  19.022  0.00  0.00    +0.000 C 
ATOM      2  C   UNL     1       6.973   5.275  18.142  0.00  0.00    +0.000 A 
ATOM      3  C   UNL     1       5.841   4.680  18.663  0.00  0.00    +0.000 A 
ATOM      4  C   UNL     1       5.023   4.012  17.771  0.00  0.00    +0.000 A 
ATOM      5  N   UNL     1       5.293   3.959  16.451  0.00  0.00    +0.000 NA
ATOM      6  C   UNL     1       6.409   4.578  16.016  0.00  0.00    +0.000 A 
ATOM      7  N   UNL     1       7.272   5.230  16.829  0.00  0.00    +0.000 NA
ENDROOT
BRANCH   6   8
ATOM      8  C   UNL     1       6.720   4.550  14.562  0.00  0.00    +0.000 A 
ATOM      9  C   UNL     1       6.056   3.685  13.686  0.00  0.00    +0.000 A 
ATOM     10  C   UNL     1       6.389   3.679  12.333  0.00  0.00    +0.000 A 
ATOM     11  C   UNL     1       7.380   4.535  11.875  0.00  0.00    +0.000 A 
ATOM     12  C   UNL     1       7.996   5.367  12.792  0.00  0.00    +0.000 A 
ATOM     13  N   UNL     1       7.691   5.394  14.106  0.00  0.00    +0.000 NA
ENDBRANCH   6   8
BRANCH   4  14
ATOM     14  C   UNL     1       3.787   3.289  18.259  0.00  0.00    +0.000 C 
BRANCH  14  15
ATOM     15  O   UNL     1       2.619   4.043  17.921  0.00  0.00    +0.000 OA
BRANCH  15  16
ATOM     16  C   UNL     1       2.339   5.131  18.708  0.00  0.00    +0.000 A 
ATOM     17  C   UNL     1       2.550   6.365  18.086  0.00  0.00    +0.000 A 
ATOM     18  C   UNL     1       2.334   7.548  18.791  0.00  0.00    +0.000 A 
ATOM     19  F   UNL     1       2.550   8.723  18.187  0.00  0.00    +0.000 F 
ATOM     20  C   UNL     1       1.905   7.512  20.113  0.00  0.00    +0.000 A 
ATOM     21  F   UNL     1       1.710   8.650  20.792  0.00  0.00    +0.000 F 
ATOM     22  C   UNL     1       1.681   6.296  20.743  0.00  0.00    +0.000 A 
ATOM     23  C   UNL     1       1.895   5.115  20.038  0.00  0.00    +0.000 A 
ATOM     24  F   UNL     1       1.673   3.965  20.690  0.00  0.00    +0.000 F 
ENDBRANCH  15  16
ENDBRANCH  14  15
ENDBRANCH   4  14
TORSDOF 4
ENDMDL
MODEL 4
REMARK VINA RESULT:      -8.6      1.584      2.115
REMARK  Name = 
REMARK  5 active torsions:
REMARK  status: ('A' for Active; 'I' for Inactive)
REMARK    1  A    between atoms: C_1  and  C_2
REMARK    2  A    between atoms: C_4  and  C_5
REMARK    3  A    between atoms: C_5  and  O_6
REMARK    4  A    between atoms: O_6  and  C_7
REMARK    5  A    between atoms: C_17  and  C_18
REMARK                            x       y       z     vdW  Elec       q    Type
REMARK                         _______ _______ _______ _____ _____    ______ ____
ROOT
ATOM      1  C   UNL     1       8.183   5.326  19.124  0.00  0.00    +0.000 C 
ATOM      2  C   UNL     1       7.077   5.536  18.135  0.00  0.00    +0.000 A 
ATOM      3  C   UNL     1       5.882   6.116  18.511  0.00  0.00    +0.000 A 
ATOM      4  C   UNL     1       4.916   6.244  17.531  0.00  0.00    +0.000 A 
ATOM      5  N   UNL     1       5.129   5.850  16.258  0.00  0.00    +0.000 NA
ATOM      6  C   UNL     1       6.327   5.307  15.965  0.00  0.00    +0.000 A 
ATOM      7  N   UNL     1       7.313   5.124  16.874  0.00  0.00    +0.000 NA
ENDROOT
BRANCH   6   8
ATOM      8  C   UNL     1       6.594   4.880  14.566  0.00  0.00    +0.000 A 
ATOM      9  C   UNL     1       5.836   3.880  13.946  0.00  0.00    +0.000 A 
ATOM     10  C   UNL     1       6.129   3.500  12.638  0.00  0.00    +0.000 A 
ATOM     11  C   UNL     1       7.173   4.120  11.968  0.00  0.00    +0.000 A 
ATOM     12  C   UNL     1       7.882   5.103  12.636  0.00  0.00    +0.000 A 
ATOM     13  N   UNL     1       7.618   5.492  13.901  0.00  0.00    +0.000 NA
ENDBRANCH   6   8
BRANCH   4  14
ATOM     14  C   UNL     1       3.559   6.823  17.862  0.00  0.00    +0.000 C 
BRANCH  14  15
ATOM     15  O   UNL     1       2.551   5.820  17.702  0.00  0.00    +0.000 OA
BRANCH  15  16
ATOM     16  C   UNL     1       2.318   5.002  18.778  0.00  0.00    +0.000 A 
ATOM     17  C   UNL     1       2.341   3.636  18.481  0.00  0.00    +0.000 A 
ATOM     18  C   UNL     1       2.085   2.701  19.483  0.00  0.00    +0.000 A 
ATOM     19  F   UNL     1       2.099   1.395  19.184  0.00  0.00    +0.000 F 
ATOM     20  C   UNL     1       1.810   3.116  20.781  0.00  0.00    +0.000 A 
ATOM     21  F   UNL     1       1.551   2.215  21.738  0.00  0.00    +0.000 F 
ATOM     22  C   UNL     1       1.793   4.467  21.095  0.00  0.00    +0.000 A 
ATOM     23  C   UNL     1       2.051   5.401  20.095  0.00  0.00    +0.000 A 
ATOM     24  F   UNL     1       2.016   6.694  20.444  0.00  0.00    +0.000 F 
ENDBRANCH  15  16
ENDBRANCH  14  15
ENDBRANCH   4  14
TORSDOF 4
ENDMDL
MODEL 5
REMARK VINA RESULT:      -8.5      1.157      1.869
REMARK  Name = 
REMARK  5 active torsions:
REMARK  status: ('A' for Active; 'I' for Inactive)
REMARK    1  A    between atoms: C_1  and  C_2
REMARK    2  A    between atoms: C_4  and  C_5
REMARK    3  A    between atoms: C_5  and  O_6
REMARK    4  A    between atoms: O_6  and  C_7
REMARK    5  A    between atoms: C_17  and  C_18
REMARK                            x       y       z     vdW  Elec       q    Type
REMARK                         _______ _______ _______ _____ _____    ______ ____
ROOT
ATOM      1  C   UNL     1       8.168   8.354  17.757  0.00  0.00    +0.000 C 
ATOM      2  C   UNL     1       7.481   7.043  17.525  0.00  0.00    +0.000 A 
ATOM      3  C   UNL     1       6.870   6.363  18.559  0.00  0.00    +0.000 A 
ATOM      4  C   UNL     1       6.284   5.151  18.246  0.00  0.00    +0.000 A 
ATOM      5  N   UNL     1       6.279   4.659  16.990  0.00  0.00    +0.000 NA
ATOM      6  C   UNL     1       6.882   5.390  16.031  0.00  0.00    +0.000 A 
ATOM      7  N   UNL     1       7.499   6.571  16.263  0.00  0.00    +0.000 NA
ENDROOT
BRANCH   6   8
ATOM      8  C   UNL     1       6.875   4.878  14.635  0.00  0.00    +0.000 A 
ATOM      9  C   UNL     1       7.729   5.401  13.658  0.00  0.00    +0.000 A 
ATOM     10  C   UNL     1       7.679   4.903  12.357  0.00  0.00    +0.000 A 
ATOM     11  C   UNL     1       6.779   3.893  12.051  0.00  0.00    +0.000 A 
ATOM     12  C   UNL     1       5.965   3.418  13.063  0.00  0.00    +0.000 A 
ATOM     13  N   UNL     1       5.994   3.880  14.330  0.00  0.00    +0.000 NA
ENDBRANCH   6   8
BRANCH   4  14
ATOM     14  C   UNL     1       5.634   4.313  19.324  0.00  0.00    +0.000 C 
BRANCH  14  15
ATOM     15  O   UNL     1       4.414   4.928  19.748  0.00  0.00    +0.000 OA
BRANCH  15  16
ATOM     16  C   UNL     1       3.262   4.208  19.558  0.00  0.00    +0.000 A 
ATOM     17  C   UNL     1       3.316   3.301  18.496  0.00  0.00    +0.000 A 
ATOM     18  C   UNL     1       2.196   2.533  18.177  0.00  0.00    +0.000 A 
ATOM     19  F   UNL     1       2.257   1.676  17.150  0.00  0.00    +0.000 F 
ATOM     20  C   UNL     1       1.024   2.659  18.912  0.00  0.00    +0.000 A 
ATOM     21  F   UNL     1      -0.054   1.930  18.595  0.00  0.00    +0.000 F 
ATOM     22  C   UNL     1       0.956   3.547  19.976  0.00  0.00    +0.000 A 
ATOM     23  C   UNL     1       2.074   4.313  20.295  0.00  0.00    +0.000 A 
ATOM     24  F   UNL     1       1.959   5.162  21.325  0.00  0.00    +0.000 F 
ENDBRANCH  15  16
ENDBRANCH  14  15
ENDBRANCH   4  14
TORSDOF 4
ENDMDL
MODEL 6
REMARK VINA RESULT:      -8.5      1.519      2.230
REMARK  Name = 
REMARK  5 active torsions:
REMARK  status: ('A' for Active; 'I' for Inactive)
REMARK    1  A    between atoms: C_1  and  C_2
REMARK    2  A    between atoms: C_4  and  C_5
REMARK    3  A    between atoms: C_5  and  O_6
REMARK    4  A    between atoms: O_6  and  C_7
REMARK    5  A    between atoms: C_17  and  C_18
REMARK                            x       y       z     vdW  Elec       q    Type
REMARK                         _______ _______ _______ _____ _____    ______ ____
ROOT
ATOM      1  C   UNL     1       8.049   8.195  17.921  0.00  0.00    +0.000 C 
ATOM      2  C   UNL     1       7.422   6.873  17.599  0.00  0.00    +0.000 A 
ATOM      3  C   UNL     1       6.841   6.098  18.582  0.00  0.00    +0.000 A 
ATOM      4  C   UNL     1       6.311   4.884  18.187  0.00  0.00    +0.000 A 
ATOM      5  N   UNL     1       6.330   4.478  16.900  0.00  0.00    +0.000 NA
ATOM      6  C   UNL     1       6.901   5.298  15.995  0.00  0.00    +0.000 A 
ATOM      7  N   UNL     1       7.464   6.488  16.308  0.00  0.00    +0.000 NA
ENDROOT
BRANCH   6   8
ATOM      8  C   UNL     1       6.920   4.881  14.568  0.00  0.00    +0.000 A 
ATOM      9  C   UNL     1       6.098   3.854  14.092  0.00  0.00    +0.000 A 
ATOM     10  C   UNL     1       6.158   3.484  12.750  0.00  0.00    +0.000 A 
ATOM     11  C   UNL     1       7.037   4.144  11.903  0.00  0.00    +0.000 A 
ATOM     12  C   UNL     1       7.820   5.152  12.435  0.00  0.00    +0.000 A 
ATOM     13  N   UNL     1       7.780   5.532  13.730  0.00  0.00    +0.000 NA
ENDBRANCH   6   8
BRANCH   4  14
ATOM     14  C   UNL     1       5.699   3.947  19.203  0.00  0.00    +0.000 C 
BRANCH  14  15
ATOM     15  O   UNL     1       4.381   3.575  18.789  0.00  0.00    +0.000 OA
BRANCH  15  16
ATOM     16  C   UNL     1       3.338   4.242  19.378  0.00  0.00    +0.000 A 
ATOM     17  C   UNL     1       3.374   5.630  19.219  0.00  0.00    +0.000 A 
ATOM     18  C   UNL     1       2.387   6.425  19.801  0.00  0.00    +0.000 A 
ATOM     19  F   UNL     1       2.439   7.754  19.650  0.00  0.00    +0.000 F 
ATOM     20  C   UNL     1       1.360   5.846  20.538  0.00  0.00    +0.000 A 
ATOM     21  F   UNL     1       0.421   6.613  21.107  0.00  0.00    +0.000 F 
ATOM     22  C   UNL     1       1.304   4.469  20.698  0.00  0.00    +0.000 A 
ATOM     23  C   UNL     1       2.288   3.675  20.116  0.00  0.00    +0.000 A 
ATOM     24  F   UNL     1       2.196   2.352  20.304  0.00  0.00    +0.000 F 
ENDBRANCH  15  16
ENDBRANCH  14  15
ENDBRANCH   4  14
TORSDOF 4
ENDMDL
MODEL 7
REMARK VINA RESULT:      -8.4      1.490      1.890
REMARK  Name = 
REMARK  5 active torsions:
REMARK  status: ('A' for Active; 'I' for Inactive)
REMARK    1  A    between atoms: C_1  and  C_2
REMARK    2  A    between atoms: C_4  and  C_5
REMARK    3  A    between atoms: C_5  and  O_6
REMARK    4  A    between atoms: O_6  and  C_7
REMARK    5  A    between atoms: C_17  and  C_18
REMARK                            x       y       z     vdW  Elec       q    Type
REMARK                         _______ _______ _______ _____ _____    ______ ____
ROOT
ATOM      1  C   UNL     1       8.308   5.044  19.171  0.00  0.00    +0.000 C 
ATOM      2  C   UNL     1       7.186   5.268  18.203  0.00  0.00    +0.000 A 
ATOM      3  C   UNL     1       5.971   5.774  18.621  0.00  0.00    +0.000 A 
ATOM      4  C   UNL     1       4.993   5.922  17.656  0.00  0.00    +0.000 A 
ATOM      5  N   UNL     1       5.212   5.617  16.360  0.00  0.00    +0.000 NA
ATOM      6  C   UNL     1       6.429   5.144  16.026  0.00  0.00    +0.000 A 
ATOM      7  N   UNL     1       7.429   4.946  16.918  0.00  0.00    +0.000 NA
ENDROOT
BRANCH   6   8
ATOM      8  C   UNL     1       6.702   4.816  14.602  0.00  0.00    +0.000 A 
ATOM      9  C   UNL     1       5.967   3.840  13.920  0.00  0.00    +0.000 A 
ATOM     10  C   UNL     1       6.265   3.553  12.590  0.00  0.00    +0.000 A 
ATOM     11  C   UNL     1       7.291   4.242  11.960  0.00  0.00    +0.000 A 
ATOM     12  C   UNL     1       7.977   5.197  12.689  0.00  0.00    +0.000 A 
ATOM     13  N   UNL     1       7.707   5.496  13.977  0.00  0.00    +0.000 NA
ENDBRANCH   6   8
BRANCH   4  14
ATOM     14  C   UNL     1       3.617   6.423  18.030  0.00  0.00    +0.000 C 
BRANCH  14  15
ATOM     15  O   UNL     1       2.637   5.429  17.717  0.00  0.00    +0.000 OA
BRANCH  15  16
ATOM     16  C   UNL     1       2.388   4.483  18.678  0.00  0.00    +0.000 A 
ATOM     17  C   UNL     1       2.495   4.951  19.991  0.00  0.00    +0.000 A 
ATOM     18  C   UNL     1       2.299   4.078  21.061  0.00  0.00    +0.000 A 
ATOM     19  F   UNL     1       2.415   4.536  22.314  0.00  0.00    +0.000 F 
ATOM     20  C   UNL     1       1.993   2.742  20.833  0.00  0.00    +0.000 A 
ATOM     21  F   UNL     1       1.819   1.903  21.862  0.00  0.00    +0.000 F 
ATOM     22  C   UNL     1       1.874   2.262  19.536  0.00  0.00    +0.000 A 
ATOM     23  C   UNL     1       2.067   3.134  18.468  0.00  0.00    +0.000 A 
ATOM     24  F   UNL     1       1.949   2.625  17.234  0.00  0.00    +0.000 F 
ENDBRANCH  15  16
ENDBRANCH  14  15
ENDBRANCH   4  14
TORSDOF 4
ENDMDL
MODEL 8
REMARK VINA RESULT:      -8.2      1.462      2.168
REMARK  Name = 
REMARK  5 active torsions:
REMARK  status: ('A' for Active; 'I' for Inactive)
REMARK    1  A    between atoms: C_1  and  C_2
REMARK    2  A    between atoms: C_4  and  C_5
REMARK    3  A    between atoms: C_5  and  O_6
REMARK    4  A    between atoms: O_6  and  C_7
REMARK    5  A    between atoms: C_17  and  C_18
REMARK                            x       y       z     vdW  Elec       q    Type
REMARK                         _______ _______ _______ _____ _____    ______ ____
ROOT
ATOM      1  C   UNL     1       8.181   5.341  19.088  0.00  0.00    +0.000 C 
ATOM      2  C   UNL     1       7.097   5.575  18.081  0.00  0.00    +0.000 A 
ATOM      3  C   UNL     1       5.917   6.200  18.431  0.00  0.00    +0.000 A 
ATOM      4  C   UNL     1       4.971   6.347  17.434  0.00  0.00    +0.000 A 
ATOM      5  N   UNL     1       5.189   5.929  16.170  0.00  0.00    +0.000 NA
ATOM      6  C   UNL     1       6.373   5.343  15.902  0.00  0.00    +0.000 A 
ATOM      7  N   UNL     1       7.338   5.139  16.829  0.00  0.00    +0.000 NA
ENDROOT
BRANCH   6   8
ATOM      8  C   UNL     1       6.645   4.889  14.513  0.00  0.00    +0.000 A 
ATOM      9  C   UNL     1       5.904   3.862  13.917  0.00  0.00    +0.000 A 
ATOM     10  C   UNL     1       6.203   3.457  12.618  0.00  0.00    +0.000 A 
ATOM     11  C   UNL     1       7.236   4.080  11.933  0.00  0.00    +0.000 A 
ATOM     12  C   UNL     1       7.928   5.089  12.577  0.00  0.00    +0.000 A 
ATOM     13  N   UNL     1       7.658   5.503  13.833  0.00  0.00    +0.000 NA
ENDBRANCH   6   8
BRANCH   4  14
ATOM     14  C   UNL     1       3.630   6.976  17.738  0.00  0.00    +0.000 C 
BRANCH  14  15
ATOM     15  O   UNL     1       3.187   6.571  19.036  0.00  0.00    +0.000 OA
BRANCH  15  16
ATOM     16  C   UNL     1       2.485   5.395  19.110  0.00  0.00    +0.000 A 
ATOM     17  C   UNL     1       2.681   4.536  18.024  0.00  0.00    +0.000 A 
ATOM     18  C   UNL     1       1.997   3.322  17.964  0.00  0.00    +0.000 A 
ATOM     19  F   UNL     1       2.184   2.513  16.913  0.00  0.00    +0.000 F 
ATOM     20  C   UNL     1       1.123   2.954  18.980  0.00  0.00    +0.000 A 
ATOM     21  F   UNL     1       0.458   1.794  18.912  0.00  0.00    +0.000 F 
ATOM     22  C   UNL     1       0.925   3.790  20.069  0.00  0.00    +0.000 A 
ATOM     23  C   UNL     1       1.608   5.001  20.131  0.00  0.00    +0.000 A 
ATOM     24  F   UNL     1       1.379   5.778  21.198  0.00  0.00    +0.000 F 
ENDBRANCH  15  16
ENDBRANCH  14  15
ENDBRANCH   4  14
TORSDOF 4
ENDMDL
MODEL 9
REMARK VINA RESULT:      -8.1      3.769      7.198
REMARK  Name = 
REMARK  5 active torsions:
REMARK  status: ('A' for Active; 'I' for Inactive)
REMARK    1  A    between atoms: C_1  and  C_2
REMARK    2  A    between atoms: C_4  and  C_5
REMARK    3  A    between atoms: C_5  and  O_6
REMARK    4  A    between atoms: O_6  and  C_7
REMARK    5  A    between atoms: C_17  and  C_18
REMARK                            x       y       z     vdW  Elec       q    Type
REMARK                         _______ _______ _______ _____ _____    ______ ____
ROOT
ATOM      1  C   UNL     1       2.557   2.961  21.453  0.00  0.00    +0.000 C 
ATOM      2  C   UNL     1       2.696   3.903  20.296  0.00  0.00    +0.000 A 
ATOM      3  C   UNL     1       3.240   3.488  19.097  0.00  0.00    +0.000 A 
ATOM      4  C   UNL     1       3.345   4.438  18.099  0.00  0.00    +0.000 A 
ATOM      5  N   UNL     1       2.916   5.706  18.267  0.00  0.00    +0.000 NA
ATOM      6  C   UNL     1       2.381   6.031  19.461  0.00  0.00    +0.000 A 
ATOM      7  N   UNL     1       2.268   5.165  20.495  0.00  0.00    +0.000 NA
ENDROOT
BRANCH   6   8
ATOM      8  C   UNL     1       1.885   7.417  19.666  0.00  0.00    +0.000 A 
ATOM      9  C   UNL     1       1.863   8.351  18.625  0.00  0.00    +0.000 A 
ATOM     10  C   UNL     1       1.404   9.645  18.864  0.00  0.00    +0.000 A 
ATOM     11  C   UNL     1       0.974   9.988  20.138  0.00  0.00    +0.000 A 
ATOM     12  C   UNL     1       1.019   9.018  21.123  0.00  0.00    +0.000 A 
ATOM     13  N   UNL     1       1.456   7.758  20.918  0.00  0.00    +0.000 NA
ENDBRANCH   6   8
BRANCH   4  14
ATOM     14  C   UNL     1       3.973   4.087  16.769  0.00  0.00    +0.000 C 
BRANCH  14  15
ATOM     15  O   UNL     1       5.369   3.830  16.944  0.00  0.00    +0.000 OA
BRANCH  15  16
ATOM     16  C   UNL     1       6.155   4.899  17.291  0.00  0.00    +0.000 A 
ATOM     17  C   UNL     1       6.981   4.676  18.396  0.00  0.00    +0.000 A 
ATOM     18  C   UNL     1       7.803   5.698  18.870  0.00  0.00    +0.000 A 
ATOM     19  F   UNL     1       8.583   5.474  19.936  0.00  0.00    +0.000 F 
ATOM     20  C   UNL     1       7.812   6.941  18.248  0.00  0.00    +0.000 A 
ATOM     21  F   UNL     1       8.593   7.924  18.714  0.00  0.00    +0.000 F 
ATOM     22  C   UNL     1       7.005   7.177  17.144  0.00  0.00    +0.000 A 
ATOM     23  C   UNL     1       6.185   6.156  16.670  0.00  0.00    +0.000 A 
ATOM     24  F   UNL     1       5.418   6.433  15.607  0.00  0.00    +0.000 F 
ENDBRANCH  15  16
ENDBRANCH  14  15
ENDBRANCH   4  14
TORSDOF 4
ENDMDL
