MODEL 1
REMARK VINA RESULT:      -6.4      0.000      0.000
REMARK  Name = 
REMARK  4 active torsions:
REMARK  status: ('A' for Active; 'I' for Inactive)
REMARK    1  A    between atoms: N_1  and  C_2
REMARK    2  A    between atoms: C_2  and  C_3
REMARK    3  A    between atoms: C_6  and  S_7
REMARK    4  A    between atoms: S_7  and  N_10
REMARK                            x       y       z     vdW  Elec       q    Type
REMARK                         _______ _______ _______ _____ _____    ______ ____
ROOT
ATOM      1  S   UNL     1       7.194   5.291  16.430  0.00  0.00    +0.000 S 
ATOM      2  O   UNL     1       8.034   4.263  17.012  0.00  0.00    +0.000 OA
ATOM      3  O   UNL     1       7.633   6.668  16.369  0.00  0.00    +0.000 OA
ENDROOT
BRANCH   1   4
ATOM      4  N   UNL     1       5.655   5.257  17.212  0.00  0.00    +0.000 NA
ATOM      5  C   UNL     1       5.181   6.621  17.597  0.00  0.00    +0.000 C 
ATOM      6  C   UNL     1       3.667   6.742  17.500  0.00  0.00    +0.000 C 
ATOM      7  C   UNL     1       2.837   5.887  18.457  0.00  0.00    +0.000 C 
ATOM      8  N   UNL     1       3.577   5.188  19.506  0.00  0.00    +0.000 NA
ATOM      9  C   UNL     1       4.287   4.021  18.957  0.00  0.00    +0.000 C 
ATOM     10  C   UNL     1       5.679   4.321  18.384  0.00  0.00    +0.000 C 
ATOM     11  H   UNL     1       2.901   4.849  20.192  0.00  0.00    +0.000 HD
ENDBRANCH   1   4
BRANCH   1  15
ATOM     12  C   UNL     1       6.009   3.669  12.757  0.00  0.00    +0.000 A 
ATOM     13  C   UNL     1       7.128   4.419  12.450  0.00  0.00    +0.000 A 
ATOM     14  C   UNL     1       7.685   5.056  13.591  0.00  0.00    +0.000 A 
ATOM     15  C   UNL     1       6.960   4.797  14.738  0.00  0.00    +0.000 A 
ATOM     16  S   UNL     1       5.602   3.809  14.415  0.00  0.00    +0.000 S 
BRANCH  12  17
ATOM     17  C   UNL     1       5.205   2.805  11.838  0.00  0.00    +0.000 C 
BRANCH  17  18
ATOM     18  N   UNL     1       5.944   1.583  11.543  0.00  0.00    +0.000 NA
ATOM     19  H   UNL     1       6.012   1.463  10.535  0.00  0.00    +0.000 HD
ATOM     20  H   UNL     1       5.410   0.786  11.892  0.00  0.00    +0.000 HD
ENDBRANCH  17  18
ENDBRANCH  12  17
ENDBRANCH   1  15
TORSDOF 4
ENDMDL
MODEL 2
REMARK VINA RESULT:      -6.2      2.706      3.519
REMARK  Name = 
REMARK  4 active torsions:
REMARK  status: ('A' for Active; 'I' for Inactive)
REMARK    1  A    between atoms: N_1  and  C_2
REMARK    2  A    between atoms: C_2  and  C_3
REMARK    3  A    between atoms: C_6  and  S_7
REMARK    4  A    between atoms: S_7  and  N_10
REMARK                            x       y       z     vdW  Elec       q    Type
REMARK                         _______ _______ _______ _____ _____    ______ ____
ROOT
ATOM      1  S   UNL     1       4.364   5.609  18.564  0.00  0.00    +0.000 S 
ATOM      2  O   UNL     1       5.059   5.559  19.836  0.00  0.00    +0.000 OA
ATOM      3  O   UNL     1       3.771   6.838  18.085  0.00  0.00    +0.000 OA
ENDROOT
BRANCH   1   4
ATOM      4  N   UNL     1       3.143   4.387  18.553  0.00  0.00    +0.000 NA
ATOM      5  C   UNL     1       2.520   4.193  19.898  0.00  0.00    +0.000 C 
ATOM      6  C   UNL     1       1.047   3.824  19.790  0.00  0.00    +0.000 C 
ATOM      7  C   UNL     1       0.711   2.483  19.139  0.00  0.00    +0.000 C 
ATOM      8  N   UNL     1       1.840   1.596  18.865  0.00  0.00    +0.000 NA
ATOM      9  C   UNL     1       2.599   2.062  17.692  0.00  0.00    +0.000 C 
ATOM     10  C   UNL     1       3.684   3.105  17.995  0.00  0.00    +0.000 C 
ATOM     11  H   UNL     1       1.466   0.672  18.648  0.00  0.00    +0.000 HD
ENDBRANCH   1   4
BRANCH   1  15
ATOM     12  C   UNL     1       6.644   4.796  15.149  0.00  0.00    +0.000 A 
ATOM     13  C   UNL     1       7.459   4.415  16.197  0.00  0.00    +0.000 A 
ATOM     14  C   UNL     1       6.846   4.617  17.463  0.00  0.00    +0.000 A 
ATOM     15  C   UNL     1       5.586   5.172  17.349  0.00  0.00    +0.000 A 
ATOM     16  S   UNL     1       5.173   5.466  15.715  0.00  0.00    +0.000 S 
BRANCH  12  17
ATOM     17  C   UNL     1       6.917   4.664  13.684  0.00  0.00    +0.000 C 
BRANCH  17  18
ATOM     18  N   UNL     1       6.332   3.423  13.187  0.00  0.00    +0.000 NA
ATOM     19  H   UNL     1       5.360   3.366  13.481  0.00  0.00    +0.000 HD
ATOM     20  H   UNL     1       6.812   2.638  13.626  0.00  0.00    +0.000 HD
ENDBRANCH  17  18
ENDBRANCH  12  17
ENDBRANCH   1  15
TORSDOF 4
ENDMDL
MODEL 3
REMARK VINA RESULT:      -6.1      3.934      7.111
REMARK  Name = 
REMARK  4 active torsions:
REMARK  status: ('A' for Active; 'I' for Inactive)
REMARK    1  A    between atoms: N_1  and  C_2
REMARK    2  A    between atoms: C_2  and  C_3
REMARK    3  A    between atoms: C_6  and  S_7
REMARK    4  A    between atoms: S_7  and  N_10
REMARK                            x       y       z     vdW  Elec       q    Type
REMARK                         _______ _______ _______ _____ _____    ______ ____
ROOT
ATOM      1  S   UNL     1       2.905   5.373  18.875  0.00  0.00    +0.000 S 
ATOM      2  O   UNL     1       2.989   5.077  20.291  0.00  0.00    +0.000 OA
ATOM      3  O   UNL     1       1.986   4.659  18.015  0.00  0.00    +0.000 OA
ENDROOT
BRANCH   1   4
ATOM      4  N   UNL     1       4.485   5.247  18.189  0.00  0.00    +0.000 NA
ATOM      5  C   UNL     1       4.621   4.063  17.286  0.00  0.00    +0.000 C 
ATOM      6  C   UNL     1       5.563   4.344  16.124  0.00  0.00    +0.000 C 
ATOM      7  C   UNL     1       7.032   4.595  16.464  0.00  0.00    +0.000 C 
ATOM      8  N   UNL     1       7.427   4.344  17.848  0.00  0.00    +0.000 NA
ATOM      9  C   UNL     1       6.958   5.426  18.731  0.00  0.00    +0.000 C 
ATOM     10  C   UNL     1       5.529   5.253  19.265  0.00  0.00    +0.000 C 
ATOM     11  H   UNL     1       8.447   4.331  17.885  0.00  0.00    +0.000 HD
ENDBRANCH   1   4
BRANCH   1  15
ATOM     12  C   UNL     1       1.432   9.250  19.442  0.00  0.00    +0.000 A 
ATOM     13  C   UNL     1       1.898   9.253  18.142  0.00  0.00    +0.000 A 
ATOM     14  C   UNL     1       2.443   7.999  17.757  0.00  0.00    +0.000 A 
ATOM     15  C   UNL     1       2.404   7.077  18.785  0.00  0.00    +0.000 A 
ATOM     16  S   UNL     1       1.731   7.747  20.207  0.00  0.00    +0.000 S 
BRANCH  12  17
ATOM     17  C   UNL     1       0.731  10.356  20.165  0.00  0.00    +0.000 C 
BRANCH  17  18
ATOM     18  N   UNL     1       1.055  10.296  21.586  0.00  0.00    +0.000 NA
ATOM     19  H   UNL     1       0.201  10.162  22.122  0.00  0.00    +0.000 HD
ATOM     20  H   UNL     1       1.436  11.198  21.872  0.00  0.00    +0.000 HD
ENDBRANCH  17  18
ENDBRANCH  12  17
ENDBRANCH   1  15
TORSDOF 4
ENDMDL
MODEL 4
REMARK VINA RESULT:      -6.1      3.399      6.537
REMARK  Name = 
REMARK  4 active torsions:
REMARK  status: ('A' for Active; 'I' for Inactive)
REMARK    1  A    between atoms: N_1  and  C_2
REMARK    2  A    between atoms: C_2  and  C_3
REMARK    3  A    between atoms: C_6  and  S_7
REMARK    4  A    between atoms: S_7  and  N_10
REMARK                            x       y       z     vdW  Elec       q    Type
REMARK                         _______ _______ _______ _____ _____    ______ ____
ROOT
ATOM      1  S   UNL     1       3.451   4.184  18.611  0.00  0.00    +0.000 S 
ATOM      2  O   UNL     1       3.919   3.519  19.811  0.00  0.00    +0.000 OA
ATOM      3  O   UNL     1       2.467   3.565  17.749  0.00  0.00    +0.000 OA
ENDROOT
BRANCH   1   4
ATOM      4  N   UNL     1       4.819   4.603  17.643  0.00  0.00    +0.000 NA
ATOM      5  C   UNL     1       4.934   3.750  16.420  0.00  0.00    +0.000 C 
ATOM      6  C   UNL     1       5.509   4.526  15.243  0.00  0.00    +0.000 C 
ATOM      7  C   UNL     1       6.951   5.014  15.369  0.00  0.00    +0.000 C 
ATOM      8  N   UNL     1       7.703   4.520  16.520  0.00  0.00    +0.000 NA
ATOM      9  C   UNL     1       7.282   5.204  17.755  0.00  0.00    +0.000 C 
ATOM     10  C   UNL     1       6.074   4.578  18.463  0.00  0.00    +0.000 C 
ATOM     11  H   UNL     1       8.689   4.733  16.365  0.00  0.00    +0.000 HD
ENDBRANCH   1   4
BRANCH   1  15
ATOM     12  C   UNL     1       1.973   8.053  19.221  0.00  0.00    +0.000 A 
ATOM     13  C   UNL     1       1.644   7.379  20.380  0.00  0.00    +0.000 A 
ATOM     14  C   UNL     1       2.074   6.025  20.363  0.00  0.00    +0.000 A 
ATOM     15  C   UNL     1       2.698   5.692  19.177  0.00  0.00    +0.000 A 
ATOM     16  S   UNL     1       2.733   7.013  18.091  0.00  0.00    +0.000 S 
BRANCH  12  17
ATOM     17  C   UNL     1       1.752   9.499  18.908  0.00  0.00    +0.000 C 
BRANCH  17  18
ATOM     18  N   UNL     1       1.784   9.699  17.464  0.00  0.00    +0.000 NA
ATOM     19  H   UNL     1       2.738   9.589  17.129  0.00  0.00    +0.000 HD
ATOM     20  H   UNL     1       1.518  10.663  17.262  0.00  0.00    +0.000 HD
ENDBRANCH  17  18
ENDBRANCH  12  17
ENDBRANCH   1  15
TORSDOF 4
ENDMDL
MODEL 5
REMARK VINA RESULT:      -6.1      2.356      2.991
REMARK  Name = 
REMARK  4 active torsions:
REMARK  status: ('A' for Active; 'I' for Inactive)
REMARK    1  A    between atoms: N_1  and  C_2
REMARK    2  A    between atoms: C_2  and  C_3
REMARK    3  A    between atoms: C_6  and  S_7
REMARK    4  A    between atoms: S_7  and  N_10
REMARK                            x       y       z     vdW  Elec       q    Type
REMARK                         _______ _______ _______ _____ _____    ______ ____
ROOT
ATOM      1  S   UNL     1       5.368   4.938  17.955  0.00  0.00    +0.000 S 
ATOM      2  O   UNL     1       6.490   4.343  18.655  0.00  0.00    +0.000 OA
ATOM      3  O   UNL     1       5.078   6.350  18.073  0.00  0.00    +0.000 OA
ENDROOT
BRANCH   1   4
ATOM      4  N   UNL     1       3.935   4.064  18.362  0.00  0.00    +0.000 NA
ATOM      5  C   UNL     1       2.700   4.894  18.215  0.00  0.00    +0.000 C 
ATOM      6  C   UNL     1       1.510   4.060  17.763  0.00  0.00    +0.000 C 
ATOM      7  C   UNL     1       1.004   2.988  18.728  0.00  0.00    +0.000 C 
ATOM      8  N   UNL     1       1.581   3.002  20.070  0.00  0.00    +0.000 NA
ATOM      9  C   UNL     1       2.948   2.453  20.058  0.00  0.00    +0.000 C 
ATOM     10  C   UNL     1       4.051   3.470  19.734  0.00  0.00    +0.000 C 
ATOM     11  H   UNL     1       1.009   2.400  20.663  0.00  0.00    +0.000 HD
ENDBRANCH   1   4
BRANCH   1  15
ATOM     12  C   UNL     1       6.854   4.747  14.046  0.00  0.00    +0.000 A 
ATOM     13  C   UNL     1       5.625   4.122  13.970  0.00  0.00    +0.000 A 
ATOM     14  C   UNL     1       4.953   4.091  15.222  0.00  0.00    +0.000 A 
ATOM     15  C   UNL     1       5.701   4.670  16.229  0.00  0.00    +0.000 A 
ATOM     16  S   UNL     1       7.214   5.220  15.652  0.00  0.00    +0.000 S 
BRANCH  12  17
ATOM     17  C   UNL     1       7.805   5.034  12.927  0.00  0.00    +0.000 C 
BRANCH  17  18
ATOM     18  N   UNL     1       8.838   5.956  13.386  0.00  0.00    +0.000 NA
ATOM     19  H   UNL     1       8.400   6.760  13.829  0.00  0.00    +0.000 HD
ATOM     20  H   UNL     1       9.341   6.313  12.574  0.00  0.00    +0.000 HD
ENDBRANCH  17  18
ENDBRANCH  12  17
ENDBRANCH   1  15
TORSDOF 4
ENDMDL
MODEL 6
REMARK VINA RESULT:      -6.1      2.950      3.925
REMARK  Name = 
REMARK  4 active torsions:
REMARK  status: ('A' for Active; 'I' for Inactive)
REMARK    1  A    between atoms: N_1  and  C_2
REMARK    2  A    between atoms: C_2  and  C_3
REMARK    3  A    between atoms: C_6  and  S_7
REMARK    4  A    between atoms: S_7  and  N_10
REMARK                            x       y       z     vdW  Elec       q    Type
REMARK                         _______ _______ _______ _____ _____    ______ ____
ROOT
ATOM      1  S   UNL     1       4.295   5.601  19.194  0.00  0.00    +0.000 S 
ATOM      2  O   UNL     1       5.486   5.199  19.916  0.00  0.00    +0.000 OA
ATOM      3  O   UNL     1       3.637   6.858  19.481  0.00  0.00    +0.000 OA
ENDROOT
BRANCH   1   4
ATOM      4  N   UNL     1       3.119   4.343  19.322  0.00  0.00    +0.000 NA
ATOM      5  C   UNL     1       2.120   4.381  18.210  0.00  0.00    +0.000 C 
ATOM      6  C   UNL     1       1.658   2.986  17.817  0.00  0.00    +0.000 C 
ATOM      7  C   UNL     1       0.872   2.193  18.861  0.00  0.00    +0.000 C 
ATOM      8  N   UNL     1       0.467   2.925  20.059  0.00  0.00    +0.000 NA
ATOM      9  C   UNL     1       1.612   3.125  20.962  0.00  0.00    +0.000 C 
ATOM     10  C   UNL     1       2.460   4.371  20.668  0.00  0.00    +0.000 C 
ATOM     11  H   UNL     1      -0.225   2.360  20.552  0.00  0.00    +0.000 HD
ENDBRANCH   1   4
BRANCH   1  15
ATOM     12  C   UNL     1       5.884   5.142  15.349  0.00  0.00    +0.000 A 
ATOM     13  C   UNL     1       5.222   6.353  15.298  0.00  0.00    +0.000 A 
ATOM     14  C   UNL     1       4.608   6.690  16.534  0.00  0.00    +0.000 A 
ATOM     15  C   UNL     1       4.796   5.712  17.492  0.00  0.00    +0.000 A 
ATOM     16  S   UNL     1       5.689   4.390  16.876  0.00  0.00    +0.000 S 
BRANCH  12  17
ATOM     17  C   UNL     1       6.702   4.500  14.273  0.00  0.00    +0.000 C 
BRANCH  17  18
ATOM     18  N   UNL     1       7.792   5.391  13.889  0.00  0.00    +0.000 NA
ATOM     19  H   UNL     1       7.483   5.995  13.132  0.00  0.00    +0.000 HD
ATOM     20  H   UNL     1       8.556   4.829  13.515  0.00  0.00    +0.000 HD
ENDBRANCH  17  18
ENDBRANCH  12  17
ENDBRANCH   1  15
TORSDOF 4
ENDMDL
MODEL 7
REMARK VINA RESULT:      -6.1      3.587      7.059
REMARK  Name = 
REMARK  4 active torsions:
REMARK  status: ('A' for Active; 'I' for Inactive)
REMARK    1  A    between atoms: N_1  and  C_2
REMARK    2  A    between atoms: C_2  and  C_3
REMARK    3  A    between atoms: C_6  and  S_7
REMARK    4  A    between atoms: S_7  and  N_10
REMARK                            x       y       z     vdW  Elec       q    Type
REMARK                         _______ _______ _______ _____ _____    ______ ____
ROOT
ATOM      1  S   UNL     1       3.126   4.690  18.512  0.00  0.00    +0.000 S 
ATOM      2  O   UNL     1       3.337   4.018  19.780  0.00  0.00    +0.000 OA
ATOM      3  O   UNL     1       2.169   4.189  17.551  0.00  0.00    +0.000 OA
ENDROOT
BRANCH   1   4
ATOM      4  N   UNL     1       4.649   4.853  17.713  0.00  0.00    +0.000 NA
ATOM      5  C   UNL     1       4.831   3.844  16.625  0.00  0.00    +0.000 C 
ATOM      6  C   UNL     1       5.640   4.406  15.464  0.00  0.00    +0.000 C 
ATOM      7  C   UNL     1       7.098   4.770  15.744  0.00  0.00    +0.000 C 
ATOM      8  N   UNL     1       7.630   4.357  17.041  0.00  0.00    +0.000 NA
ATOM      9  C   UNL     1       7.127   5.231  18.115  0.00  0.00    +0.000 C 
ATOM     10  C   UNL     1       5.772   4.815  18.706  0.00  0.00    +0.000 C 
ATOM     11  H   UNL     1       8.646   4.457  17.008  0.00  0.00    +0.000 HD
ENDBRANCH   1   4
BRANCH   1  15
ATOM     12  C   UNL     1       1.557   8.164  20.244  0.00  0.00    +0.000 A 
ATOM     13  C   UNL     1       1.918   8.555  18.969  0.00  0.00    +0.000 A 
ATOM     14  C   UNL     1       2.478   7.492  18.212  0.00  0.00    +0.000 A 
ATOM     15  C   UNL     1       2.555   6.319  18.939  0.00  0.00    +0.000 A 
ATOM     16  S   UNL     1       1.974   6.528  20.534  0.00  0.00    +0.000 S 
BRANCH  12  17
ATOM     17  C   UNL     1       0.875   8.982  21.294  0.00  0.00    +0.000 C 
BRANCH  17  18
ATOM     18  N   UNL     1       1.770   9.167  22.430  0.00  0.00    +0.000 NA
ATOM     19  H   UNL     1       1.823  10.156  22.661  0.00  0.00    +0.000 HD
ATOM     20  H   UNL     1       2.711   8.886  22.153  0.00  0.00    +0.000 HD
ENDBRANCH  17  18
ENDBRANCH  12  17
ENDBRANCH   1  15
TORSDOF 4
ENDMDL
MODEL 8
REMARK VINA RESULT:      -6.0      3.230      6.762
REMARK  Name = 
REMARK  4 active torsions:
REMARK  status: ('A' for Active; 'I' for Inactive)
REMARK    1  A    between atoms: N_1  and  C_2
REMARK    2  A    between atoms: C_2  and  C_3
REMARK    3  A    between atoms: C_6  and  S_7
REMARK    4  A    between atoms: S_7  and  N_10
REMARK                            x       y       z     vdW  Elec       q    Type
REMARK                         _______ _______ _______ _____ _____    ______ ____
ROOT
ATOM      1  S   UNL     1       4.295   3.395  18.656  0.00  0.00    +0.000 S 
ATOM      2  O   UNL     1       5.222   2.967  19.685  0.00  0.00    +0.000 OA
ATOM      3  O   UNL     1       3.456   2.442  17.963  0.00  0.00    +0.000 OA
ENDROOT
BRANCH   1   4
ATOM      4  N   UNL     1       5.165   4.300  17.470  0.00  0.00    +0.000 NA
ATOM      5  C   UNL     1       5.357   3.536  16.199  0.00  0.00    +0.000 C 
ATOM      6  C   UNL     1       5.334   4.450  14.982  0.00  0.00    +0.000 C 
ATOM      7  C   UNL     1       6.463   5.472  14.857  0.00  0.00    +0.000 C 
ATOM      8  N   UNL     1       7.563   5.340  15.810  0.00  0.00    +0.000 NA
ATOM      9  C   UNL     1       7.164   5.829  17.141  0.00  0.00    +0.000 C 
ATOM     10  C   UNL     1       6.466   4.791  18.030  0.00  0.00    +0.000 C 
ATOM     11  H   UNL     1       8.334   5.923  15.481  0.00  0.00    +0.000 HD
ENDBRANCH   1   4
BRANCH   1  15
ATOM     12  C   UNL     1       2.040   6.599  20.132  0.00  0.00    +0.000 A 
ATOM     13  C   UNL     1       1.577   5.506  20.837  0.00  0.00    +0.000 A 
ATOM     14  C   UNL     1       2.236   4.302  20.471  0.00  0.00    +0.000 A 
ATOM     15  C   UNL     1       3.171   4.503  19.474  0.00  0.00    +0.000 A 
ATOM     16  S   UNL     1       3.219   6.139  18.976  0.00  0.00    +0.000 S 
BRANCH  12  17
ATOM     17  C   UNL     1       1.641   8.031  20.296  0.00  0.00    +0.000 C 
BRANCH  17  18
ATOM     18  N   UNL     1       1.655   8.384  21.711  0.00  0.00    +0.000 NA
ATOM     19  H   UNL     1       0.707   8.346  22.078  0.00  0.00    +0.000 HD
ATOM     20  H   UNL     1       1.959   9.354  21.802  0.00  0.00    +0.000 HD
ENDBRANCH  17  18
ENDBRANCH  12  17
ENDBRANCH   1  15
TORSDOF 4
ENDMDL
MODEL 9
REMARK VINA RESULT:      -6.0      2.015      2.395
REMARK  Name = 
REMARK  4 active torsions:
REMARK  status: ('A' for Active; 'I' for Inactive)
REMARK    1  A    between atoms: N_1  and  C_2
REMARK    2  A    between atoms: C_2  and  C_3
REMARK    3  A    between atoms: C_6  and  S_7
REMARK    4  A    between atoms: S_7  and  N_10
REMARK                            x       y       z     vdW  Elec       q    Type
REMARK                         _______ _______ _______ _____ _____    ______ ____
ROOT
ATOM      1  S   UNL     1       5.474   4.934  18.001  0.00  0.00    +0.000 S 
ATOM      2  O   UNL     1       6.546   4.358  18.789  0.00  0.00    +0.000 OA
ATOM      3  O   UNL     1       5.104   6.325  18.147  0.00  0.00    +0.000 OA
ENDROOT
BRANCH   1   4
ATOM      4  N   UNL     1       4.052   3.979  18.221  0.00  0.00    +0.000 NA
ATOM      5  C   UNL     1       2.848   4.811  18.528  0.00  0.00    +0.000 C 
ATOM      6  C   UNL     1       1.580   4.208  17.940  0.00  0.00    +0.000 C 
ATOM      7  C   UNL     1       1.127   2.859  18.499  0.00  0.00    +0.000 C 
ATOM      8  N   UNL     1       1.840   2.376  19.679  0.00  0.00    +0.000 NA
ATOM      9  C   UNL     1       3.172   1.863  19.312  0.00  0.00    +0.000 C 
ATOM     10  C   UNL     1       4.281   2.922  19.259  0.00  0.00    +0.000 C 
ATOM     11  H   UNL     1       1.305   1.601  20.072  0.00  0.00    +0.000 HD
ENDBRANCH   1   4
BRANCH   1  15
ATOM     12  C   UNL     1       5.950   4.154  13.916  0.00  0.00    +0.000 A 
ATOM     13  C   UNL     1       7.154   4.714  14.295  0.00  0.00    +0.000 A 
ATOM     14  C   UNL     1       7.187   5.050  15.675  0.00  0.00    +0.000 A 
ATOM     15  C   UNL     1       5.994   4.761  16.309  0.00  0.00    +0.000 A 
ATOM     16  S   UNL     1       4.844   4.112  15.223  0.00  0.00    +0.000 S 
BRANCH  12  17
ATOM     17  C   UNL     1       5.576   3.612  12.573  0.00  0.00    +0.000 C 
BRANCH  17  18
ATOM     18  N   UNL     1       6.493   2.539  12.204  0.00  0.00    +0.000 NA
ATOM     19  H   UNL     1       6.136   2.057  11.382  0.00  0.00    +0.000 HD
ATOM     20  H   UNL     1       6.509   1.851  12.957  0.00  0.00    +0.000 HD
ENDBRANCH  17  18
ENDBRANCH  12  17
ENDBRANCH   1  15
TORSDOF 4
ENDMDL
