MODEL 1
REMARK VINA RESULT:      -8.2      0.000      0.000
REMARK  Name = 
REMARK  8 active torsions:
REMARK  status: ('A' for Active; 'I' for Inactive)
REMARK    1  A    between atoms: N_1  and  S_2
REMARK    2  A    between atoms: S_2  and  C_5
REMARK    3  A    between atoms: C_8  and  N_9
REMARK    4  A    between atoms: C_10  and  C_12
REMARK    5  A    between atoms: C_12  and  O_13
REMARK    6  A    between atoms: O_13  and  C_14
REMARK    7  A    between atoms: C_14  and  C_16
REMARK    8  A    between atoms: C_16  and  C_17
REMARK                            x       y       z     vdW  Elec       q    Type
REMARK                         _______ _______ _______ _____ _____    ______ ____
ROOT
ATOM      1  N   UNL     1       9.169   9.197  19.037  0.00  0.00    +0.000 N 
ATOM      2  C   UNL     1       8.244   8.599  18.194  0.00  0.00    +0.000 C 
ATOM      3  O   UNL     1       7.617   9.158  17.295  0.00  0.00    +0.000 OA
ATOM      4  H   UNL     1       9.543   8.630  19.786  0.00  0.00    +0.000 HD
ENDROOT
BRANCH   1   8
ATOM      5  C   UNL     1      10.228  13.285  19.097  0.00  0.00    +0.000 A 
ATOM      6  C   UNL     1      10.523  12.529  17.964  0.00  0.00    +0.000 A 
ATOM      7  C   UNL     1      10.189  11.175  17.939  0.00  0.00    +0.000 A 
ATOM      8  C   UNL     1       9.556  10.558  19.021  0.00  0.00    +0.000 A 
ATOM      9  C   UNL     1       9.275  11.333  20.163  0.00  0.00    +0.000 A 
ATOM     10  C   UNL     1       9.610  12.691  20.202  0.00  0.00    +0.000 A 
BRANCH   5  11
ATOM     11  S   UNL     1      10.566  15.018  19.098  0.00  0.00    +0.000 S 
ATOM     12  O   UNL     1       9.648  15.679  19.996  0.00  0.00    +0.000 OA
ATOM     13  O   UNL     1      10.779  15.462  17.737  0.00  0.00    +0.000 OA
BRANCH  11  14
ATOM     14  N   UNL     1      12.080  15.070  19.822  0.00  0.00    +0.000 NA
ATOM     15  H   UNL     1      11.973  15.253  20.823  0.00  0.00    +0.000 HD
ATOM     16  H   UNL     1      12.688  15.733  19.348  0.00  0.00    +0.000 HD
ENDBRANCH  11  14
ENDBRANCH   5  11
ENDBRANCH   1   8
BRANCH   2  17
ATOM     17  C   UNL     1       7.999   7.115  18.461  0.00  0.00    +0.000 C 
BRANCH  17  18
ATOM     18  O   UNL     1       6.678   6.749  18.060  0.00  0.00    +0.000 OA
BRANCH  18  19
ATOM     19  C   UNL     1       6.418   5.418  18.166  0.00  0.00    +0.000 C 
ATOM     20  O   UNL     1       6.818   4.721  19.094  0.00  0.00    +0.000 OA
BRANCH  19  21
ATOM     21  C   UNL     1       5.663   4.877  16.942  0.00  0.00    +0.000 C 
ATOM     22  C   UNL     1       5.627   6.009  15.875  0.00  0.00    +0.000 C 
ATOM     23  C   UNL     1       5.339   5.308  14.555  0.00  0.00    +0.000 C 
ATOM     24  C   UNL     1       5.984   3.937  14.689  0.00  0.00    +0.000 C 
ATOM     25  C   UNL     1       6.494   3.849  16.130  0.00  0.00    +0.000 C 
BRANCH  21  26
ATOM     26  C   UNL     1       4.294   4.372  17.419  0.00  0.00    +0.000 A 
ATOM     27  C   UNL     1       3.980   3.002  17.456  0.00  0.00    +0.000 A 
ATOM     28  C   UNL     1       2.686   2.557  17.757  0.00  0.00    +0.000 A 
ATOM     29  C   UNL     1       1.673   3.471  18.029  0.00  0.00    +0.000 A 
ATOM     30  C   UNL     1       1.956   4.830  18.000  0.00  0.00    +0.000 A 
ATOM     31  C   UNL     1       3.242   5.267  17.687  0.00  0.00    +0.000 A 
ATOM     32  F   UNL     1       3.425   6.590  17.594  0.00  0.00    +0.000 F 
ENDBRANCH  21  26
ENDBRANCH  19  21
ENDBRANCH  18  19
ENDBRANCH  17  18
ENDBRANCH   2  17
TORSDOF 8
ENDMDL
MODEL 2
REMARK VINA RESULT:      -8.0      6.092      8.004
REMARK  Name = 
REMARK  8 active torsions:
REMARK  status: ('A' for Active; 'I' for Inactive)
REMARK    1  A    between atoms: N_1  and  S_2
REMARK    2  A    between atoms: S_2  and  C_5
REMARK    3  A    between atoms: C_8  and  N_9
REMARK    4  A    between atoms: C_10  and  C_12
REMARK    5  A    between atoms: C_12  and  O_13
REMARK    6  A    between atoms: O_13  and  C_14
REMARK    7  A    between atoms: C_14  and  C_16
REMARK    8  A    between atoms: C_16  and  C_17
REMARK                            x       y       z     vdW  Elec       q    Type
REMARK                         _______ _______ _______ _____ _____    ______ ____
ROOT
ATOM      1  N   UNL     1       1.501   8.790  19.214  0.00  0.00    +0.000 N 
ATOM      2  C   UNL     1       2.265   8.920  18.063  0.00  0.00    +0.000 C 
ATOM      3  O   UNL     1       2.272   9.889  17.305  0.00  0.00    +0.000 OA
ATOM      4  H   UNL     1       1.536   7.899  19.691  0.00  0.00    +0.000 HD
ENDROOT
BRANCH   1   8
ATOM      5  C   UNL     1      -1.259  11.670  20.600  0.00  0.00    +0.000 A 
ATOM      6  C   UNL     1      -0.212  11.283  21.435  0.00  0.00    +0.000 A 
ATOM      7  C   UNL     1       0.697  10.323  20.991  0.00  0.00    +0.000 A 
ATOM      8  C   UNL     1       0.590   9.744  19.724  0.00  0.00    +0.000 A 
ATOM      9  C   UNL     1      -0.479  10.138  18.897  0.00  0.00    +0.000 A 
ATOM     10  C   UNL     1      -1.402  11.096  19.333  0.00  0.00    +0.000 A 
BRANCH   5  11
ATOM     11  S   UNL     1      -2.359  12.949  21.121  0.00  0.00    +0.000 S 
ATOM     12  O   UNL     1      -1.641  14.203  21.164  0.00  0.00    +0.000 OA
ATOM     13  O   UNL     1      -3.154  12.470  22.232  0.00  0.00    +0.000 OA
BRANCH  11  14
ATOM     14  N   UNL     1      -3.419  13.038  19.823  0.00  0.00    +0.000 NA
ATOM     15  H   UNL     1      -3.276  13.920  19.325  0.00  0.00    +0.000 HD
ATOM     16  H   UNL     1      -4.379  12.890  20.125  0.00  0.00    +0.000 HD
ENDBRANCH  11  14
ENDBRANCH   5  11
ENDBRANCH   1   8
BRANCH   2  17
ATOM     17  C   UNL     1       3.142   7.712  17.736  0.00  0.00    +0.000 C 
BRANCH  17  18
ATOM     18  O   UNL     1       2.415   6.499  17.942  0.00  0.00    +0.000 OA
BRANCH  18  19
ATOM     19  C   UNL     1       2.945   5.695  18.903  0.00  0.00    +0.000 C 
ATOM     20  O   UNL     1       3.147   6.060  20.057  0.00  0.00    +0.000 OA
BRANCH  19  21
ATOM     21  C   UNL     1       3.355   4.323  18.345  0.00  0.00    +0.000 C 
ATOM     22  C   UNL     1       3.408   3.327  19.538  0.00  0.00    +0.000 C 
ATOM     23  C   UNL     1       3.321   1.943  18.912  0.00  0.00    +0.000 C 
ATOM     24  C   UNL     1       2.468   2.129  17.665  0.00  0.00    +0.000 C 
ATOM     25  C   UNL     1       2.217   3.634  17.546  0.00  0.00    +0.000 C 
BRANCH  21  26
ATOM     26  C   UNL     1       4.671   4.504  17.574  0.00  0.00    +0.000 A 
ATOM     27  C   UNL     1       4.746   4.325  16.181  0.00  0.00    +0.000 A 
ATOM     28  C   UNL     1       5.973   4.353  15.507  0.00  0.00    +0.000 A 
ATOM     29  C   UNL     1       7.157   4.562  16.207  0.00  0.00    +0.000 A 
ATOM     30  C   UNL     1       7.112   4.742  17.583  0.00  0.00    +0.000 A 
ATOM     31  C   UNL     1       5.888   4.700  18.250  0.00  0.00    +0.000 A 
ATOM     32  F   UNL     1       5.925   4.797  19.585  0.00  0.00    +0.000 F 
ENDBRANCH  21  26
ENDBRANCH  19  21
ENDBRANCH  18  19
ENDBRANCH  17  18
ENDBRANCH   2  17
TORSDOF 8
ENDMDL
MODEL 3
REMARK VINA RESULT:      -8.0      6.153      7.848
REMARK  Name = 
REMARK  8 active torsions:
REMARK  status: ('A' for Active; 'I' for Inactive)
REMARK    1  A    between atoms: N_1  and  S_2
REMARK    2  A    between atoms: S_2  and  C_5
REMARK    3  A    between atoms: C_8  and  N_9
REMARK    4  A    between atoms: C_10  and  C_12
REMARK    5  A    between atoms: C_12  and  O_13
REMARK    6  A    between atoms: O_13  and  C_14
REMARK    7  A    between atoms: C_14  and  C_16
REMARK    8  A    between atoms: C_16  and  C_17
REMARK                            x       y       z     vdW  Elec       q    Type
REMARK                         _______ _______ _______ _____ _____    ______ ____
ROOT
ATOM      1  N   UNL     1       1.764   8.573  19.652  0.00  0.00    +0.000 N 
ATOM      2  C   UNL     1       2.080   8.713  18.309  0.00  0.00    +0.000 C 
ATOM      3  O   UNL     1       1.693   9.613  17.565  0.00  0.00    +0.000 OA
ATOM      4  H   UNL     1       2.086   7.734  20.116  0.00  0.00    +0.000 HD
ENDROOT
BRANCH   1   8
ATOM      5  C   UNL     1      -0.636  11.259  21.858  0.00  0.00    +0.000 A 
ATOM      6  C   UNL     1      -0.539   9.935  22.284  0.00  0.00    +0.000 A 
ATOM      7  C   UNL     1       0.241   9.037  21.555  0.00  0.00    +0.000 A 
ATOM      8  C   UNL     1       0.936   9.434  20.410  0.00  0.00    +0.000 A 
ATOM      9  C   UNL     1       0.819  10.772  19.986  0.00  0.00    +0.000 A 
ATOM     10  C   UNL     1       0.034  11.681  20.706  0.00  0.00    +0.000 A 
BRANCH   5  11
ATOM     11  S   UNL     1      -1.548  12.419  22.827  0.00  0.00    +0.000 S 
ATOM     12  O   UNL     1      -0.624  13.294  23.512  0.00  0.00    +0.000 OA
ATOM     13  O   UNL     1      -2.619  11.729  23.512  0.00  0.00    +0.000 OA
BRANCH  11  14
ATOM     14  N   UNL     1      -2.300  13.338  21.641  0.00  0.00    +0.000 NA
ATOM     15  H   UNL     1      -3.312  13.332  21.793  0.00  0.00    +0.000 HD
ATOM     16  H   UNL     1      -2.026  13.030  20.711  0.00  0.00    +0.000 HD
ENDBRANCH  11  14
ENDBRANCH   5  11
ENDBRANCH   1   8
BRANCH   2  17
ATOM     17  C   UNL     1       2.974   7.611  17.743  0.00  0.00    +0.000 C 
BRANCH  17  18
ATOM     18  O   UNL     1       2.379   6.330  17.955  0.00  0.00    +0.000 OA
BRANCH  18  19
ATOM     19  C   UNL     1       3.031   5.563  18.870  0.00  0.00    +0.000 C 
ATOM     20  O   UNL     1       3.315   5.950  20.000  0.00  0.00    +0.000 OA
BRANCH  19  21
ATOM     21  C   UNL     1       3.460   4.207  18.288  0.00  0.00    +0.000 C 
ATOM     22  C   UNL     1       3.582   3.205  19.470  0.00  0.00    +0.000 C 
ATOM     23  C   UNL     1       3.511   1.823  18.836  0.00  0.00    +0.000 C 
ATOM     24  C   UNL     1       2.610   1.994  17.621  0.00  0.00    +0.000 C 
ATOM     25  C   UNL     1       2.314   3.492  17.524  0.00  0.00    +0.000 C 
BRANCH  21  26
ATOM     26  C   UNL     1       4.741   4.431  17.472  0.00  0.00    +0.000 A 
ATOM     27  C   UNL     1       4.767   4.283  16.074  0.00  0.00    +0.000 A 
ATOM     28  C   UNL     1       5.967   4.349  15.355  0.00  0.00    +0.000 A 
ATOM     29  C   UNL     1       7.172   4.566  16.015  0.00  0.00    +0.000 A 
ATOM     30  C   UNL     1       7.176   4.717  17.395  0.00  0.00    +0.000 A 
ATOM     31  C   UNL     1       5.979   4.636  18.106  0.00  0.00    +0.000 A 
ATOM     32  F   UNL     1       6.065   4.706  19.441  0.00  0.00    +0.000 F 
ENDBRANCH  21  26
ENDBRANCH  19  21
ENDBRANCH  18  19
ENDBRANCH  17  18
ENDBRANCH   2  17
TORSDOF 8
ENDMDL
MODEL 4
REMARK VINA RESULT:      -8.0      1.512      2.462
REMARK  Name = 
REMARK  8 active torsions:
REMARK  status: ('A' for Active; 'I' for Inactive)
REMARK    1  A    between atoms: N_1  and  S_2
REMARK    2  A    between atoms: S_2  and  C_5
REMARK    3  A    between atoms: C_8  and  N_9
REMARK    4  A    between atoms: C_10  and  C_12
REMARK    5  A    between atoms: C_12  and  O_13
REMARK    6  A    between atoms: O_13  and  C_14
REMARK    7  A    between atoms: C_14  and  C_16
REMARK    8  A    between atoms: C_16  and  C_17
REMARK                            x       y       z     vdW  Elec       q    Type
REMARK                         _______ _______ _______ _____ _____    ______ ____
ROOT
ATOM      1  N   UNL     1       9.008   8.851  19.167  0.00  0.00    +0.000 N 
ATOM      2  C   UNL     1       8.178   8.200  18.266  0.00  0.00    +0.000 C 
ATOM      3  O   UNL     1       7.543   8.730  17.355  0.00  0.00    +0.000 OA
ATOM      4  H   UNL     1       9.398   8.295  19.917  0.00  0.00    +0.000 HD
ENDROOT
BRANCH   1   8
ATOM      5  C   UNL     1       9.861  12.987  19.155  0.00  0.00    +0.000 A 
ATOM      6  C   UNL     1       9.614  12.353  20.371  0.00  0.00    +0.000 A 
ATOM      7  C   UNL     1       9.319  10.990  20.385  0.00  0.00    +0.000 A 
ATOM      8  C   UNL     1       9.272  10.240  19.207  0.00  0.00    +0.000 A 
ATOM      9  C   UNL     1       9.513  10.897  17.985  0.00  0.00    +0.000 A 
ATOM     10  C   UNL     1       9.805  12.266  17.958  0.00  0.00    +0.000 A 
BRANCH   5  11
ATOM     11  S   UNL     1      10.323  14.690  19.141  0.00  0.00    +0.000 S 
ATOM     12  O   UNL     1      10.519  15.139  20.500  0.00  0.00    +0.000 OA
ATOM     13  O   UNL     1       9.487  15.403  18.199  0.00  0.00    +0.000 OA
BRANCH  11  14
ATOM     14  N   UNL     1      11.841  14.627  18.426  0.00  0.00    +0.000 NA
ATOM     15  H   UNL     1      11.758  14.240  17.483  0.00  0.00    +0.000 HD
ATOM     16  H   UNL     1      12.502  14.127  19.016  0.00  0.00    +0.000 HD
ENDBRANCH  11  14
ENDBRANCH   5  11
ENDBRANCH   1   8
BRANCH   2  17
ATOM     17  C   UNL     1       8.055   6.692  18.481  0.00  0.00    +0.000 C 
BRANCH  17  18
ATOM     18  O   UNL     1       6.799   6.221  17.992  0.00  0.00    +0.000 OA
BRANCH  18  19
ATOM     19  C   UNL     1       6.123   5.435  18.873  0.00  0.00    +0.000 C 
ATOM     20  O   UNL     1       6.568   5.109  19.969  0.00  0.00    +0.000 OA
BRANCH  19  21
ATOM     21  C   UNL     1       4.797   4.922  18.290  0.00  0.00    +0.000 C 
ATOM     22  C   UNL     1       5.062   4.505  16.815  0.00  0.00    +0.000 C 
ATOM     23  C   UNL     1       3.915   3.575  16.448  0.00  0.00    +0.000 C 
ATOM     24  C   UNL     1       3.548   2.870  17.746  0.00  0.00    +0.000 C 
ATOM     25  C   UNL     1       4.401   3.524  18.836  0.00  0.00    +0.000 C 
BRANCH  21  26
ATOM     26  C   UNL     1       3.741   6.018  18.490  0.00  0.00    +0.000 A 
ATOM     27  C   UNL     1       3.606   7.092  17.591  0.00  0.00    +0.000 A 
ATOM     28  C   UNL     1       2.739   8.160  17.854  0.00  0.00    +0.000 A 
ATOM     29  C   UNL     1       1.983   8.182  19.022  0.00  0.00    +0.000 A 
ATOM     30  C   UNL     1       2.096   7.134  19.926  0.00  0.00    +0.000 A 
ATOM     31  C   UNL     1       2.971   6.081  19.665  0.00  0.00    +0.000 A 
ATOM     32  F   UNL     1       3.093   5.147  20.616  0.00  0.00    +0.000 F 
ENDBRANCH  21  26
ENDBRANCH  19  21
ENDBRANCH  18  19
ENDBRANCH  17  18
ENDBRANCH   2  17
TORSDOF 8
ENDMDL
MODEL 5
REMARK VINA RESULT:      -7.9      1.377      2.477
REMARK  Name = 
REMARK  8 active torsions:
REMARK  status: ('A' for Active; 'I' for Inactive)
REMARK    1  A    between atoms: N_1  and  S_2
REMARK    2  A    between atoms: S_2  and  C_5
REMARK    3  A    between atoms: C_8  and  N_9
REMARK    4  A    between atoms: C_10  and  C_12
REMARK    5  A    between atoms: C_12  and  O_13
REMARK    6  A    between atoms: O_13  and  C_14
REMARK    7  A    between atoms: C_14  and  C_16
REMARK    8  A    between atoms: C_16  and  C_17
REMARK                            x       y       z     vdW  Elec       q    Type
REMARK                         _______ _______ _______ _____ _____    ______ ____
ROOT
ATOM      1  N   UNL     1       8.918   8.712  19.140  0.00  0.00    +0.000 N 
ATOM      2  C   UNL     1       8.084   8.041  18.258  0.00  0.00    +0.000 C 
ATOM      3  O   UNL     1       7.442   8.551  17.340  0.00  0.00    +0.000 OA
ATOM      4  H   UNL     1       9.314   8.172  19.900  0.00  0.00    +0.000 HD
ENDROOT
BRANCH   1   8
ATOM      5  C   UNL     1       9.763  12.848  19.037  0.00  0.00    +0.000 A 
ATOM      6  C   UNL     1       9.533  12.237  20.269  0.00  0.00    +0.000 A 
ATOM      7  C   UNL     1       9.241  10.874  20.313  0.00  0.00    +0.000 A 
ATOM      8  C   UNL     1       9.180  10.101  19.150  0.00  0.00    +0.000 A 
ATOM      9  C   UNL     1       9.404  10.736  17.912  0.00  0.00    +0.000 A 
ATOM     10  C   UNL     1       9.693  12.104  17.855  0.00  0.00    +0.000 A 
BRANCH   5  11
ATOM     11  S   UNL     1      10.222  14.552  18.984  0.00  0.00    +0.000 S 
ATOM     12  O   UNL     1       9.249  15.327  19.719  0.00  0.00    +0.000 OA
ATOM     13  O   UNL     1      10.633  14.893  17.639  0.00  0.00    +0.000 OA
BRANCH  11  14
ATOM     14  N   UNL     1      11.633  14.554  19.893  0.00  0.00    +0.000 NA
ATOM     15  H   UNL     1      11.426  14.863  20.846  0.00  0.00    +0.000 HD
ATOM     16  H   UNL     1      12.360  15.099  19.436  0.00  0.00    +0.000 HD
ENDBRANCH  11  14
ENDBRANCH   5  11
ENDBRANCH   1   8
BRANCH   2  17
ATOM     17  C   UNL     1       7.965   6.538  18.505  0.00  0.00    +0.000 C 
BRANCH  17  18
ATOM     18  O   UNL     1       6.592   6.155  18.592  0.00  0.00    +0.000 OA
BRANCH  18  19
ATOM     19  C   UNL     1       6.285   5.033  17.887  0.00  0.00    +0.000 C 
ATOM     20  O   UNL     1       7.062   4.490  17.108  0.00  0.00    +0.000 OA
BRANCH  19  21
ATOM     21  C   UNL     1       4.828   4.596  18.101  0.00  0.00    +0.000 C 
ATOM     22  C   UNL     1       4.393   3.780  16.850  0.00  0.00    +0.000 C 
ATOM     23  C   UNL     1       3.183   2.973  17.297  0.00  0.00    +0.000 C 
ATOM     24  C   UNL     1       3.422   2.689  18.773  0.00  0.00    +0.000 C 
ATOM     25  C   UNL     1       4.688   3.463  19.151  0.00  0.00    +0.000 C 
BRANCH  21  26
ATOM     26  C   UNL     1       3.998   5.855  18.392  0.00  0.00    +0.000 A 
ATOM     27  C   UNL     1       3.202   5.969  19.545  0.00  0.00    +0.000 A 
ATOM     28  C   UNL     1       2.341   7.058  19.733  0.00  0.00    +0.000 A 
ATOM     29  C   UNL     1       2.255   8.061  18.773  0.00  0.00    +0.000 A 
ATOM     30  C   UNL     1       3.030   7.974  17.625  0.00  0.00    +0.000 A 
ATOM     31  C   UNL     1       3.875   6.881  17.438  0.00  0.00    +0.000 A 
ATOM     32  F   UNL     1       4.531   6.817  16.272  0.00  0.00    +0.000 F 
ENDBRANCH  21  26
ENDBRANCH  19  21
ENDBRANCH  18  19
ENDBRANCH  17  18
ENDBRANCH   2  17
TORSDOF 8
ENDMDL
MODEL 6
REMARK VINA RESULT:      -7.8      6.243      8.005
REMARK  Name = 
REMARK  8 active torsions:
REMARK  status: ('A' for Active; 'I' for Inactive)
REMARK    1  A    between atoms: N_1  and  S_2
REMARK    2  A    between atoms: S_2  and  C_5
REMARK    3  A    between atoms: C_8  and  N_9
REMARK    4  A    between atoms: C_10  and  C_12
REMARK    5  A    between atoms: C_12  and  O_13
REMARK    6  A    between atoms: O_13  and  C_14
REMARK    7  A    between atoms: C_14  and  C_16
REMARK    8  A    between atoms: C_16  and  C_17
REMARK                            x       y       z     vdW  Elec       q    Type
REMARK                         _______ _______ _______ _____ _____    ______ ____
ROOT
ATOM      1  N   UNL     1       1.835   9.170  19.821  0.00  0.00    +0.000 N 
ATOM      2  C   UNL     1       1.751   8.887  18.466  0.00  0.00    +0.000 C 
ATOM      3  O   UNL     1       0.904   9.324  17.687  0.00  0.00    +0.000 OA
ATOM      4  H   UNL     1       2.535   8.669  20.353  0.00  0.00    +0.000 HD
ENDROOT
BRANCH   1   8
ATOM      5  C   UNL     1      -0.841  11.546  22.064  0.00  0.00    +0.000 A 
ATOM      6  C   UNL     1      -0.146  12.128  21.005  0.00  0.00    +0.000 A 
ATOM      7  C   UNL     1       0.749  11.356  20.266  0.00  0.00    +0.000 A 
ATOM      8  C   UNL     1       0.962  10.005  20.556  0.00  0.00    +0.000 A 
ATOM      9  C   UNL     1       0.262   9.434  21.636  0.00  0.00    +0.000 A 
ATOM     10  C   UNL     1      -0.636  10.201  22.389  0.00  0.00    +0.000 A 
BRANCH   5  11
ATOM     11  S   UNL     1      -2.041  12.495  22.944  0.00  0.00    +0.000 S 
ATOM     12  O   UNL     1      -1.376  13.576  23.635  0.00  0.00    +0.000 OA
ATOM     13  O   UNL     1      -2.964  11.599  23.607  0.00  0.00    +0.000 OA
BRANCH  11  14
ATOM     14  N   UNL     1      -2.917  13.186  21.690  0.00  0.00    +0.000 NA
ATOM     15  H   UNL     1      -2.363  13.159  20.830  0.00  0.00    +0.000 HD
ATOM     16  H   UNL     1      -3.239  14.118  21.939  0.00  0.00    +0.000 HD
ENDBRANCH  11  14
ENDBRANCH   5  11
ENDBRANCH   1   8
BRANCH   2  17
ATOM     17  C   UNL     1       2.815   7.922  17.945  0.00  0.00    +0.000 C 
BRANCH  17  18
ATOM     18  O   UNL     1       2.307   6.587  17.923  0.00  0.00    +0.000 OA
BRANCH  18  19
ATOM     19  C   UNL     1       2.782   5.800  18.926  0.00  0.00    +0.000 C 
ATOM     20  O   UNL     1       2.906   6.182  20.086  0.00  0.00    +0.000 OA
BRANCH  19  21
ATOM     21  C   UNL     1       3.242   4.427  18.414  0.00  0.00    +0.000 C 
ATOM     22  C   UNL     1       3.285   3.461  19.632  0.00  0.00    +0.000 C 
ATOM     23  C   UNL     1       3.249   2.060  19.037  0.00  0.00    +0.000 C 
ATOM     24  C   UNL     1       2.428   2.195  17.763  0.00  0.00    +0.000 C 
ATOM     25  C   UNL     1       2.144   3.691  17.600  0.00  0.00    +0.000 C 
BRANCH  21  26
ATOM     26  C   UNL     1       4.574   4.622  17.676  0.00  0.00    +0.000 A 
ATOM     27  C   UNL     1       4.707   4.355  16.302  0.00  0.00    +0.000 A 
ATOM     28  C   UNL     1       5.956   4.400  15.667  0.00  0.00    +0.000 A 
ATOM     29  C   UNL     1       7.102   4.714  16.390  0.00  0.00    +0.000 A 
ATOM     30  C   UNL     1       6.999   4.983  17.749  0.00  0.00    +0.000 A 
ATOM     31  C   UNL     1       5.755   4.923  18.377  0.00  0.00    +0.000 A 
ATOM     32  F   UNL     1       5.740   5.111  19.702  0.00  0.00    +0.000 F 
ENDBRANCH  21  26
ENDBRANCH  19  21
ENDBRANCH  18  19
ENDBRANCH  17  18
ENDBRANCH   2  17
TORSDOF 8
ENDMDL
MODEL 7
REMARK VINA RESULT:      -7.7      7.160      9.520
REMARK  Name = 
REMARK  8 active torsions:
REMARK  status: ('A' for Active; 'I' for Inactive)
REMARK    1  A    between atoms: N_1  and  S_2
REMARK    2  A    between atoms: S_2  and  C_5
REMARK    3  A    between atoms: C_8  and  N_9
REMARK    4  A    between atoms: C_10  and  C_12
REMARK    5  A    between atoms: C_12  and  O_13
REMARK    6  A    between atoms: O_13  and  C_14
REMARK    7  A    between atoms: C_14  and  C_16
REMARK    8  A    between atoms: C_16  and  C_17
REMARK                            x       y       z     vdW  Elec       q    Type
REMARK                         _______ _______ _______ _____ _____    ______ ____
ROOT
ATOM      1  N   UNL     1      -0.117   9.933  17.657  0.00  0.00    +0.000 N 
ATOM      2  C   UNL     1       0.801   9.559  18.628  0.00  0.00    +0.000 C 
ATOM      3  O   UNL     1       0.637   9.635  19.845  0.00  0.00    +0.000 OA
ATOM      4  H   UNL     1       0.191   9.894  16.694  0.00  0.00    +0.000 HD
ENDROOT
BRANCH   1   8
ATOM      5  C   UNL     1      -3.906  11.617  18.458  0.00  0.00    +0.000 A 
ATOM      6  C   UNL     1      -3.834  10.444  17.708  0.00  0.00    +0.000 A 
ATOM      7  C   UNL     1      -2.587   9.886  17.428  0.00  0.00    +0.000 A 
ATOM      8  C   UNL     1      -1.404  10.472  17.887  0.00  0.00    +0.000 A 
ATOM      9  C   UNL     1      -1.493  11.663  18.633  0.00  0.00    +0.000 A 
ATOM     10  C   UNL     1      -2.739  12.235  18.917  0.00  0.00    +0.000 A 
BRANCH   5  11
ATOM     11  S   UNL     1      -5.485  12.276  18.891  0.00  0.00    +0.000 S 
ATOM     12  O   UNL     1      -6.039  11.501  19.978  0.00  0.00    +0.000 OA
ATOM     13  O   UNL     1      -6.229  12.565  17.684  0.00  0.00    +0.000 OA
BRANCH  11  14
ATOM     14  N   UNL     1      -5.068  13.774  19.524  0.00  0.00    +0.000 NA
ATOM     15  H   UNL     1      -4.294  13.663  20.183  0.00  0.00    +0.000 HD
ATOM     16  H   UNL     1      -5.880  14.241  19.921  0.00  0.00    +0.000 HD
ENDBRANCH  11  14
ENDBRANCH   5  11
ENDBRANCH   1   8
BRANCH   2  17
ATOM     17  C   UNL     1       2.130   9.035  18.086  0.00  0.00    +0.000 C 
BRANCH  17  18
ATOM     18  O   UNL     1       2.137   7.606  18.084  0.00  0.00    +0.000 OA
BRANCH  18  19
ATOM     19  C   UNL     1       3.349   7.061  17.795  0.00  0.00    +0.000 C 
ATOM     20  O   UNL     1       4.189   7.612  17.090  0.00  0.00    +0.000 OA
BRANCH  19  21
ATOM     21  C   UNL     1       3.493   5.640  18.362  0.00  0.00    +0.000 C 
ATOM     22  C   UNL     1       3.016   5.675  19.842  0.00  0.00    +0.000 C 
ATOM     23  C   UNL     1       2.705   4.228  20.198  0.00  0.00    +0.000 C 
ATOM     24  C   UNL     1       2.228   3.596  18.898  0.00  0.00    +0.000 C 
ATOM     25  C   UNL     1       2.418   4.663  17.817  0.00  0.00    +0.000 C 
BRANCH  21  26
ATOM     26  C   UNL     1       4.945   5.193  18.145  0.00  0.00    +0.000 A 
ATOM     27  C   UNL     1       5.953   5.455  19.090  0.00  0.00    +0.000 A 
ATOM     28  C   UNL     1       7.298   5.170  18.822  0.00  0.00    +0.000 A 
ATOM     29  C   UNL     1       7.670   4.614  17.603  0.00  0.00    +0.000 A 
ATOM     30  C   UNL     1       6.696   4.343  16.651  0.00  0.00    +0.000 A 
ATOM     31  C   UNL     1       5.361   4.642  16.919  0.00  0.00    +0.000 A 
ATOM     32  F   UNL     1       4.485   4.434  15.927  0.00  0.00    +0.000 F 
ENDBRANCH  21  26
ENDBRANCH  19  21
ENDBRANCH  18  19
ENDBRANCH  17  18
ENDBRANCH   2  17
TORSDOF 8
ENDMDL
MODEL 8
REMARK VINA RESULT:      -7.7      7.140      9.261
REMARK  Name = 
REMARK  8 active torsions:
REMARK  status: ('A' for Active; 'I' for Inactive)
REMARK    1  A    between atoms: N_1  and  S_2
REMARK    2  A    between atoms: S_2  and  C_5
REMARK    3  A    between atoms: C_8  and  N_9
REMARK    4  A    between atoms: C_10  and  C_12
REMARK    5  A    between atoms: C_12  and  O_13
REMARK    6  A    between atoms: O_13  and  C_14
REMARK    7  A    between atoms: C_14  and  C_16
REMARK    8  A    between atoms: C_16  and  C_17
REMARK                            x       y       z     vdW  Elec       q    Type
REMARK                         _______ _______ _______ _____ _____    ______ ____
ROOT
ATOM      1  N   UNL     1       0.017   9.604  17.479  0.00  0.00    +0.000 N 
ATOM      2  C   UNL     1       1.075   9.793  18.355  0.00  0.00    +0.000 C 
ATOM      3  O   UNL     1       1.059  10.491  19.369  0.00  0.00    +0.000 OA
ATOM      4  H   UNL     1       0.205   9.070  16.640  0.00  0.00    +0.000 HD
ENDROOT
BRANCH   1   8
ATOM      5  C   UNL     1      -3.797  11.358  17.937  0.00  0.00    +0.000 A 
ATOM      6  C   UNL     1      -3.595  10.442  16.906  0.00  0.00    +0.000 A 
ATOM      7  C   UNL     1      -2.336   9.866  16.739  0.00  0.00    +0.000 A 
ATOM      8  C   UNL     1      -1.270  10.180  17.586  0.00  0.00    +0.000 A 
ATOM      9  C   UNL     1      -1.487  11.116  18.616  0.00  0.00    +0.000 A 
ATOM     10  C   UNL     1      -2.745  11.704  18.790  0.00  0.00    +0.000 A 
BRANCH   5  11
ATOM     11  S   UNL     1      -5.411  12.020  18.209  0.00  0.00    +0.000 S 
ATOM     12  O   UNL     1      -6.205  11.050  18.929  0.00  0.00    +0.000 OA
ATOM     13  O   UNL     1      -5.874  12.658  16.996  0.00  0.00    +0.000 OA
BRANCH  11  14
ATOM     14  N   UNL     1      -5.090  13.275  19.276  0.00  0.00    +0.000 NA
ATOM     15  H   UNL     1      -4.111  13.559  19.186  0.00  0.00    +0.000 HD
ATOM     16  H   UNL     1      -5.358  13.025  20.225  0.00  0.00    +0.000 HD
ENDBRANCH  11  14
ENDBRANCH   5  11
ENDBRANCH   1   8
BRANCH   2  17
ATOM     17  C   UNL     1       2.364   9.068  17.971  0.00  0.00    +0.000 C 
BRANCH  17  18
ATOM     18  O   UNL     1       2.145   7.656  17.926  0.00  0.00    +0.000 OA
BRANCH  18  19
ATOM     19  C   UNL     1       2.483   7.009  19.075  0.00  0.00    +0.000 C 
ATOM     20  O   UNL     1       2.242   7.448  20.195  0.00  0.00    +0.000 OA
BRANCH  19  21
ATOM     21  C   UNL     1       3.288   5.730  18.801  0.00  0.00    +0.000 C 
ATOM     22  C   UNL     1       3.688   5.739  17.298  0.00  0.00    +0.000 C 
ATOM     23  C   UNL     1       4.855   4.769  17.186  0.00  0.00    +0.000 C 
ATOM     24  C   UNL     1       5.578   4.867  18.522  0.00  0.00    +0.000 C 
ATOM     25  C   UNL     1       4.719   5.781  19.399  0.00  0.00    +0.000 C 
BRANCH  21  26
ATOM     26  C   UNL     1       2.439   4.534  19.254  0.00  0.00    +0.000 A 
ATOM     27  C   UNL     1       2.712   3.839  20.446  0.00  0.00    +0.000 A 
ATOM     28  C   UNL     1       2.023   2.665  20.780  0.00  0.00    +0.000 A 
ATOM     29  C   UNL     1       1.044   2.158  19.933  0.00  0.00    +0.000 A 
ATOM     30  C   UNL     1       0.754   2.825  18.750  0.00  0.00    +0.000 A 
ATOM     31  C   UNL     1       1.452   3.985  18.417  0.00  0.00    +0.000 A 
ATOM     32  F   UNL     1       1.182   4.530  17.224  0.00  0.00    +0.000 F 
ENDBRANCH  21  26
ENDBRANCH  19  21
ENDBRANCH  18  19
ENDBRANCH  17  18
ENDBRANCH   2  17
TORSDOF 8
ENDMDL
MODEL 9
REMARK VINA RESULT:      -7.6      6.986      9.368
REMARK  Name = 
REMARK  8 active torsions:
REMARK  status: ('A' for Active; 'I' for Inactive)
REMARK    1  A    between atoms: N_1  and  S_2
REMARK    2  A    between atoms: S_2  and  C_5
REMARK    3  A    between atoms: C_8  and  N_9
REMARK    4  A    between atoms: C_10  and  C_12
REMARK    5  A    between atoms: C_12  and  O_13
REMARK    6  A    between atoms: O_13  and  C_14
REMARK    7  A    between atoms: C_14  and  C_16
REMARK    8  A    between atoms: C_16  and  C_17
REMARK                            x       y       z     vdW  Elec       q    Type
REMARK                         _______ _______ _______ _____ _____    ______ ____
ROOT
ATOM      1  N   UNL     1       0.202   9.504  17.472  0.00  0.00    +0.000 N 
ATOM      2  C   UNL     1       1.114   9.300  18.497  0.00  0.00    +0.000 C 
ATOM      3  O   UNL     1       0.953   9.605  19.678  0.00  0.00    +0.000 OA
ATOM      4  H   UNL     1       0.507   9.280  16.533  0.00  0.00    +0.000 HD
ENDROOT
BRANCH   1   8
ATOM      5  C   UNL     1      -3.572  11.332  17.972  0.00  0.00    +0.000 A 
ATOM      6  C   UNL     1      -3.425  10.342  17.002  0.00  0.00    +0.000 A 
ATOM      7  C   UNL     1      -2.180   9.741  16.820  0.00  0.00    +0.000 A 
ATOM      8  C   UNL     1      -1.074  10.102  17.594  0.00  0.00    +0.000 A 
ATOM      9  C   UNL     1      -1.235  11.112  18.563  0.00  0.00    +0.000 A 
ATOM     10  C   UNL     1      -2.479  11.726  18.751  0.00  0.00    +0.000 A 
BRANCH   5  11
ATOM     11  S   UNL     1      -5.166  12.031  18.268  0.00  0.00    +0.000 S 
ATOM     12  O   UNL     1      -5.694  12.547  17.025  0.00  0.00    +0.000 OA
ATOM     13  O   UNL     1      -5.123  12.818  19.481  0.00  0.00    +0.000 OA
BRANCH  11  14
ATOM     14  N   UNL     1      -6.070  10.670  18.654  0.00  0.00    +0.000 NA
ATOM     15  H   UNL     1      -7.053  10.837  18.426  0.00  0.00    +0.000 HD
ATOM     16  H   UNL     1      -5.916  10.392  19.620  0.00  0.00    +0.000 HD
ENDBRANCH  11  14
ENDBRANCH   5  11
ENDBRANCH   1   8
BRANCH   2  17
ATOM     17  C   UNL     1       2.431   8.658  18.066  0.00  0.00    +0.000 C 
BRANCH  17  18
ATOM     18  O   UNL     1       2.250   7.260  17.833  0.00  0.00    +0.000 OA
BRANCH  18  19
ATOM     19  C   UNL     1       2.629   6.474  18.876  0.00  0.00    +0.000 C 
ATOM     20  O   UNL     1       2.713   6.876  20.032  0.00  0.00    +0.000 OA
BRANCH  19  21
ATOM     21  C   UNL     1       3.040   5.066  18.418  0.00  0.00    +0.000 C 
ATOM     22  C   UNL     1       3.014   4.139  19.667  0.00  0.00    +0.000 C 
ATOM     23  C   UNL     1       2.931   2.723  19.115  0.00  0.00    +0.000 C 
ATOM     24  C   UNL     1       2.145   2.851  17.819  0.00  0.00    +0.000 C 
ATOM     25  C   UNL     1       1.930   4.351  17.603  0.00  0.00    +0.000 C 
BRANCH  21  26
ATOM     26  C   UNL     1       4.395   5.180  17.705  0.00  0.00    +0.000 A 
ATOM     27  C   UNL     1       4.533   4.932  16.328  0.00  0.00    +0.000 A 
ATOM     28  C   UNL     1       5.792   4.900  15.714  0.00  0.00    +0.000 A 
ATOM     29  C   UNL     1       6.945   5.117  16.461  0.00  0.00    +0.000 A 
ATOM     30  C   UNL     1       6.838   5.365  17.823  0.00  0.00    +0.000 A 
ATOM     31  C   UNL     1       5.583   5.382  18.430  0.00  0.00    +0.000 A 
ATOM     32  F   UNL     1       5.558   5.544  19.759  0.00  0.00    +0.000 F 
ENDBRANCH  21  26
ENDBRANCH  19  21
ENDBRANCH  18  19
ENDBRANCH  17  18
ENDBRANCH   2  17
TORSDOF 8
ENDMDL
