MODEL 1
REMARK VINA RESULT:      -7.8      0.000      0.000
REMARK  Name = 
REMARK  6 active torsions:
REMARK  status: ('A' for Active; 'I' for Inactive)
REMARK    1  A    between atoms: O5*_1  and  C5*_2
REMARK    2  A    between atoms: C5*_2  and  C4*_3
REMARK    3  A    between atoms: C1*_5  and  N_6
REMARK    4  A    between atoms: C_10  and  C_11
REMARK    5  A    between atoms: C2*_23  and  O2*_24
REMARK    6  A    between atoms: C3*_25  and  O3*_26
REMARK                            x       y       z     vdW  Elec       q    Type
REMARK                         _______ _______ _______ _____ _____    ______ ____
ROOT
ATOM      1  N   UNL     1       1.323   8.968  19.298  0.00  0.00    +0.000 N 
ATOM      2  C   UNL     1       1.950   9.338  18.137  0.00  0.00    +0.000 A 
ATOM      3  N   UNL     1       2.806   8.429  17.731  0.00  0.00    +0.000 NA
ATOM      4  C   UNL     1       2.724   7.415  18.662  0.00  0.00    +0.000 A 
ATOM      5  C   UNL     1       3.354   6.165  18.770  0.00  0.00    +0.000 A 
ATOM      6  N   UNL     1       3.021   5.357  19.819  0.00  0.00    +0.000 NA
ATOM      7  C   UNL     1       2.121   5.813  20.716  0.00  0.00    +0.000 A 
ATOM      8  N   UNL     1       1.465   6.990  20.717  0.00  0.00    +0.000 NA
ATOM      9  C   UNL     1       1.813   7.741  19.656  0.00  0.00    +0.000 A 
ENDROOT
BRANCH   5  10
ATOM     10  C   UNL     1       4.327   5.675  17.784  0.00  0.00    +0.000 A 
ATOM     11  C   UNL     1       4.072   4.540  16.986  0.00  0.00    +0.000 A 
ATOM     12  C   UNL     1       5.012   4.057  16.072  0.00  0.00    +0.000 A 
ATOM     13  C   UNL     1       6.227   4.710  15.936  0.00  0.00    +0.000 A 
ATOM     14  F   UNL     1       7.133   4.240  15.067  0.00  0.00    +0.000 F 
ATOM     15  C   UNL     1       6.501   5.839  16.695  0.00  0.00    +0.000 A 
ATOM     16  F   UNL     1       7.677   6.467  16.564  0.00  0.00    +0.000 F 
ATOM     17  C   UNL     1       5.564   6.325  17.607  0.00  0.00    +0.000 A 
ENDBRANCH   5  10
BRANCH   1  20
ATOM     18  C4* UNL     1      -1.009  11.615  19.446  0.00  0.00    +0.000 C 
ATOM     19  O4* UNL     1      -0.569  10.335  18.942  0.00  0.00    +0.000 OA
ATOM     20  C1* UNL     1       0.275   9.733  19.939  0.00  0.00    +0.000 C 
ATOM     21  C2* UNL     1       0.768  10.833  20.870  0.00  0.00    +0.000 C 
ATOM     22  C3* UNL     1      -0.405  11.799  20.846  0.00  0.00    +0.000 C 
BRANCH  21  23
ATOM     23  O2* UNL     1       1.020  10.344  22.190  0.00  0.00    +0.000 OA
ATOM     24  H2* UNL     1       0.332   9.662  22.356  0.00  0.00    +0.000 HD
ENDBRANCH  21  23
BRANCH  22  25
ATOM     25  O3* UNL     1      -1.309  11.387  21.894  0.00  0.00    +0.000 OA
ATOM     26  H3* UNL     1      -1.434  10.422  21.851  0.00  0.00    +0.000 HD
ENDBRANCH  22  25
BRANCH  18  27
ATOM     27  C5* UNL     1      -0.620  12.712  18.454  0.00  0.00    +0.000 C 
BRANCH  27  28
ATOM     28  O5* UNL     1      -1.343  12.551  17.241  0.00  0.00    +0.000 OA
ATOM     29  H5* UNL     1      -0.755  12.822  16.514  0.00  0.00    +0.000 HD
ENDBRANCH  27  28
ENDBRANCH  18  27
ENDBRANCH   1  20
TORSDOF 6
ENDMDL
MODEL 2
REMARK VINA RESULT:      -7.7      5.096      8.536
REMARK  Name = 
REMARK  6 active torsions:
REMARK  status: ('A' for Active; 'I' for Inactive)
REMARK    1  A    between atoms: O5*_1  and  C5*_2
REMARK    2  A    between atoms: C5*_2  and  C4*_3
REMARK    3  A    between atoms: C1*_5  and  N_6
REMARK    4  A    between atoms: C_10  and  C_11
REMARK    5  A    between atoms: C2*_23  and  O2*_24
REMARK    6  A    between atoms: C3*_25  and  O3*_26
REMARK                            x       y       z     vdW  Elec       q    Type
REMARK                         _______ _______ _______ _____ _____    ______ ____
ROOT
ATOM      1  N   UNL     1       2.561   6.311  19.341  0.00  0.00    +0.000 N 
ATOM      2  C   UNL     1       1.965   6.081  20.554  0.00  0.00    +0.000 A 
ATOM      3  N   UNL     1       1.324   7.139  20.993  0.00  0.00    +0.000 NA
ATOM      4  C   UNL     1       1.500   8.098  20.017  0.00  0.00    +0.000 A 
ATOM      5  C   UNL     1       1.037   9.417  19.880  0.00  0.00    +0.000 A 
ATOM      6  N   UNL     1       1.367  10.108  18.749  0.00  0.00    +0.000 NA
ATOM      7  C   UNL     1       2.144   9.496  17.831  0.00  0.00    +0.000 A 
ATOM      8  N   UNL     1       2.649   8.247  17.862  0.00  0.00    +0.000 NA
ATOM      9  C   UNL     1       2.283   7.603  18.984  0.00  0.00    +0.000 A 
ENDROOT
BRANCH   5  10
ATOM     10  C   UNL     1       0.184  10.070  20.883  0.00  0.00    +0.000 A 
ATOM     11  C   UNL     1       0.129   9.621  22.219  0.00  0.00    +0.000 A 
ATOM     12  C   UNL     1      -0.708  10.223  23.163  0.00  0.00    +0.000 A 
ATOM     13  C   UNL     1      -1.502  11.294  22.784  0.00  0.00    +0.000 A 
ATOM     14  F   UNL     1      -2.313  11.864  23.686  0.00  0.00    +0.000 F 
ATOM     15  C   UNL     1      -1.458  11.768  21.480  0.00  0.00    +0.000 A 
ATOM     16  F   UNL     1      -2.228  12.802  21.115  0.00  0.00    +0.000 F 
ATOM     17  C   UNL     1      -0.622  11.171  20.537  0.00  0.00    +0.000 A 
ENDBRANCH   5  10
BRANCH   1  20
ATOM     18  C4* UNL     1       3.942   3.095  18.876  0.00  0.00    +0.000 C 
ATOM     19  O4* UNL     1       2.816   3.996  18.954  0.00  0.00    +0.000 OA
ATOM     20  C1* UNL     1       3.271   5.307  18.577  0.00  0.00    +0.000 C 
ATOM     21  C2* UNL     1       4.786   5.345  18.729  0.00  0.00    +0.000 C 
ATOM     22  C3* UNL     1       5.159   3.907  18.408  0.00  0.00    +0.000 C 
BRANCH  21  23
ATOM     23  O2* UNL     1       5.393   6.262  17.814  0.00  0.00    +0.000 OA
ATOM     24  H2* UNL     1       4.782   6.313  17.046  0.00  0.00    +0.000 HD
ENDBRANCH  21  23
BRANCH  22  25
ATOM     25  O3* UNL     1       5.354   3.832  16.979  0.00  0.00    +0.000 OA
ATOM     26  H3* UNL     1       5.802   2.997  16.759  0.00  0.00    +0.000 HD
ENDBRANCH  22  25
BRANCH  18  27
ATOM     27  C5* UNL     1       4.138   2.408  20.228  0.00  0.00    +0.000 C 
BRANCH  27  28
ATOM     28  O5* UNL     1       5.267   1.546  20.178  0.00  0.00    +0.000 OA
ATOM     29  H5* UNL     1       6.061   2.108  20.153  0.00  0.00    +0.000 HD
ENDBRANCH  27  28
ENDBRANCH  18  27
ENDBRANCH   1  20
TORSDOF 6
ENDMDL
MODEL 3
REMARK VINA RESULT:      -7.6      5.056      8.416
REMARK  Name = 
REMARK  6 active torsions:
REMARK  status: ('A' for Active; 'I' for Inactive)
REMARK    1  A    between atoms: O5*_1  and  C5*_2
REMARK    2  A    between atoms: C5*_2  and  C4*_3
REMARK    3  A    between atoms: C1*_5  and  N_6
REMARK    4  A    between atoms: C_10  and  C_11
REMARK    5  A    between atoms: C2*_23  and  O2*_24
REMARK    6  A    between atoms: C3*_25  and  O3*_26
REMARK                            x       y       z     vdW  Elec       q    Type
REMARK                         _______ _______ _______ _____ _____    ______ ____
ROOT
ATOM      1  N   UNL     1       2.617   6.574  19.193  0.00  0.00    +0.000 N 
ATOM      2  C   UNL     1       2.063   6.290  20.414  0.00  0.00    +0.000 A 
ATOM      3  N   UNL     1       1.387   7.308  20.894  0.00  0.00    +0.000 NA
ATOM      4  C   UNL     1       1.496   8.297  19.938  0.00  0.00    +0.000 A 
ATOM      5  C   UNL     1       0.972   9.596  19.844  0.00  0.00    +0.000 A 
ATOM      6  N   UNL     1       1.242  10.327  18.723  0.00  0.00    +0.000 NA
ATOM      7  C   UNL     1       2.022   9.773  17.771  0.00  0.00    +0.000 A 
ATOM      8  N   UNL     1       2.582   8.547  17.760  0.00  0.00    +0.000 NA
ATOM      9  C   UNL     1       2.273   7.861  18.874  0.00  0.00    +0.000 A 
ENDROOT
BRANCH   5  10
ATOM     10  C   UNL     1       0.117  10.187  20.883  0.00  0.00    +0.000 A 
ATOM     11  C   UNL     1       0.078   9.674  22.197  0.00  0.00    +0.000 A 
ATOM     12  C   UNL     1      -0.761  10.216  23.174  0.00  0.00    +0.000 A 
ATOM     13  C   UNL     1      -1.574  11.292  22.853  0.00  0.00    +0.000 A 
ATOM     14  F   UNL     1      -2.386  11.805  23.787  0.00  0.00    +0.000 F 
ATOM     15  C   UNL     1      -1.546  11.829  21.573  0.00  0.00    +0.000 A 
ATOM     16  F   UNL     1      -2.334  12.867  21.264  0.00  0.00    +0.000 F 
ATOM     17  C   UNL     1      -0.708  11.291  20.597  0.00  0.00    +0.000 A 
ENDBRANCH   5  10
BRANCH   1  20
ATOM     18  C4* UNL     1       2.995   3.485  17.527  0.00  0.00    +0.000 C 
ATOM     19  O4* UNL     1       2.432   4.810  17.636  0.00  0.00    +0.000 OA
ATOM     20  C1* UNL     1       3.351   5.622  18.387  0.00  0.00    +0.000 C 
ATOM     21  C2* UNL     1       4.267   4.694  19.175  0.00  0.00    +0.000 C 
ATOM     22  C3* UNL     1       4.350   3.492  18.248  0.00  0.00    +0.000 C 
BRANCH  21  23
ATOM     23  O2* UNL     1       5.554   5.277  19.398  0.00  0.00    +0.000 OA
ATOM     24  H2* UNL     1       6.113   4.554  19.761  0.00  0.00    +0.000 HD
ENDBRANCH  21  23
BRANCH  22  25
ATOM     25  O3* UNL     1       5.452   3.733  17.346  0.00  0.00    +0.000 OA
ATOM     26  H3* UNL     1       5.331   3.200  16.541  0.00  0.00    +0.000 HD
ENDBRANCH  22  25
BRANCH  18  27
ATOM     27  C5* UNL     1       2.001   2.464  18.084  0.00  0.00    +0.000 C 
BRANCH  27  28
ATOM     28  O5* UNL     1       2.699   1.354  18.633  0.00  0.00    +0.000 OA
ATOM     29  H5* UNL     1       3.525   1.694  19.023  0.00  0.00    +0.000 HD
ENDBRANCH  27  28
ENDBRANCH  18  27
ENDBRANCH   1  20
TORSDOF 6
ENDMDL
MODEL 4
REMARK VINA RESULT:      -7.5      1.301      2.384
REMARK  Name = 
REMARK  6 active torsions:
REMARK  status: ('A' for Active; 'I' for Inactive)
REMARK    1  A    between atoms: O5*_1  and  C5*_2
REMARK    2  A    between atoms: C5*_2  and  C4*_3
REMARK    3  A    between atoms: C1*_5  and  N_6
REMARK    4  A    between atoms: C_10  and  C_11
REMARK    5  A    between atoms: C2*_23  and  O2*_24
REMARK    6  A    between atoms: C3*_25  and  O3*_26
REMARK                            x       y       z     vdW  Elec       q    Type
REMARK                         _______ _______ _______ _____ _____    ______ ____
ROOT
ATOM      1  N   UNL     1       1.243  10.056  19.105  0.00  0.00    +0.000 N 
ATOM      2  C   UNL     1       1.855  10.073  17.878  0.00  0.00    +0.000 A 
ATOM      3  N   UNL     1       2.449   8.934  17.611  0.00  0.00    +0.000 NA
ATOM      4  C   UNL     1       2.204   8.133  18.707  0.00  0.00    +0.000 A 
ATOM      5  C   UNL     1       2.537   6.803  19.012  0.00  0.00    +0.000 A 
ATOM      6  N   UNL     1       2.104   6.279  20.195  0.00  0.00    +0.000 NA
ATOM      7  C   UNL     1       1.397   7.074  21.026  0.00  0.00    +0.000 A 
ATOM      8  N   UNL     1       1.030   8.358  20.842  0.00  0.00    +0.000 NA
ATOM      9  C   UNL     1       1.464   8.822  19.657  0.00  0.00    +0.000 A 
ENDROOT
BRANCH   5  10
ATOM     10  C   UNL     1       3.300   5.943  18.096  0.00  0.00    +0.000 A 
ATOM     11  C   UNL     1       2.914   4.613  17.830  0.00  0.00    +0.000 A 
ATOM     12  C   UNL     1       3.660   3.786  16.984  0.00  0.00    +0.000 A 
ATOM     13  C   UNL     1       4.806   4.283  16.383  0.00  0.00    +0.000 A 
ATOM     14  F   UNL     1       5.527   3.488  15.581  0.00  0.00    +0.000 F 
ATOM     15  C   UNL     1       5.201   5.594  16.613  0.00  0.00    +0.000 A 
ATOM     16  F   UNL     1       6.311   6.072  16.033  0.00  0.00    +0.000 F 
ATOM     17  C   UNL     1       4.459   6.421  17.455  0.00  0.00    +0.000 A 
ENDBRANCH   5  10
BRANCH   1  20
ATOM     18  C4* UNL     1      -0.488  11.723  21.690  0.00  0.00    +0.000 C 
ATOM     19  O4* UNL     1       0.732  11.316  21.034  0.00  0.00    +0.000 OA
ATOM     20  C1* UNL     1       0.446  11.141  19.636  0.00  0.00    +0.000 C 
ATOM     21  C2* UNL     1      -1.058  10.962  19.479  0.00  0.00    +0.000 C 
ATOM     22  C3* UNL     1      -1.586  11.816  20.620  0.00  0.00    +0.000 C 
BRANCH  21  23
ATOM     23  O2* UNL     1      -1.524  11.434  18.211  0.00  0.00    +0.000 OA
ATOM     24  H2* UNL     1      -0.852  11.141  17.556  0.00  0.00    +0.000 HD
ENDBRANCH  21  23
BRANCH  22  25
ATOM     25  O3* UNL     1      -1.742  13.155  20.106  0.00  0.00    +0.000 OA
ATOM     26  H3* UNL     1      -1.906  13.115  19.147  0.00  0.00    +0.000 HD
ENDBRANCH  22  25
BRANCH  18  27
ATOM     27  C5* UNL     1      -0.806  10.747  22.823  0.00  0.00    +0.000 C 
BRANCH  27  28
ATOM     28  O5* UNL     1       0.371  10.051  23.212  0.00  0.00    +0.000 OA
ATOM     29  H5* UNL     1       0.155   9.542  24.014  0.00  0.00    +0.000 HD
ENDBRANCH  27  28
ENDBRANCH  18  27
ENDBRANCH   1  20
TORSDOF 6
ENDMDL
MODEL 5
REMARK VINA RESULT:      -7.4      1.660      2.922
REMARK  Name = 
REMARK  6 active torsions:
REMARK  status: ('A' for Active; 'I' for Inactive)
REMARK    1  A    between atoms: O5*_1  and  C5*_2
REMARK    2  A    between atoms: C5*_2  and  C4*_3
REMARK    3  A    between atoms: C1*_5  and  N_6
REMARK    4  A    between atoms: C_10  and  C_11
REMARK    5  A    between atoms: C2*_23  and  O2*_24
REMARK    6  A    between atoms: C3*_25  and  O3*_26
REMARK                            x       y       z     vdW  Elec       q    Type
REMARK                         _______ _______ _______ _____ _____    ______ ____
ROOT
ATOM      1  N   UNL     1       1.025  10.369  19.028  0.00  0.00    +0.000 N 
ATOM      2  C   UNL     1       1.631  10.292  17.801  0.00  0.00    +0.000 A 
ATOM      3  N   UNL     1       2.227   9.137  17.620  0.00  0.00    +0.000 NA
ATOM      4  C   UNL     1       1.988   8.423  18.776  0.00  0.00    +0.000 A 
ATOM      5  C   UNL     1       2.326   7.122  19.182  0.00  0.00    +0.000 A 
ATOM      6  N   UNL     1       1.898   6.690  20.405  0.00  0.00    +0.000 NA
ATOM      7  C   UNL     1       1.193   7.546  21.174  0.00  0.00    +0.000 A 
ATOM      8  N   UNL     1       0.822   8.811  20.893  0.00  0.00    +0.000 NA
ATOM      9  C   UNL     1       1.250   9.183  19.673  0.00  0.00    +0.000 A 
ENDROOT
BRANCH   5  10
ATOM     10  C   UNL     1       3.087   6.195  18.333  0.00  0.00    +0.000 A 
ATOM     11  C   UNL     1       4.312   6.565  17.739  0.00  0.00    +0.000 A 
ATOM     12  C   UNL     1       5.018   5.693  16.904  0.00  0.00    +0.000 A 
ATOM     13  C   UNL     1       4.509   4.428  16.656  0.00  0.00    +0.000 A 
ATOM     14  F   UNL     1       5.180   3.596  15.847  0.00  0.00    +0.000 F 
ATOM     15  C   UNL     1       3.314   4.030  17.239  0.00  0.00    +0.000 A 
ATOM     16  F   UNL     1       2.823   2.807  16.995  0.00  0.00    +0.000 F 
ATOM     17  C   UNL     1       2.609   4.896  18.074  0.00  0.00    +0.000 A 
ENDBRANCH   5  10
BRANCH   1  20
ATOM     18  C4* UNL     1      -0.758  12.194  21.468  0.00  0.00    +0.000 C 
ATOM     19  O4* UNL     1       0.475  11.738  20.871  0.00  0.00    +0.000 OA
ATOM     20  C1* UNL     1       0.227  11.491  19.476  0.00  0.00    +0.000 C 
ATOM     21  C2* UNL     1      -1.275  11.320  19.285  0.00  0.00    +0.000 C 
ATOM     22  C3* UNL     1      -1.823  12.241  20.363  0.00  0.00    +0.000 C 
BRANCH  21  23
ATOM     23  O2* UNL     1      -1.697  11.728  17.981  0.00  0.00    +0.000 OA
ATOM     24  H2* UNL     1      -2.405  12.394  18.127  0.00  0.00    +0.000 HD
ENDBRANCH  21  23
BRANCH  22  25
ATOM     25  O3* UNL     1      -1.947  13.552  19.772  0.00  0.00    +0.000 OA
ATOM     26  H3* UNL     1      -2.475  13.490  18.957  0.00  0.00    +0.000 HD
ENDBRANCH  22  25
BRANCH  18  27
ATOM     27  C5* UNL     1      -1.121  11.284  22.642  0.00  0.00    +0.000 C 
BRANCH  27  28
ATOM     28  O5* UNL     1       0.025  10.560  23.070  0.00  0.00    +0.000 OA
ATOM     29  H5* UNL     1      -0.195  10.147  23.925  0.00  0.00    +0.000 HD
ENDBRANCH  27  28
ENDBRANCH  18  27
ENDBRANCH   1  20
TORSDOF 6
ENDMDL
MODEL 6
REMARK VINA RESULT:      -7.4      0.647      1.235
REMARK  Name = 
REMARK  6 active torsions:
REMARK  status: ('A' for Active; 'I' for Inactive)
REMARK    1  A    between atoms: O5*_1  and  C5*_2
REMARK    2  A    between atoms: C5*_2  and  C4*_3
REMARK    3  A    between atoms: C1*_5  and  N_6
REMARK    4  A    between atoms: C_10  and  C_11
REMARK    5  A    between atoms: C2*_23  and  O2*_24
REMARK    6  A    between atoms: C3*_25  and  O3*_26
REMARK                            x       y       z     vdW  Elec       q    Type
REMARK                         _______ _______ _______ _____ _____    ______ ____
ROOT
ATOM      1  N   UNL     1       1.474   8.804  19.349  0.00  0.00    +0.000 N 
ATOM      2  C   UNL     1       2.177   9.196  18.240  0.00  0.00    +0.000 A 
ATOM      3  N   UNL     1       3.066   8.299  17.881  0.00  0.00    +0.000 NA
ATOM      4  C   UNL     1       2.929   7.271  18.790  0.00  0.00    +0.000 A 
ATOM      5  C   UNL     1       3.561   6.024  18.924  0.00  0.00    +0.000 A 
ATOM      6  N   UNL     1       3.163   5.199  19.936  0.00  0.00    +0.000 NA
ATOM      7  C   UNL     1       2.200   5.635  20.775  0.00  0.00    +0.000 A 
ATOM      8  N   UNL     1       1.535   6.807  20.747  0.00  0.00    +0.000 NA
ATOM      9  C   UNL     1       1.949   7.576  19.724  0.00  0.00    +0.000 A 
ENDROOT
BRANCH   5  10
ATOM     10  C   UNL     1       4.603   5.557  18.000  0.00  0.00    +0.000 A 
ATOM     11  C   UNL     1       5.973   5.611  18.333  0.00  0.00    +0.000 A 
ATOM     12  C   UNL     1       6.964   5.196  17.439  0.00  0.00    +0.000 A 
ATOM     13  C   UNL     1       6.598   4.711  16.193  0.00  0.00    +0.000 A 
ATOM     14  F   UNL     1       7.549   4.324  15.332  0.00  0.00    +0.000 F 
ATOM     15  C   UNL     1       5.258   4.631  15.843  0.00  0.00    +0.000 A 
ATOM     16  F   UNL     1       4.906   4.164  14.637  0.00  0.00    +0.000 F 
ATOM     17  C   UNL     1       4.266   5.042  16.733  0.00  0.00    +0.000 A 
ENDBRANCH   5  10
BRANCH   1  20
ATOM     18  C4* UNL     1      -0.902  11.415  19.362  0.00  0.00    +0.000 C 
ATOM     19  O4* UNL     1      -0.413  10.143  18.884  0.00  0.00    +0.000 OA
ATOM     20  C1* UNL     1       0.378   9.552  19.928  0.00  0.00    +0.000 C 
ATOM     21  C2* UNL     1       0.798  10.657  20.888  0.00  0.00    +0.000 C 
ATOM     22  C3* UNL     1      -0.386  11.605  20.796  0.00  0.00    +0.000 C 
BRANCH  21  23
ATOM     23  O2* UNL     1       0.978  10.169  22.221  0.00  0.00    +0.000 OA
ATOM     24  H2* UNL     1       1.764  10.642  22.573  0.00  0.00    +0.000 HD
ENDBRANCH  21  23
BRANCH  22  25
ATOM     25  O3* UNL     1      -1.345  11.177  21.787  0.00  0.00    +0.000 OA
ATOM     26  H3* UNL     1      -0.884  11.005  22.627  0.00  0.00    +0.000 HD
ENDBRANCH  22  25
BRANCH  18  27
ATOM     27  C5* UNL     1      -0.471  12.520  18.397  0.00  0.00    +0.000 C 
BRANCH  27  28
ATOM     28  O5* UNL     1      -1.321  12.531  17.257  0.00  0.00    +0.000 OA
ATOM     29  H5* UNL     1      -1.018  11.822  16.662  0.00  0.00    +0.000 HD
ENDBRANCH  27  28
ENDBRANCH  18  27
ENDBRANCH   1  20
TORSDOF 6
ENDMDL
MODEL 7
REMARK VINA RESULT:      -7.4      0.916      1.353
REMARK  Name = 
REMARK  6 active torsions:
REMARK  status: ('A' for Active; 'I' for Inactive)
REMARK    1  A    between atoms: O5*_1  and  C5*_2
REMARK    2  A    between atoms: C5*_2  and  C4*_3
REMARK    3  A    between atoms: C1*_5  and  N_6
REMARK    4  A    between atoms: C_10  and  C_11
REMARK    5  A    between atoms: C2*_23  and  O2*_24
REMARK    6  A    between atoms: C3*_25  and  O3*_26
REMARK                            x       y       z     vdW  Elec       q    Type
REMARK                         _______ _______ _______ _____ _____    ______ ____
ROOT
ATOM      1  N   UNL     1       1.046   9.308  19.247  0.00  0.00    +0.000 N 
ATOM      2  C   UNL     1       1.512   9.638  18.001  0.00  0.00    +0.000 A 
ATOM      3  N   UNL     1       2.344   8.736  17.534  0.00  0.00    +0.000 NA
ATOM      4  C   UNL     1       2.415   7.769  18.514  0.00  0.00    +0.000 A 
ATOM      5  C   UNL     1       3.099   6.546  18.601  0.00  0.00    +0.000 A 
ATOM      6  N   UNL     1       2.928   5.782  19.720  0.00  0.00    +0.000 NA
ATOM      7  C   UNL     1       2.128   6.255  20.700  0.00  0.00    +0.000 A 
ATOM      8  N   UNL     1       1.435   7.410  20.728  0.00  0.00    +0.000 NA
ATOM      9  C   UNL     1       1.621   8.117  19.598  0.00  0.00    +0.000 A 
ENDROOT
BRANCH   5  10
ATOM     10  C   UNL     1       3.961   6.037  17.525  0.00  0.00    +0.000 A 
ATOM     11  C   UNL     1       4.578   6.900  16.595  0.00  0.00    +0.000 A 
ATOM     12  C   UNL     1       5.370   6.411  15.552  0.00  0.00    +0.000 A 
ATOM     13  C   UNL     1       5.564   5.044  15.427  0.00  0.00    +0.000 A 
ATOM     14  F   UNL     1       6.314   4.575  14.420  0.00  0.00    +0.000 F 
ATOM     15  C   UNL     1       4.983   4.172  16.336  0.00  0.00    +0.000 A 
ATOM     16  F   UNL     1       5.169   2.851  16.213  0.00  0.00    +0.000 F 
ATOM     17  C   UNL     1       4.194   4.656  17.379  0.00  0.00    +0.000 A 
ENDBRANCH   5  10
BRANCH   1  20
ATOM     18  C4* UNL     1      -1.103  12.072  19.694  0.00  0.00    +0.000 C 
ATOM     19  O4* UNL     1      -0.754  10.823  19.059  0.00  0.00    +0.000 OA
ATOM     20  C1* UNL     1       0.058  10.072  19.978  0.00  0.00    +0.000 C 
ATOM     21  C2* UNL     1       0.632  11.040  21.004  0.00  0.00    +0.000 C 
ATOM     22  C3* UNL     1      -0.475  12.077  21.095  0.00  0.00    +0.000 C 
BRANCH  21  23
ATOM     23  O2* UNL     1       0.864  10.407  22.266  0.00  0.00    +0.000 OA
ATOM     24  H2* UNL     1      -0.011  10.069  22.558  0.00  0.00    +0.000 HD
ENDBRANCH  21  23
BRANCH  22  25
ATOM     25  O3* UNL     1      -1.394  11.623  22.112  0.00  0.00    +0.000 OA
ATOM     26  H3* UNL     1      -2.302  11.859  21.853  0.00  0.00    +0.000 HD
ENDBRANCH  22  25
BRANCH  18  27
ATOM     27  C5* UNL     1      -0.653  13.235  18.808  0.00  0.00    +0.000 C 
BRANCH  27  28
ATOM     28  O5* UNL     1      -0.957  12.958  17.447  0.00  0.00    +0.000 OA
ATOM     29  H5* UNL     1      -1.928  12.969  17.359  0.00  0.00    +0.000 HD
ENDBRANCH  27  28
ENDBRANCH  18  27
ENDBRANCH   1  20
TORSDOF 6
ENDMDL
MODEL 8
REMARK VINA RESULT:      -7.4      1.218      1.347
REMARK  Name = 
REMARK  6 active torsions:
REMARK  status: ('A' for Active; 'I' for Inactive)
REMARK    1  A    between atoms: O5*_1  and  C5*_2
REMARK    2  A    between atoms: C5*_2  and  C4*_3
REMARK    3  A    between atoms: C1*_5  and  N_6
REMARK    4  A    between atoms: C_10  and  C_11
REMARK    5  A    between atoms: C2*_23  and  O2*_24
REMARK    6  A    between atoms: C3*_25  and  O3*_26
REMARK                            x       y       z     vdW  Elec       q    Type
REMARK                         _______ _______ _______ _____ _____    ______ ____
ROOT
ATOM      1  N   UNL     1       1.280   9.635  19.035  0.00  0.00    +0.000 N 
ATOM      2  C   UNL     1       1.885   9.718  17.808  0.00  0.00    +0.000 A 
ATOM      3  N   UNL     1       2.568   8.633  17.524  0.00  0.00    +0.000 NA
ATOM      4  C   UNL     1       2.391   7.800  18.609  0.00  0.00    +0.000 A 
ATOM      5  C   UNL     1       2.831   6.498  18.896  0.00  0.00    +0.000 A 
ATOM      6  N   UNL     1       2.443   5.924  20.072  0.00  0.00    +0.000 NA
ATOM      7  C   UNL     1       1.677   6.649  20.915  0.00  0.00    +0.000 A 
ATOM      8  N   UNL     1       1.207   7.901  20.749  0.00  0.00    +0.000 NA
ATOM      9  C   UNL     1       1.600   8.415  19.570  0.00  0.00    +0.000 A 
ENDROOT
BRANCH   5  10
ATOM     10  C   UNL     1       3.658   5.715  17.967  0.00  0.00    +0.000 A 
ATOM     11  C   UNL     1       3.292   4.414  17.561  0.00  0.00    +0.000 A 
ATOM     12  C   UNL     1       4.097   3.658  16.703  0.00  0.00    +0.000 A 
ATOM     13  C   UNL     1       5.284   4.197  16.232  0.00  0.00    +0.000 A 
ATOM     14  F   UNL     1       6.061   3.469  15.419  0.00  0.00    +0.000 F 
ATOM     15  C   UNL     1       5.662   5.481  16.602  0.00  0.00    +0.000 A 
ATOM     16  F   UNL     1       6.811   5.999  16.148  0.00  0.00    +0.000 F 
ATOM     17  C   UNL     1       4.860   6.238  17.455  0.00  0.00    +0.000 A 
ENDBRANCH   5  10
BRANCH   1  20
ATOM     18  C4* UNL     1      -1.725  11.485  19.121  0.00  0.00    +0.000 C 
ATOM     19  O4* UNL     1      -0.971  10.275  19.347  0.00  0.00    +0.000 OA
ATOM     20  C1* UNL     1       0.399  10.645  19.581  0.00  0.00    +0.000 C 
ATOM     21  C2* UNL     1       0.613  12.046  19.023  0.00  0.00    +0.000 C 
ATOM     22  C3* UNL     1      -0.756  12.670  19.237  0.00  0.00    +0.000 C 
BRANCH  21  23
ATOM     23  O2* UNL     1       1.631  12.755  19.735  0.00  0.00    +0.000 OA
ATOM     24  H2* UNL     1       1.158  13.301  20.400  0.00  0.00    +0.000 HD
ENDBRANCH  21  23
BRANCH  22  25
ATOM     25  O3* UNL     1      -0.752  13.250  20.559  0.00  0.00    +0.000 OA
ATOM     26  H3* UNL     1      -0.272  12.661  21.167  0.00  0.00    +0.000 HD
ENDBRANCH  22  25
BRANCH  18  27
ATOM     27  C5* UNL     1      -2.435  11.394  17.769  0.00  0.00    +0.000 C 
BRANCH  27  28
ATOM     28  O5* UNL     1      -1.790  12.234  16.821  0.00  0.00    +0.000 OA
ATOM     29  H5* UNL     1      -2.449  12.878  16.507  0.00  0.00    +0.000 HD
ENDBRANCH  27  28
ENDBRANCH  18  27
ENDBRANCH   1  20
TORSDOF 6
ENDMDL
MODEL 9
REMARK VINA RESULT:      -7.3      1.738      2.786
REMARK  Name = 
REMARK  6 active torsions:
REMARK  status: ('A' for Active; 'I' for Inactive)
REMARK    1  A    between atoms: O5*_1  and  C5*_2
REMARK    2  A    between atoms: C5*_2  and  C4*_3
REMARK    3  A    between atoms: C1*_5  and  N_6
REMARK    4  A    between atoms: C_10  and  C_11
REMARK    5  A    between atoms: C2*_23  and  O2*_24
REMARK    6  A    between atoms: C3*_25  and  O3*_26
REMARK                            x       y       z     vdW  Elec       q    Type
REMARK                         _______ _______ _______ _____ _____    ______ ____
ROOT
ATOM      1  N   UNL     1       1.224  10.301  19.003  0.00  0.00    +0.000 N 
ATOM      2  C   UNL     1       1.857  10.016  17.821  0.00  0.00    +0.000 A 
ATOM      3  N   UNL     1       2.315   8.786  17.795  0.00  0.00    +0.000 NA
ATOM      4  C   UNL     1       1.954   8.240  19.009  0.00  0.00    +0.000 A 
ATOM      5  C   UNL     1       2.118   6.963  19.569  0.00  0.00    +0.000 A 
ATOM      6  N   UNL     1       1.602   6.725  20.810  0.00  0.00    +0.000 NA
ATOM      7  C   UNL     1       0.980   7.739  21.448  0.00  0.00    +0.000 A 
ATOM      8  N   UNL     1       0.773   8.998  21.014  0.00  0.00    +0.000 NA
ATOM      9  C   UNL     1       1.284   9.178  19.783  0.00  0.00    +0.000 A 
ENDROOT
BRANCH   5  10
ATOM     10  C   UNL     1       2.790   5.864  18.861  0.00  0.00    +0.000 A 
ATOM     11  C   UNL     1       2.088   4.997  17.997  0.00  0.00    +0.000 A 
ATOM     12  C   UNL     1       2.723   3.932  17.351  0.00  0.00    +0.000 A 
ATOM     13  C   UNL     1       4.077   3.721  17.555  0.00  0.00    +0.000 A 
ATOM     14  F   UNL     1       4.683   2.693  16.944  0.00  0.00    +0.000 F 
ATOM     15  C   UNL     1       4.797   4.567  18.387  0.00  0.00    +0.000 A 
ATOM     16  F   UNL     1       6.106   4.361  18.584  0.00  0.00    +0.000 F 
ATOM     17  C   UNL     1       4.168   5.632  19.031  0.00  0.00    +0.000 A 
ENDBRANCH   5  10
BRANCH   1  20
ATOM     18  C4* UNL     1      -0.528  12.528  21.108  0.00  0.00    +0.000 C 
ATOM     19  O4* UNL     1       0.683  11.864  20.687  0.00  0.00    +0.000 OA
ATOM     20  C1* UNL     1       0.553  11.552  19.289  0.00  0.00    +0.000 C 
ATOM     21  C2* UNL     1      -0.928  11.575  18.934  0.00  0.00    +0.000 C 
ATOM     22  C3* UNL     1      -1.450  12.639  19.886  0.00  0.00    +0.000 C 
BRANCH  21  23
ATOM     23  O2* UNL     1      -1.144  11.940  17.568  0.00  0.00    +0.000 OA
ATOM     24  H2* UNL     1      -1.276  12.914  17.571  0.00  0.00    +0.000 HD
ENDBRANCH  21  23
BRANCH  22  25
ATOM     25  O3* UNL     1      -1.319  13.908  19.210  0.00  0.00    +0.000 OA
ATOM     26  H3* UNL     1      -1.721  13.846  18.326  0.00  0.00    +0.000 HD
ENDBRANCH  22  25
BRANCH  18  27
ATOM     27  C5* UNL     1      -1.144  11.765  22.282  0.00  0.00    +0.000 C 
BRANCH  27  28
ATOM     28  O5* UNL     1      -0.146  10.996  22.941  0.00  0.00    +0.000 OA
ATOM     29  H5* UNL     1      -0.578  10.533  23.682  0.00  0.00    +0.000 HD
ENDBRANCH  27  28
ENDBRANCH  18  27
ENDBRANCH   1  20
TORSDOF 6
ENDMDL
