MODEL 1
REMARK VINA RESULT:      -7.0      0.000      0.000
REMARK  Name = 
REMARK  5 active torsions:
REMARK  status: ('A' for Active; 'I' for Inactive)
REMARK    1  A    between atoms: C_2  and  C_3
REMARK    2  A    between atoms: C_3  and  C_4
REMARK    3  A    between atoms: N_12  and  C_13
REMARK    4  A    between atoms: C_18  and  C_19
REMARK    5  A    between atoms: C_19  and  O_20
REMARK                            x       y       z     vdW  Elec       q    Type
REMARK                         _______ _______ _______ _____ _____    ______ ____
ROOT
ATOM      1  O   UNL     1       2.949   7.488  18.601  0.00  0.00    +0.000 OA
ATOM      2  C   UNL     1       2.954   6.384  18.066  0.00  0.00    +0.000 C 
ATOM      3  N   UNL     1       4.064   5.775  17.506  0.00  0.00    +0.000 N 
ATOM      4  H   UNL     1       3.924   4.986  16.870  0.00  0.00    +0.000 HD
ENDROOT
BRANCH   3   5
ATOM      5  C   UNL     1       5.411   6.183  17.668  0.00  0.00    +0.000 A 
ATOM      6  C   UNL     1       5.992   7.189  16.894  0.00  0.00    +0.000 A 
ATOM      7  N   UNL     1       7.256   7.661  17.057  0.00  0.00    +0.000 NA
ATOM      8  C   UNL     1       7.984   7.106  18.037  0.00  0.00    +0.000 A 
ATOM      9  C   UNL     1       7.516   6.093  18.855  0.00  0.00    +0.000 A 
ATOM     10  C   UNL     1       6.204   5.617  18.686  0.00  0.00    +0.000 A 
BRANCH  10  11
ATOM     11  C   UNL     1       5.769   4.455  19.540  0.00  0.00    +0.000 C 
BRANCH  11  12
ATOM     12  O   UNL     1       5.516   3.303  18.744  0.00  0.00    +0.000 OA
ATOM     13  H   UNL     1       4.552   3.164  18.759  0.00  0.00    +0.000 HD
ENDBRANCH  11  12
ENDBRANCH  10  11
ENDBRANCH   3   5
BRANCH   2  14
ATOM     14  C   UNL     1       1.675   5.568  17.969  0.00  0.00    +0.000 C 
BRANCH  14  15
ATOM     15  C   UNL     1       1.664   4.376  18.881  0.00  0.00    +0.000 A 
ATOM     16  C   UNL     1       1.381   4.525  20.239  0.00  0.00    +0.000 A 
ATOM     17  F   UNL     1       1.102   5.741  20.728  0.00  0.00    +0.000 F 
ATOM     18  C   UNL     1       1.365   3.435  21.107  0.00  0.00    +0.000 A 
ATOM     19  C   UNL     1       1.629   2.158  20.617  0.00  0.00    +0.000 A 
ATOM     20  C   UNL     1       1.907   1.984  19.262  0.00  0.00    +0.000 A 
ATOM     21  C   UNL     1       1.925   3.088  18.410  0.00  0.00    +0.000 A 
ATOM     22  F   UNL     1       2.182   2.887  17.109  0.00  0.00    +0.000 F 
ENDBRANCH  14  15
ENDBRANCH   2  14
TORSDOF 5
ENDMDL
MODEL 2
REMARK VINA RESULT:      -7.0      0.143      1.846
REMARK  Name = 
REMARK  5 active torsions:
REMARK  status: ('A' for Active; 'I' for Inactive)
REMARK    1  A    between atoms: C_2  and  C_3
REMARK    2  A    between atoms: C_3  and  C_4
REMARK    3  A    between atoms: N_12  and  C_13
REMARK    4  A    between atoms: C_18  and  C_19
REMARK    5  A    between atoms: C_19  and  O_20
REMARK                            x       y       z     vdW  Elec       q    Type
REMARK                         _______ _______ _______ _____ _____    ______ ____
ROOT
ATOM      1  O   UNL     1       3.040   7.342  18.836  0.00  0.00    +0.000 OA
ATOM      2  C   UNL     1       3.053   6.336  18.134  0.00  0.00    +0.000 C 
ATOM      3  N   UNL     1       4.162   5.844  17.468  0.00  0.00    +0.000 N 
ATOM      4  H   UNL     1       4.022   5.162  16.718  0.00  0.00    +0.000 HD
ENDROOT
BRANCH   3   5
ATOM      5  C   UNL     1       5.504   6.245  17.671  0.00  0.00    +0.000 A 
ATOM      6  C   UNL     1       6.096   7.287  16.955  0.00  0.00    +0.000 A 
ATOM      7  N   UNL     1       7.356   7.753  17.161  0.00  0.00    +0.000 NA
ATOM      8  C   UNL     1       8.069   7.153  18.126  0.00  0.00    +0.000 A 
ATOM      9  C   UNL     1       7.590   6.102  18.887  0.00  0.00    +0.000 A 
ATOM     10  C   UNL     1       6.282   5.632  18.673  0.00  0.00    +0.000 A 
BRANCH  10  11
ATOM     11  C   UNL     1       5.836   4.430  19.465  0.00  0.00    +0.000 C 
BRANCH  11  12
ATOM     12  O   UNL     1       5.496   3.351  18.602  0.00  0.00    +0.000 OA
ATOM     13  H   UNL     1       5.293   2.591  19.177  0.00  0.00    +0.000 HD
ENDBRANCH  11  12
ENDBRANCH  10  11
ENDBRANCH   3   5
BRANCH   2  14
ATOM     14  C   UNL     1       1.784   5.523  17.930  0.00  0.00    +0.000 C 
BRANCH  14  15
ATOM     15  C   UNL     1       1.700   4.323  18.829  0.00  0.00    +0.000 A 
ATOM     16  C   UNL     1       1.981   3.048  18.339  0.00  0.00    +0.000 A 
ATOM     17  F   UNL     1       2.343   2.896  17.057  0.00  0.00    +0.000 F 
ATOM     18  C   UNL     1       1.909   1.919  19.152  0.00  0.00    +0.000 A 
ATOM     19  C   UNL     1       1.557   2.055  20.492  0.00  0.00    +0.000 A 
ATOM     20  C   UNL     1       1.280   3.320  21.007  0.00  0.00    +0.000 A 
ATOM     21  C   UNL     1       1.350   4.438  20.175  0.00  0.00    +0.000 A 
ATOM     22  F   UNL     1       1.091   5.644  20.702  0.00  0.00    +0.000 F 
ENDBRANCH  14  15
ENDBRANCH   2  14
TORSDOF 5
ENDMDL
MODEL 3
REMARK VINA RESULT:      -6.8      2.080      2.578
REMARK  Name = 
REMARK  5 active torsions:
REMARK  status: ('A' for Active; 'I' for Inactive)
REMARK    1  A    between atoms: C_2  and  C_3
REMARK    2  A    between atoms: C_3  and  C_4
REMARK    3  A    between atoms: N_12  and  C_13
REMARK    4  A    between atoms: C_18  and  C_19
REMARK    5  A    between atoms: C_19  and  O_20
REMARK                            x       y       z     vdW  Elec       q    Type
REMARK                         _______ _______ _______ _____ _____    ______ ____
ROOT
ATOM      1  O   UNL     1       3.220   4.334  16.866  0.00  0.00    +0.000 OA
ATOM      2  C   UNL     1       3.916   3.424  17.305  0.00  0.00    +0.000 C 
ATOM      3  N   UNL     1       5.300   3.419  17.325  0.00  0.00    +0.000 N 
ATOM      4  H   UNL     1       5.786   2.531  17.471  0.00  0.00    +0.000 HD
ENDROOT
BRANCH   3   5
ATOM      5  C   UNL     1       6.143   4.531  17.088  0.00  0.00    +0.000 A 
ATOM      6  C   UNL     1       6.740   4.775  15.849  0.00  0.00    +0.000 A 
ATOM      7  N   UNL     1       7.499   5.863  15.554  0.00  0.00    +0.000 NA
ATOM      8  C   UNL     1       7.680   6.756  16.538  0.00  0.00    +0.000 A 
ATOM      9  C   UNL     1       7.149   6.610  17.808  0.00  0.00    +0.000 A 
ATOM     10  C   UNL     1       6.357   5.486  18.102  0.00  0.00    +0.000 A 
BRANCH  10  11
ATOM     11  C   UNL     1       5.874   5.327  19.520  0.00  0.00    +0.000 C 
BRANCH  11  12
ATOM     12  O   UNL     1       4.485   5.616  19.621  0.00  0.00    +0.000 OA
ATOM     13  H   UNL     1       4.251   5.523  20.561  0.00  0.00    +0.000 HD
ENDBRANCH  11  12
ENDBRANCH  10  11
ENDBRANCH   3   5
BRANCH   2  14
ATOM     14  C   UNL     1       3.274   2.172  17.882  0.00  0.00    +0.000 C 
BRANCH  14  15
ATOM     15  C   UNL     1       2.641   2.398  19.224  0.00  0.00    +0.000 A 
ATOM     16  C   UNL     1       1.268   2.625  19.331  0.00  0.00    +0.000 A 
ATOM     17  F   UNL     1       0.509   2.627  18.227  0.00  0.00    +0.000 F 
ATOM     18  C   UNL     1       0.656   2.838  20.564  0.00  0.00    +0.000 A 
ATOM     19  C   UNL     1       1.420   2.818  21.728  0.00  0.00    +0.000 A 
ATOM     20  C   UNL     1       2.792   2.585  21.646  0.00  0.00    +0.000 A 
ATOM     21  C   UNL     1       3.389   2.381  20.402  0.00  0.00    +0.000 A 
ATOM     22  F   UNL     1       4.708   2.145  20.357  0.00  0.00    +0.000 F 
ENDBRANCH  14  15
ENDBRANCH   2  14
TORSDOF 5
ENDMDL
MODEL 4
REMARK VINA RESULT:      -6.8      2.045      2.583
REMARK  Name = 
REMARK  5 active torsions:
REMARK  status: ('A' for Active; 'I' for Inactive)
REMARK    1  A    between atoms: C_2  and  C_3
REMARK    2  A    between atoms: C_3  and  C_4
REMARK    3  A    between atoms: N_12  and  C_13
REMARK    4  A    between atoms: C_18  and  C_19
REMARK    5  A    between atoms: C_19  and  O_20
REMARK                            x       y       z     vdW  Elec       q    Type
REMARK                         _______ _______ _______ _____ _____    ______ ____
ROOT
ATOM      1  O   UNL     1       3.281   4.028  16.496  0.00  0.00    +0.000 OA
ATOM      2  C   UNL     1       3.946   3.269  17.195  0.00  0.00    +0.000 C 
ATOM      3  N   UNL     1       5.300   3.401  17.448  0.00  0.00    +0.000 N 
ATOM      4  H   UNL     1       5.810   2.597  17.823  0.00  0.00    +0.000 HD
ENDROOT
BRANCH   3   5
ATOM      5  C   UNL     1       6.095   4.539  17.169  0.00  0.00    +0.000 A 
ATOM      6  C   UNL     1       6.667   4.772  15.917  0.00  0.00    +0.000 A 
ATOM      7  N   UNL     1       7.378   5.880  15.582  0.00  0.00    +0.000 NA
ATOM      8  C   UNL     1       7.535   6.807  16.539  0.00  0.00    +0.000 A 
ATOM      9  C   UNL     1       7.026   6.675  17.819  0.00  0.00    +0.000 A 
ATOM     10  C   UNL     1       6.283   5.529  18.154  0.00  0.00    +0.000 A 
BRANCH  10  11
ATOM     11  C   UNL     1       5.825   5.390  19.583  0.00  0.00    +0.000 C 
BRANCH  11  12
ATOM     12  O   UNL     1       4.423   5.607  19.691  0.00  0.00    +0.000 OA
ATOM     13  H   UNL     1       4.010   4.727  19.742  0.00  0.00    +0.000 HD
ENDBRANCH  11  12
ENDBRANCH  10  11
ENDBRANCH   3   5
BRANCH   2  14
ATOM     14  C   UNL     1       3.296   2.067  17.861  0.00  0.00    +0.000 C 
BRANCH  14  15
ATOM     15  C   UNL     1       2.650   2.396  19.175  0.00  0.00    +0.000 A 
ATOM     16  C   UNL     1       3.381   2.328  20.361  0.00  0.00    +0.000 A 
ATOM     17  F   UNL     1       4.674   1.980  20.323  0.00  0.00    +0.000 F 
ATOM     18  C   UNL     1       2.805   2.628  21.594  0.00  0.00    +0.000 A 
ATOM     19  C   UNL     1       1.469   3.015  21.656  0.00  0.00    +0.000 A 
ATOM     20  C   UNL     1       0.720   3.097  20.483  0.00  0.00    +0.000 A 
ATOM     21  C   UNL     1       1.312   2.786  19.259  0.00  0.00    +0.000 A 
ATOM     22  F   UNL     1       0.571   2.888  18.146  0.00  0.00    +0.000 F 
ENDBRANCH  14  15
ENDBRANCH   2  14
TORSDOF 5
ENDMDL
MODEL 5
REMARK VINA RESULT:      -6.8      1.896      2.801
REMARK  Name = 
REMARK  5 active torsions:
REMARK  status: ('A' for Active; 'I' for Inactive)
REMARK    1  A    between atoms: C_2  and  C_3
REMARK    2  A    between atoms: C_3  and  C_4
REMARK    3  A    between atoms: N_12  and  C_13
REMARK    4  A    between atoms: C_18  and  C_19
REMARK    5  A    between atoms: C_19  and  O_20
REMARK                            x       y       z     vdW  Elec       q    Type
REMARK                         _______ _______ _______ _____ _____    ______ ____
ROOT
ATOM      1  O   UNL     1       5.452   3.615  16.192  0.00  0.00    +0.000 OA
ATOM      2  C   UNL     1       4.754   3.754  17.192  0.00  0.00    +0.000 C 
ATOM      3  N   UNL     1       5.063   4.563  18.272  0.00  0.00    +0.000 N 
ATOM      4  H   UNL     1       4.560   4.421  19.151  0.00  0.00    +0.000 HD
ENDROOT
BRANCH   3   5
ATOM      5  C   UNL     1       6.078   5.549  18.314  0.00  0.00    +0.000 A 
ATOM      6  C   UNL     1       7.176   5.465  19.171  0.00  0.00    +0.000 A 
ATOM      7  N   UNL     1       8.208   6.348  19.199  0.00  0.00    +0.000 NA
ATOM      8  C   UNL     1       8.149   7.372  18.335  0.00  0.00    +0.000 A 
ATOM      9  C   UNL     1       7.102   7.564  17.450  0.00  0.00    +0.000 A 
ATOM     10  C   UNL     1       6.043   6.639  17.421  0.00  0.00    +0.000 A 
BRANCH  10  11
ATOM     11  C   UNL     1       4.885   6.937  16.504  0.00  0.00    +0.000 C 
BRANCH  11  12
ATOM     12  O   UNL     1       5.208   6.619  15.156  0.00  0.00    +0.000 OA
ATOM     13  H   UNL     1       4.692   5.827  14.926  0.00  0.00    +0.000 HD
ENDBRANCH  11  12
ENDBRANCH  10  11
ENDBRANCH   3   5
BRANCH   2  14
ATOM     14  C   UNL     1       3.440   3.002  17.325  0.00  0.00    +0.000 C 
BRANCH  14  15
ATOM     15  C   UNL     1       2.806   3.154  18.678  0.00  0.00    +0.000 A 
ATOM     16  C   UNL     1       1.670   3.946  18.844  0.00  0.00    +0.000 A 
ATOM     17  F   UNL     1       1.133   4.565  17.783  0.00  0.00    +0.000 F 
ATOM     18  C   UNL     1       1.064   4.104  20.088  0.00  0.00    +0.000 A 
ATOM     19  C   UNL     1       1.590   3.454  21.201  0.00  0.00    +0.000 A 
ATOM     20  C   UNL     1       2.720   2.650  21.057  0.00  0.00    +0.000 A 
ATOM     21  C   UNL     1       3.318   2.510  19.805  0.00  0.00    +0.000 A 
ATOM     22  F   UNL     1       4.395   1.718  19.696  0.00  0.00    +0.000 F 
ENDBRANCH  14  15
ENDBRANCH   2  14
TORSDOF 5
ENDMDL
MODEL 6
REMARK VINA RESULT:      -6.8      1.886      2.923
REMARK  Name = 
REMARK  5 active torsions:
REMARK  status: ('A' for Active; 'I' for Inactive)
REMARK    1  A    between atoms: C_2  and  C_3
REMARK    2  A    between atoms: C_3  and  C_4
REMARK    3  A    between atoms: N_12  and  C_13
REMARK    4  A    between atoms: C_18  and  C_19
REMARK    5  A    between atoms: C_19  and  O_20
REMARK                            x       y       z     vdW  Elec       q    Type
REMARK                         _______ _______ _______ _____ _____    ______ ____
ROOT
ATOM      1  O   UNL     1       5.450   3.533  16.231  0.00  0.00    +0.000 OA
ATOM      2  C   UNL     1       4.719   3.726  17.198  0.00  0.00    +0.000 C 
ATOM      3  N   UNL     1       4.997   4.584  18.248  0.00  0.00    +0.000 N 
ATOM      4  H   UNL     1       4.462   4.489  19.115  0.00  0.00    +0.000 HD
ENDROOT
BRANCH   3   5
ATOM      5  C   UNL     1       6.019   5.562  18.279  0.00  0.00    +0.000 A 
ATOM      6  C   UNL     1       7.106   5.491  19.152  0.00  0.00    +0.000 A 
ATOM      7  N   UNL     1       8.145   6.366  19.172  0.00  0.00    +0.000 NA
ATOM      8  C   UNL     1       8.105   7.368  18.282  0.00  0.00    +0.000 A 
ATOM      9  C   UNL     1       7.071   7.547  17.379  0.00  0.00    +0.000 A 
ATOM     10  C   UNL     1       6.005   6.630  17.359  0.00  0.00    +0.000 A 
BRANCH  10  11
ATOM     11  C   UNL     1       4.861   6.914  16.421  0.00  0.00    +0.000 C 
BRANCH  11  12
ATOM     12  O   UNL     1       5.179   6.512  15.094  0.00  0.00    +0.000 OA
ATOM     13  H   UNL     1       6.135   6.325  15.083  0.00  0.00    +0.000 HD
ENDBRANCH  11  12
ENDBRANCH  10  11
ENDBRANCH   3   5
BRANCH   2  14
ATOM     14  C   UNL     1       3.393   2.992  17.320  0.00  0.00    +0.000 C 
BRANCH  14  15
ATOM     15  C   UNL     1       2.739   3.171  18.660  0.00  0.00    +0.000 A 
ATOM     16  C   UNL     1       3.230   2.503  19.783  0.00  0.00    +0.000 A 
ATOM     17  F   UNL     1       4.301   1.708  19.665  0.00  0.00    +0.000 F 
ATOM     18  C   UNL     1       2.641   2.651  21.036  0.00  0.00    +0.000 A 
ATOM     19  C   UNL     1       1.540   3.490  21.188  0.00  0.00    +0.000 A 
ATOM     20  C   UNL     1       1.038   4.174  20.082  0.00  0.00    +0.000 A 
ATOM     21  C   UNL     1       1.636   4.007  18.833  0.00  0.00    +0.000 A 
ATOM     22  F   UNL     1       1.139   4.689  17.791  0.00  0.00    +0.000 F 
ENDBRANCH  14  15
ENDBRANCH   2  14
TORSDOF 5
ENDMDL
MODEL 7
REMARK VINA RESULT:      -6.7      1.823      2.201
REMARK  Name = 
REMARK  5 active torsions:
REMARK  status: ('A' for Active; 'I' for Inactive)
REMARK    1  A    between atoms: C_2  and  C_3
REMARK    2  A    between atoms: C_3  and  C_4
REMARK    3  A    between atoms: N_12  and  C_13
REMARK    4  A    between atoms: C_18  and  C_19
REMARK    5  A    between atoms: C_19  and  O_20
REMARK                            x       y       z     vdW  Elec       q    Type
REMARK                         _______ _______ _______ _____ _____    ______ ____
ROOT
ATOM      1  O   UNL     1       3.698   5.910  18.178  0.00  0.00    +0.000 OA
ATOM      2  C   UNL     1       4.404   4.947  17.896  0.00  0.00    +0.000 C 
ATOM      3  N   UNL     1       5.736   5.018  17.526  0.00  0.00    +0.000 N 
ATOM      4  H   UNL     1       6.164   4.207  17.071  0.00  0.00    +0.000 HD
ENDROOT
BRANCH   3   5
ATOM      5  C   UNL     1       6.578   6.149  17.650  0.00  0.00    +0.000 A 
ATOM      6  C   UNL     1       6.420   7.296  16.870  0.00  0.00    +0.000 A 
ATOM      7  N   UNL     1       7.157   8.431  16.998  0.00  0.00    +0.000 NA
ATOM      8  C   UNL     1       8.104   8.429  17.948  0.00  0.00    +0.000 A 
ATOM      9  C   UNL     1       8.360   7.344  18.768  0.00  0.00    +0.000 A 
ATOM     10  C   UNL     1       7.586   6.178  18.635  0.00  0.00    +0.000 A 
BRANCH  10  11
ATOM     11  C   UNL     1       7.958   4.994  19.489  0.00  0.00    +0.000 C 
BRANCH  11  12
ATOM     12  O   UNL     1       8.206   5.393  20.832  0.00  0.00    +0.000 OA
ATOM     13  H   UNL     1       8.850   4.759  21.195  0.00  0.00    +0.000 HD
ENDBRANCH  11  12
ENDBRANCH  10  11
ENDBRANCH   3   5
BRANCH   2  14
ATOM     14  C   UNL     1       3.835   3.538  17.927  0.00  0.00    +0.000 C 
BRANCH  14  15
ATOM     15  C   UNL     1       2.955   3.283  19.116  0.00  0.00    +0.000 A 
ATOM     16  C   UNL     1       1.587   3.550  19.056  0.00  0.00    +0.000 A 
ATOM     17  F   UNL     1       1.054   4.025  17.923  0.00  0.00    +0.000 F 
ATOM     18  C   UNL     1       0.749   3.323  20.146  0.00  0.00    +0.000 A 
ATOM     19  C   UNL     1       1.276   2.808  21.328  0.00  0.00    +0.000 A 
ATOM     20  C   UNL     1       2.639   2.526  21.408  0.00  0.00    +0.000 A 
ATOM     21  C   UNL     1       3.464   2.767  20.309  0.00  0.00    +0.000 A 
ATOM     22  F   UNL     1       4.768   2.472  20.412  0.00  0.00    +0.000 F 
ENDBRANCH  14  15
ENDBRANCH   2  14
TORSDOF 5
ENDMDL
MODEL 8
REMARK VINA RESULT:      -6.7      1.496      1.528
REMARK  Name = 
REMARK  5 active torsions:
REMARK  status: ('A' for Active; 'I' for Inactive)
REMARK    1  A    between atoms: C_2  and  C_3
REMARK    2  A    between atoms: C_3  and  C_4
REMARK    3  A    between atoms: N_12  and  C_13
REMARK    4  A    between atoms: C_18  and  C_19
REMARK    5  A    between atoms: C_19  and  O_20
REMARK                            x       y       z     vdW  Elec       q    Type
REMARK                         _______ _______ _______ _____ _____    ______ ____
ROOT
ATOM      1  O   UNL     1       3.501   7.059  17.964  0.00  0.00    +0.000 OA
ATOM      2  C   UNL     1       3.041   5.933  17.801  0.00  0.00    +0.000 C 
ATOM      3  N   UNL     1       3.661   4.913  17.102  0.00  0.00    +0.000 N 
ATOM      4  H   UNL     1       3.102   4.109  16.807  0.00  0.00    +0.000 HD
ENDROOT
BRANCH   3   5
ATOM      5  C   UNL     1       5.012   4.892  16.678  0.00  0.00    +0.000 A 
ATOM      6  C   UNL     1       5.391   5.129  15.355  0.00  0.00    +0.000 A 
ATOM      7  N   UNL     1       6.675   5.188  14.914  0.00  0.00    +0.000 NA
ATOM      8  C   UNL     1       7.636   4.999  15.830  0.00  0.00    +0.000 A 
ATOM      9  C   UNL     1       7.377   4.741  17.165  0.00  0.00    +0.000 A 
ATOM     10  C   UNL     1       6.045   4.692  17.615  0.00  0.00    +0.000 A 
BRANCH  10  11
ATOM     11  C   UNL     1       5.811   4.322  19.057  0.00  0.00    +0.000 C 
BRANCH  11  12
ATOM     12  O   UNL     1       5.168   3.057  19.160  0.00  0.00    +0.000 OA
ATOM     13  H   UNL     1       4.265   3.177  18.819  0.00  0.00    +0.000 HD
ENDBRANCH  11  12
ENDBRANCH  10  11
ENDBRANCH   3   5
BRANCH   2  14
ATOM     14  C   UNL     1       1.684   5.565  18.379  0.00  0.00    +0.000 C 
BRANCH  14  15
ATOM     15  C   UNL     1       1.757   4.479  19.413  0.00  0.00    +0.000 A 
ATOM     16  C   UNL     1       1.999   4.790  20.752  0.00  0.00    +0.000 A 
ATOM     17  F   UNL     1       2.153   6.070  21.117  0.00  0.00    +0.000 F 
ATOM     18  C   UNL     1       2.073   3.802  21.731  0.00  0.00    +0.000 A 
ATOM     19  C   UNL     1       1.894   2.466  21.379  0.00  0.00    +0.000 A 
ATOM     20  C   UNL     1       1.643   2.133  20.049  0.00  0.00    +0.000 A 
ATOM     21  C   UNL     1       1.580   3.135  19.082  0.00  0.00    +0.000 A 
ATOM     22  F   UNL     1       1.323   2.784  17.813  0.00  0.00    +0.000 F 
ENDBRANCH  14  15
ENDBRANCH   2  14
TORSDOF 5
ENDMDL
MODEL 9
REMARK VINA RESULT:      -6.6      1.560      2.376
REMARK  Name = 
REMARK  5 active torsions:
REMARK  status: ('A' for Active; 'I' for Inactive)
REMARK    1  A    between atoms: C_2  and  C_3
REMARK    2  A    between atoms: C_3  and  C_4
REMARK    3  A    between atoms: N_12  and  C_13
REMARK    4  A    between atoms: C_18  and  C_19
REMARK    5  A    between atoms: C_19  and  O_20
REMARK                            x       y       z     vdW  Elec       q    Type
REMARK                         _______ _______ _______ _____ _____    ______ ____
ROOT
ATOM      1  O   UNL     1       3.363   6.804  17.846  0.00  0.00    +0.000 OA
ATOM      2  C   UNL     1       2.970   5.655  17.668  0.00  0.00    +0.000 C 
ATOM      3  N   UNL     1       3.665   4.672  16.985  0.00  0.00    +0.000 N 
ATOM      4  H   UNL     1       3.159   3.840  16.672  0.00  0.00    +0.000 HD
ENDROOT
BRANCH   3   5
ATOM      5  C   UNL     1       5.026   4.727  16.599  0.00  0.00    +0.000 A 
ATOM      6  C   UNL     1       5.428   4.940  15.279  0.00  0.00    +0.000 A 
ATOM      7  N   UNL     1       6.718   5.069  14.872  0.00  0.00    +0.000 NA
ATOM      8  C   UNL     1       7.661   4.979  15.821  0.00  0.00    +0.000 A 
ATOM      9  C   UNL     1       7.380   4.754  17.157  0.00  0.00    +0.000 A 
ATOM     10  C   UNL     1       6.041   4.631  17.572  0.00  0.00    +0.000 A 
BRANCH  10  11
ATOM     11  C   UNL     1       5.789   4.301  19.019  0.00  0.00    +0.000 C 
BRANCH  11  12
ATOM     12  O   UNL     1       5.202   3.011  19.152  0.00  0.00    +0.000 OA
ATOM     13  H   UNL     1       5.699   2.419  18.560  0.00  0.00    +0.000 HD
ENDBRANCH  11  12
ENDBRANCH  10  11
ENDBRANCH   3   5
BRANCH   2  14
ATOM     14  C   UNL     1       1.619   5.211  18.206  0.00  0.00    +0.000 C 
BRANCH  14  15
ATOM     15  C   UNL     1       1.728   4.268  19.370  0.00  0.00    +0.000 A 
ATOM     16  C   UNL     1       1.619   2.891  19.179  0.00  0.00    +0.000 A 
ATOM     17  F   UNL     1       1.432   2.406  17.944  0.00  0.00    +0.000 F 
ATOM     18  C   UNL     1       1.716   1.995  20.242  0.00  0.00    +0.000 A 
ATOM     19  C   UNL     1       1.933   2.474  21.531  0.00  0.00    +0.000 A 
ATOM     20  C   UNL     1       2.052   3.846  21.745  0.00  0.00    +0.000 A 
ATOM     21  C   UNL     1       1.946   4.728  20.669  0.00  0.00    +0.000 A 
ATOM     22  F   UNL     1       2.079   6.042  20.904  0.00  0.00    +0.000 F 
ENDBRANCH  14  15
ENDBRANCH   2  14
TORSDOF 5
ENDMDL
