MODEL 1
REMARK VINA RESULT:      -7.9      0.000      0.000
REMARK  Name = 
REMARK  11 active torsions:
REMARK  status: ('A' for Active; 'I' for Inactive)
REMARK    1  A    between atoms: C_1  and  C_2
REMARK    2  A    between atoms: C_2  and  C_3
REMARK    3  A    between atoms: C_3  and  O_4
REMARK    4  A    between atoms: O_4  and  C_5
REMARK    5  A    between atoms: C_7  and  N_8
REMARK    6  A    between atoms: C_14  and  C_15
REMARK    7  A    between atoms: C_18  and  C_19
REMARK    8  A    between atoms: C_19  and  O_20
REMARK    9  A    between atoms: C_19  and  C_21
REMARK   10  A    between atoms: C_21  and  O_22
REMARK   11  A    between atoms: C_30  and  C_31
REMARK                            x       y       z     vdW  Elec       q    Type
REMARK                         _______ _______ _______ _____ _____    ______ ____
ROOT
ATOM      1  N   UNL     1       2.247   7.453  18.842  0.00  0.00    +0.000 N 
ATOM      2  C   UNL     1       1.780   8.651  18.344  0.00  0.00    +0.000 C 
ATOM      3  O   UNL     1       2.059   9.060  17.219  0.00  0.00    +0.000 OA
ATOM      4  N   UNL     1       0.890   9.326  19.178  0.00  0.00    +0.000 N 
ATOM      5  C   UNL     1       0.103  10.406  18.586  0.00  0.00    +0.000 C 
ATOM      6  C   UNL     1      -0.075  11.557  19.533  0.00  0.00    +0.000 C 
ATOM      7  C   UNL     1       0.309  11.546  20.822  0.00  0.00    +0.000 C 
ATOM      8  C   UNL     1       0.920  10.322  21.445  0.00  0.00    +0.000 C 
ATOM      9  C   UNL     1       0.634   9.068  20.604  0.00  0.00    +0.000 C 
ATOM     10  H   UNL     1       1.563   6.964  19.397  0.00  0.00    +0.000 HD
ENDROOT
BRANCH   7  11
ATOM     11  C   UNL     1       0.084  12.719  21.671  0.00  0.00    +0.000 A 
ATOM     12  N   UNL     1      -0.899  12.560  22.588  0.00  0.00    +0.000 NA
ATOM     13  C   UNL     1      -1.229  13.625  23.353  0.00  0.00    +0.000 A 
ATOM     14  C   UNL     1      -0.595  14.871  23.282  0.00  0.00    +0.000 A 
ATOM     15  C   UNL     1       0.423  15.003  22.332  0.00  0.00    +0.000 A 
ATOM     16  C   UNL     1       0.774  13.927  21.511  0.00  0.00    +0.000 A 
ATOM     17 CL   UNL     1       2.025  14.145  20.347  0.00  0.00    +0.000 Cl
BRANCH  14  18
ATOM     18  C   UNL     1      -1.038  16.006  24.178  0.00  0.00    +0.000 C 
BRANCH  18  19
ATOM     19  O   UNL     1       0.086  16.549  24.878  0.00  0.00    +0.000 OA
ATOM     20  H   UNL     1       0.563  17.104  24.230  0.00  0.00    +0.000 HD
ENDBRANCH  18  19
BRANCH  18  21
ATOM     21  C   UNL     1      -2.106  15.599  25.212  0.00  0.00    +0.000 C 
BRANCH  21  22
ATOM     22  O   UNL     1      -1.494  15.355  26.482  0.00  0.00    +0.000 OA
ATOM     23  H   UNL     1      -0.530  15.323  26.341  0.00  0.00    +0.000 HD
ENDBRANCH  21  22
ENDBRANCH  18  21
ENDBRANCH  14  18
ENDBRANCH   7  11
BRANCH   1  26
ATOM     24  C   UNL     1       3.960   4.447  17.326  0.00  0.00    +0.000 A 
ATOM     25  C   UNL     1       3.090   5.228  18.127  0.00  0.00    +0.000 A 
ATOM     26  C   UNL     1       3.165   6.627  18.148  0.00  0.00    +0.000 A 
ATOM     27  C   UNL     1       4.165   7.252  17.413  0.00  0.00    +0.000 A 
ATOM     28  C   UNL     1       5.026   6.497  16.618  0.00  0.00    +0.000 A 
ATOM     29  C   UNL     1       4.891   5.093  16.496  0.00  0.00    +0.000 A 
BRANCH  29  30
ATOM     30  C   UNL     1       5.750   4.469  15.421  0.00  0.00    +0.000 C 
ATOM     31  F   UNL     1       6.171   3.198  15.639  0.00  0.00    +0.000 F 
ATOM     32  F   UNL     1       5.095   4.405  14.220  0.00  0.00    +0.000 F 
ATOM     33  F   UNL     1       6.873   5.203  15.176  0.00  0.00    +0.000 F 
ENDBRANCH  29  30
BRANCH  24  34
ATOM     34  O   UNL     1       3.732   3.099  17.432  0.00  0.00    +0.000 OA
BRANCH  34  35
ATOM     35  C   UNL     1       3.443   2.563  18.722  0.00  0.00    +0.000 C 
BRANCH  35  37
ATOM     36  C   UNL     1       1.398   2.530  20.155  0.00  0.00    +0.000 C 
ATOM     37  C   UNL     1       1.993   2.102  18.821  0.00  0.00    +0.000 C 
ENDBRANCH  35  37
ENDBRANCH  34  35
ENDBRANCH  24  34
ENDBRANCH   1  26
TORSDOF 10
ENDMDL
MODEL 2
REMARK VINA RESULT:      -7.9      5.457     11.529
REMARK  Name = 
REMARK  11 active torsions:
REMARK  status: ('A' for Active; 'I' for Inactive)
REMARK    1  A    between atoms: C_1  and  C_2
REMARK    2  A    between atoms: C_2  and  C_3
REMARK    3  A    between atoms: C_3  and  O_4
REMARK    4  A    between atoms: O_4  and  C_5
REMARK    5  A    between atoms: C_7  and  N_8
REMARK    6  A    between atoms: C_14  and  C_15
REMARK    7  A    between atoms: C_18  and  C_19
REMARK    8  A    between atoms: C_19  and  O_20
REMARK    9  A    between atoms: C_19  and  C_21
REMARK   10  A    between atoms: C_21  and  O_22
REMARK   11  A    between atoms: C_30  and  C_31
REMARK                            x       y       z     vdW  Elec       q    Type
REMARK                         _______ _______ _______ _____ _____    ______ ____
ROOT
ATOM      1  N   UNL     1       0.342  11.429  20.110  0.00  0.00    +0.000 N 
ATOM      2  C   UNL     1       0.881  10.320  20.728  0.00  0.00    +0.000 C 
ATOM      3  O   UNL     1       1.129  10.283  21.931  0.00  0.00    +0.000 OA
ATOM      4  N   UNL     1       1.043   9.208  19.904  0.00  0.00    +0.000 N 
ATOM      5  C   UNL     1       1.280   7.920  20.552  0.00  0.00    +0.000 C 
ATOM      6  C   UNL     1       2.260   7.078  19.788  0.00  0.00    +0.000 C 
ATOM      7  C   UNL     1       2.751   7.395  18.577  0.00  0.00    +0.000 C 
ATOM      8  C   UNL     1       2.304   8.633  17.851  0.00  0.00    +0.000 C 
ATOM      9  C   UNL     1       0.989   9.174  18.433  0.00  0.00    +0.000 C 
ATOM     10  H   UNL     1      -0.331  11.193  19.397  0.00  0.00    +0.000 HD
ENDROOT
BRANCH   7  11
ATOM     11  C   UNL     1       3.700   6.501  17.906  0.00  0.00    +0.000 A 
ATOM     12  N   UNL     1       4.880   7.082  17.587  0.00  0.00    +0.000 NA
ATOM     13  C   UNL     1       5.777   6.350  16.889  0.00  0.00    +0.000 A 
ATOM     14  C   UNL     1       5.578   5.018  16.506  0.00  0.00    +0.000 A 
ATOM     15  C   UNL     1       4.354   4.442  16.859  0.00  0.00    +0.000 A 
ATOM     16  C   UNL     1       3.396   5.179  17.562  0.00  0.00    +0.000 A 
ATOM     17 CL   UNL     1       1.898   4.427  17.960  0.00  0.00    +0.000 Cl
BRANCH  14  18
ATOM     18  C   UNL     1       6.640   4.281  15.722  0.00  0.00    +0.000 C 
BRANCH  18  19
ATOM     19  O   UNL     1       7.916   4.437  16.352  0.00  0.00    +0.000 OA
ATOM     20  H   UNL     1       7.915   5.334  16.741  0.00  0.00    +0.000 HD
ENDBRANCH  18  19
BRANCH  18  21
ATOM     21  C   UNL     1       6.761   4.742  14.256  0.00  0.00    +0.000 C 
BRANCH  21  22
ATOM     22  O   UNL     1       7.926   5.557  14.091  0.00  0.00    +0.000 OA
ATOM     23  H   UNL     1       7.851   6.304  14.712  0.00  0.00    +0.000 HD
ENDBRANCH  21  22
ENDBRANCH  18  21
ENDBRANCH  14  18
ENDBRANCH   7  11
BRANCH   1  26
ATOM     24  C   UNL     1      -1.313  14.246  22.005  0.00  0.00    +0.000 A 
ATOM     25  C   UNL     1      -1.149  13.064  21.240  0.00  0.00    +0.000 A 
ATOM     26  C   UNL     1       0.110  12.656  20.778  0.00  0.00    +0.000 A 
ATOM     27  C   UNL     1       1.207  13.473  21.023  0.00  0.00    +0.000 A 
ATOM     28  C   UNL     1       1.060  14.637  21.775  0.00  0.00    +0.000 A 
ATOM     29  C   UNL     1      -0.182  15.004  22.347  0.00  0.00    +0.000 A 
BRANCH  29  30
ATOM     30  C   UNL     1      -0.111  16.159  23.319  0.00  0.00    +0.000 C 
ATOM     31  F   UNL     1      -0.749  17.300  22.956  0.00  0.00    +0.000 F 
ATOM     32  F   UNL     1      -0.658  15.837  24.532  0.00  0.00    +0.000 F 
ATOM     33  F   UNL     1       1.176  16.517  23.592  0.00  0.00    +0.000 F 
ENDBRANCH  29  30
BRANCH  24  34
ATOM     34  O   UNL     1      -2.615  14.478  22.372  0.00  0.00    +0.000 OA
BRANCH  34  35
ATOM     35  C   UNL     1      -3.486  13.358  22.512  0.00  0.00    +0.000 C 
BRANCH  35  37
ATOM     36  C   UNL     1      -4.405  12.499  24.670  0.00  0.00    +0.000 C 
ATOM     37  C   UNL     1      -3.174  12.565  23.776  0.00  0.00    +0.000 C 
ENDBRANCH  35  37
ENDBRANCH  34  35
ENDBRANCH  24  34
ENDBRANCH   1  26
TORSDOF 10
ENDMDL
MODEL 3
REMARK VINA RESULT:      -7.9      1.070      1.311
REMARK  Name = 
REMARK  11 active torsions:
REMARK  status: ('A' for Active; 'I' for Inactive)
REMARK    1  A    between atoms: C_1  and  C_2
REMARK    2  A    between atoms: C_2  and  C_3
REMARK    3  A    between atoms: C_3  and  O_4
REMARK    4  A    between atoms: O_4  and  C_5
REMARK    5  A    between atoms: C_7  and  N_8
REMARK    6  A    between atoms: C_14  and  C_15
REMARK    7  A    between atoms: C_18  and  C_19
REMARK    8  A    between atoms: C_19  and  O_20
REMARK    9  A    between atoms: C_19  and  C_21
REMARK   10  A    between atoms: C_21  and  O_22
REMARK   11  A    between atoms: C_30  and  C_31
REMARK                            x       y       z     vdW  Elec       q    Type
REMARK                         _______ _______ _______ _____ _____    ______ ____
ROOT
ATOM      1  N   UNL     1       2.339   7.462  19.171  0.00  0.00    +0.000 N 
ATOM      2  C   UNL     1       1.854   8.657  18.684  0.00  0.00    +0.000 C 
ATOM      3  O   UNL     1       2.249   9.158  17.633  0.00  0.00    +0.000 OA
ATOM      4  N   UNL     1       0.814   9.215  19.425  0.00  0.00    +0.000 N 
ATOM      5  C   UNL     1       0.035  10.278  18.795  0.00  0.00    +0.000 C 
ATOM      6  C   UNL     1      -0.352  11.349  19.774  0.00  0.00    +0.000 C 
ATOM      7  C   UNL     1      -0.142  11.276  21.100  0.00  0.00    +0.000 C 
ATOM      8  C   UNL     1       0.470  10.056  21.729  0.00  0.00    +0.000 C 
ATOM      9  C   UNL     1       0.392   8.846  20.786  0.00  0.00    +0.000 C 
ATOM     10  H   UNL     1       1.626   6.893  19.598  0.00  0.00    +0.000 HD
ENDROOT
BRANCH   7  11
ATOM     11  C   UNL     1      -0.564  12.373  21.977  0.00  0.00    +0.000 A 
ATOM     12  N   UNL     1      -1.654  12.093  22.729  0.00  0.00    +0.000 NA
ATOM     13  C   UNL     1      -2.160  13.082  23.501  0.00  0.00    +0.000 A 
ATOM     14  C   UNL     1      -1.609  14.365  23.598  0.00  0.00    +0.000 A 
ATOM     15  C   UNL     1      -0.478  14.621  22.817  0.00  0.00    +0.000 A 
ATOM     16  C   UNL     1       0.058  13.627  21.992  0.00  0.00    +0.000 A 
ATOM     17 CL   UNL     1       1.444  13.998  21.038  0.00  0.00    +0.000 Cl
BRANCH  14  18
ATOM     18  C   UNL     1      -2.249  15.407  24.487  0.00  0.00    +0.000 C 
BRANCH  18  19
ATOM     19  O   UNL     1      -1.628  15.405  25.776  0.00  0.00    +0.000 OA
ATOM     20  H   UNL     1      -1.888  14.562  26.197  0.00  0.00    +0.000 HD
ENDBRANCH  18  19
BRANCH  18  21
ATOM     21  C   UNL     1      -3.766  15.212  24.677  0.00  0.00    +0.000 C 
BRANCH  21  22
ATOM     22  O   UNL     1      -4.360  16.419  25.166  0.00  0.00    +0.000 OA
ATOM     23  H   UNL     1      -5.219  16.183  25.560  0.00  0.00    +0.000 HD
ENDBRANCH  21  22
ENDBRANCH  18  21
ENDBRANCH  14  18
ENDBRANCH   7  11
BRANCH   1  26
ATOM     24  C   UNL     1       4.888   4.797  18.352  0.00  0.00    +0.000 A 
ATOM     25  C   UNL     1       3.905   5.536  19.057  0.00  0.00    +0.000 A 
ATOM     26  C   UNL     1       3.400   6.747  18.563  0.00  0.00    +0.000 A 
ATOM     27  C   UNL     1       3.930   7.260  17.385  0.00  0.00    +0.000 A 
ATOM     28  C   UNL     1       4.895   6.542  16.681  0.00  0.00    +0.000 A 
ATOM     29  C   UNL     1       5.333   5.264  17.105  0.00  0.00    +0.000 A 
BRANCH  29  30
ATOM     30  C   UNL     1       6.200   4.532  16.108  0.00  0.00    +0.000 C 
ATOM     31  F   UNL     1       7.489   4.312  16.467  0.00  0.00    +0.000 F 
ATOM     32  F   UNL     1       5.710   3.284  15.829  0.00  0.00    +0.000 F 
ATOM     33  F   UNL     1       6.247   5.174  14.906  0.00  0.00    +0.000 F 
ENDBRANCH  29  30
BRANCH  24  34
ATOM     34  O   UNL     1       5.255   3.639  18.989  0.00  0.00    +0.000 OA
BRANCH  34  35
ATOM     35  C   UNL     1       4.225   2.753  19.425  0.00  0.00    +0.000 C 
BRANCH  35  37
ATOM     36  C   UNL     1       2.267   2.313  17.939  0.00  0.00    +0.000 C 
ATOM     37  C   UNL     1       3.696   1.906  18.274  0.00  0.00    +0.000 C 
ENDBRANCH  35  37
ENDBRANCH  34  35
ENDBRANCH  24  34
ENDBRANCH   1  26
TORSDOF 10
ENDMDL
MODEL 4
REMARK VINA RESULT:      -7.9      8.238     11.527
REMARK  Name = 
REMARK  11 active torsions:
REMARK  status: ('A' for Active; 'I' for Inactive)
REMARK    1  A    between atoms: C_1  and  C_2
REMARK    2  A    between atoms: C_2  and  C_3
REMARK    3  A    between atoms: C_3  and  O_4
REMARK    4  A    between atoms: O_4  and  C_5
REMARK    5  A    between atoms: C_7  and  N_8
REMARK    6  A    between atoms: C_14  and  C_15
REMARK    7  A    between atoms: C_18  and  C_19
REMARK    8  A    between atoms: C_19  and  O_20
REMARK    9  A    between atoms: C_19  and  C_21
REMARK   10  A    between atoms: C_21  and  O_22
REMARK   11  A    between atoms: C_30  and  C_31
REMARK                            x       y       z     vdW  Elec       q    Type
REMARK                         _______ _______ _______ _____ _____    ______ ____
ROOT
ATOM      1  N   UNL     1       9.348   9.476  19.159  0.00  0.00    +0.000 N 
ATOM      2  C   UNL     1       8.310   9.327  18.264  0.00  0.00    +0.000 C 
ATOM      3  O   UNL     1       7.814  10.273  17.656  0.00  0.00    +0.000 OA
ATOM      4  N   UNL     1       7.921   8.010  18.028  0.00  0.00    +0.000 N 
ATOM      5  C   UNL     1       7.081   7.756  16.860  0.00  0.00    +0.000 C 
ATOM      6  C   UNL     1       6.045   6.704  17.130  0.00  0.00    +0.000 C 
ATOM      7  C   UNL     1       5.983   5.971  18.256  0.00  0.00    +0.000 C 
ATOM      8  C   UNL     1       7.010   6.119  19.343  0.00  0.00    +0.000 C 
ATOM      9  C   UNL     1       8.274   6.821  18.822  0.00  0.00    +0.000 C 
ATOM     10  H   UNL     1      10.018   8.724  19.113  0.00  0.00    +0.000 HD
ENDROOT
BRANCH   7  11
ATOM     11  C   UNL     1       4.935   4.959  18.423  0.00  0.00    +0.000 A 
ATOM     12  N   UNL     1       4.166   5.133  19.523  0.00  0.00    +0.000 NA
ATOM     13  C   UNL     1       3.232   4.194  19.797  0.00  0.00    +0.000 A 
ATOM     14  C   UNL     1       2.986   3.072  18.997  0.00  0.00    +0.000 A 
ATOM     15  C   UNL     1       3.790   2.924  17.862  0.00  0.00    +0.000 A 
ATOM     16  C   UNL     1       4.779   3.866  17.562  0.00  0.00    +0.000 A 
ATOM     17 CL   UNL     1       5.752   3.630  16.160  0.00  0.00    +0.000 Cl
BRANCH  14  18
ATOM     18  C   UNL     1       1.921   2.074  19.388  0.00  0.00    +0.000 C 
BRANCH  18  19
ATOM     19  O   UNL     1       1.054   1.816  18.278  0.00  0.00    +0.000 OA
ATOM     20  H   UNL     1       0.216   1.492  18.663  0.00  0.00    +0.000 HD
ENDBRANCH  18  19
BRANCH  18  21
ATOM     21  C   UNL     1       1.060   2.522  20.585  0.00  0.00    +0.000 C 
BRANCH  21  22
ATOM     22  O   UNL     1       1.728   2.218  21.813  0.00  0.00    +0.000 OA
ATOM     23  H   UNL     1       2.397   1.536  21.621  0.00  0.00    +0.000 HD
ENDBRANCH  21  22
ENDBRANCH  18  21
ENDBRANCH  14  18
ENDBRANCH   7  11
BRANCH   1  26
ATOM     24  C   UNL     1      11.037  12.853  19.057  0.00  0.00    +0.000 A 
ATOM     25  C   UNL     1      10.627  11.551  18.676  0.00  0.00    +0.000 A 
ATOM     26  C   UNL     1       9.878  10.735  19.535  0.00  0.00    +0.000 A 
ATOM     27  C   UNL     1       9.593  11.197  20.814  0.00  0.00    +0.000 A 
ATOM     28  C   UNL     1       9.988  12.476  21.201  0.00  0.00    +0.000 A 
ATOM     29  C   UNL     1      10.645  13.356  20.308  0.00  0.00    +0.000 A 
BRANCH  29  30
ATOM     30  C   UNL     1      10.790  14.773  20.813  0.00  0.00    +0.000 C 
ATOM     31  F   UNL     1      12.016  15.341  20.691  0.00  0.00    +0.000 F 
ATOM     32  F   UNL     1       9.952  15.634  20.156  0.00  0.00    +0.000 F 
ATOM     33  F   UNL     1      10.452  14.881  22.130  0.00  0.00    +0.000 F 
ENDBRANCH  29  30
BRANCH  24  34
ATOM     34  O   UNL     1      11.756  13.501  18.085  0.00  0.00    +0.000 OA
BRANCH  34  35
ATOM     35  C   UNL     1      11.062  13.966  16.930  0.00  0.00    +0.000 C 
BRANCH  35  37
ATOM     36  C   UNL     1      12.333  15.980  17.683  0.00  0.00    +0.000 C 
ATOM     37  C   UNL     1      11.455  15.397  16.583  0.00  0.00    +0.000 C 
ENDBRANCH  35  37
ENDBRANCH  34  35
ENDBRANCH  24  34
ENDBRANCH   1  26
TORSDOF 10
ENDMDL
MODEL 5
REMARK VINA RESULT:      -7.8      1.188      1.487
REMARK  Name = 
REMARK  11 active torsions:
REMARK  status: ('A' for Active; 'I' for Inactive)
REMARK    1  A    between atoms: C_1  and  C_2
REMARK    2  A    between atoms: C_2  and  C_3
REMARK    3  A    between atoms: C_3  and  O_4
REMARK    4  A    between atoms: O_4  and  C_5
REMARK    5  A    between atoms: C_7  and  N_8
REMARK    6  A    between atoms: C_14  and  C_15
REMARK    7  A    between atoms: C_18  and  C_19
REMARK    8  A    between atoms: C_19  and  O_20
REMARK    9  A    between atoms: C_19  and  C_21
REMARK   10  A    between atoms: C_21  and  O_22
REMARK   11  A    between atoms: C_30  and  C_31
REMARK                            x       y       z     vdW  Elec       q    Type
REMARK                         _______ _______ _______ _____ _____    ______ ____
ROOT
ATOM      1  N   UNL     1       2.286   7.587  18.867  0.00  0.00    +0.000 N 
ATOM      2  C   UNL     1       1.733   8.744  18.358  0.00  0.00    +0.000 C 
ATOM      3  O   UNL     1       1.951   9.140  17.215  0.00  0.00    +0.000 OA
ATOM      4  N   UNL     1       0.833   9.387  19.206  0.00  0.00    +0.000 N 
ATOM      5  C   UNL     1      -0.034  10.405  18.617  0.00  0.00    +0.000 C 
ATOM      6  C   UNL     1      -0.247  11.567  19.544  0.00  0.00    +0.000 C 
ATOM      7  C   UNL     1       0.180  11.610  20.819  0.00  0.00    +0.000 C 
ATOM      8  C   UNL     1       0.881  10.439  21.448  0.00  0.00    +0.000 C 
ATOM      9  C   UNL     1       0.641   9.150  20.646  0.00  0.00    +0.000 C 
ATOM     10  H   UNL     1       1.650   7.073  19.456  0.00  0.00    +0.000 HD
ENDROOT
BRANCH   7  11
ATOM     11  C   UNL     1      -0.085  12.789  21.648  0.00  0.00    +0.000 A 
ATOM     12  N   UNL     1       0.706  13.852  21.370  0.00  0.00    +0.000 NA
ATOM     13  C   UNL     1       0.585  14.951  22.148  0.00  0.00    +0.000 A 
ATOM     14  C   UNL     1      -0.331  15.074  23.199  0.00  0.00    +0.000 A 
ATOM     15  C   UNL     1      -1.142  13.964  23.456  0.00  0.00    +0.000 A 
ATOM     16  C   UNL     1      -1.026  12.804  22.684  0.00  0.00    +0.000 A 
ATOM     17 CL   UNL     1      -2.038  11.458  23.051  0.00  0.00    +0.000 Cl
BRANCH  14  18
ATOM     18  C   UNL     1      -0.390  16.344  24.017  0.00  0.00    +0.000 C 
BRANCH  18  19
ATOM     19  O   UNL     1       0.921  16.897  24.166  0.00  0.00    +0.000 OA
ATOM     20  H   UNL     1       1.451  16.211  24.619  0.00  0.00    +0.000 HD
ENDBRANCH  18  19
BRANCH  18  21
ATOM     21  C   UNL     1      -1.000  16.151  25.419  0.00  0.00    +0.000 C 
BRANCH  21  22
ATOM     22  O   UNL     1       0.024  15.806  26.359  0.00  0.00    +0.000 OA
ATOM     23  H   UNL     1      -0.327  15.096  26.926  0.00  0.00    +0.000 HD
ENDBRANCH  21  22
ENDBRANCH  18  21
ENDBRANCH  14  18
ENDBRANCH   7  11
BRANCH   1  26
ATOM     24  C   UNL     1       4.157   4.645  17.415  0.00  0.00    +0.000 A 
ATOM     25  C   UNL     1       3.275   5.399  18.228  0.00  0.00    +0.000 A 
ATOM     26  C   UNL     1       3.227   6.798  18.160  0.00  0.00    +0.000 A 
ATOM     27  C   UNL     1       4.117   7.456  17.321  0.00  0.00    +0.000 A 
ATOM     28  C   UNL     1       4.989   6.727  16.514  0.00  0.00    +0.000 A 
ATOM     29  C   UNL     1       4.971   5.312  16.485  0.00  0.00    +0.000 A 
BRANCH  29  30
ATOM     30  C   UNL     1       5.810   4.693  15.392  0.00  0.00    +0.000 C 
ATOM     31  F   UNL     1       7.088   5.136  15.280  0.00  0.00    +0.000 F 
ATOM     32  F   UNL     1       5.936   3.339  15.552  0.00  0.00    +0.000 F 
ATOM     33  F   UNL     1       5.245   4.856  14.162  0.00  0.00    +0.000 F 
ENDBRANCH  29  30
BRANCH  24  34
ATOM     34  O   UNL     1       4.057   3.292  17.618  0.00  0.00    +0.000 OA
BRANCH  34  35
ATOM     35  C   UNL     1       3.220   2.827  18.674  0.00  0.00    +0.000 C 
BRANCH  35  37
ATOM     36  C   UNL     1       0.777   2.435  19.017  0.00  0.00    +0.000 C 
ATOM     37  C   UNL     1       1.978   2.127  18.133  0.00  0.00    +0.000 C 
ENDBRANCH  35  37
ENDBRANCH  34  35
ENDBRANCH  24  34
ENDBRANCH   1  26
TORSDOF 10
ENDMDL
MODEL 6
REMARK VINA RESULT:      -7.8      5.806     11.792
REMARK  Name = 
REMARK  11 active torsions:
REMARK  status: ('A' for Active; 'I' for Inactive)
REMARK    1  A    between atoms: C_1  and  C_2
REMARK    2  A    between atoms: C_2  and  C_3
REMARK    3  A    between atoms: C_3  and  O_4
REMARK    4  A    between atoms: O_4  and  C_5
REMARK    5  A    between atoms: C_7  and  N_8
REMARK    6  A    between atoms: C_14  and  C_15
REMARK    7  A    between atoms: C_18  and  C_19
REMARK    8  A    between atoms: C_19  and  O_20
REMARK    9  A    between atoms: C_19  and  C_21
REMARK   10  A    between atoms: C_21  and  O_22
REMARK   11  A    between atoms: C_30  and  C_31
REMARK                            x       y       z     vdW  Elec       q    Type
REMARK                         _______ _______ _______ _____ _____    ______ ____
ROOT
ATOM      1  N   UNL     1       0.135  11.816  19.229  0.00  0.00    +0.000 N 
ATOM      2  C   UNL     1       0.794  10.910  20.031  0.00  0.00    +0.000 C 
ATOM      3  O   UNL     1       1.153  11.172  21.177  0.00  0.00    +0.000 OA
ATOM      4  N   UNL     1       0.946   9.638  19.480  0.00  0.00    +0.000 N 
ATOM      5  C   UNL     1       1.318   8.554  20.386  0.00  0.00    +0.000 C 
ATOM      6  C   UNL     1       2.272   7.588  19.745  0.00  0.00    +0.000 C 
ATOM      7  C   UNL     1       2.630   7.623  18.449  0.00  0.00    +0.000 C 
ATOM      8  C   UNL     1       2.045   8.633  17.502  0.00  0.00    +0.000 C 
ATOM      9  C   UNL     1       0.759   9.250  18.073  0.00  0.00    +0.000 C 
ATOM     10  H   UNL     1      -0.585  11.392  18.665  0.00  0.00    +0.000 HD
ENDROOT
BRANCH   7  11
ATOM     11  C   UNL     1       3.565   6.628  17.913  0.00  0.00    +0.000 A 
ATOM     12  N   UNL     1       4.756   7.139  17.523  0.00  0.00    +0.000 NA
ATOM     13  C   UNL     1       5.642   6.302  16.937  0.00  0.00    +0.000 A 
ATOM     14  C   UNL     1       5.421   4.934  16.741  0.00  0.00    +0.000 A 
ATOM     15  C   UNL     1       4.186   4.433  17.165  0.00  0.00    +0.000 A 
ATOM     16  C   UNL     1       3.239   5.276  17.754  0.00  0.00    +0.000 A 
ATOM     17 CL   UNL     1       1.727   4.612  18.245  0.00  0.00    +0.000 Cl
BRANCH  14  18
ATOM     18  C   UNL     1       6.472   4.078  16.073  0.00  0.00    +0.000 C 
BRANCH  18  19
ATOM     19  O   UNL     1       7.702   4.147  16.801  0.00  0.00    +0.000 OA
ATOM     20  H   UNL     1       8.388   3.788  16.204  0.00  0.00    +0.000 HD
ENDBRANCH  18  19
BRANCH  18  21
ATOM     21  C   UNL     1       6.751   4.469  14.608  0.00  0.00    +0.000 C 
BRANCH  21  22
ATOM     22  O   UNL     1       6.355   3.409  13.732  0.00  0.00    +0.000 OA
ATOM     23  H   UNL     1       7.107   2.793  13.659  0.00  0.00    +0.000 HD
ENDBRANCH  21  22
ENDBRANCH  18  21
ENDBRANCH  14  18
ENDBRANCH   7  11
BRANCH   1  26
ATOM     24  C   UNL     1       0.434  15.560  19.628  0.00  0.00    +0.000 A 
ATOM     25  C   UNL     1       0.771  14.216  19.332  0.00  0.00    +0.000 A 
ATOM     26  C   UNL     1      -0.108  13.160  19.609  0.00  0.00    +0.000 A 
ATOM     27  C   UNL     1      -1.308  13.440  20.250  0.00  0.00    +0.000 A 
ATOM     28  C   UNL     1      -1.653  14.758  20.545  0.00  0.00    +0.000 A 
ATOM     29  C   UNL     1      -0.830  15.847  20.168  0.00  0.00    +0.000 A 
BRANCH  29  30
ATOM     30  C   UNL     1      -1.461  17.207  20.354  0.00  0.00    +0.000 C 
ATOM     31  F   UNL     1      -2.691  17.236  20.927  0.00  0.00    +0.000 F 
ATOM     32  F   UNL     1      -0.698  18.017  21.153  0.00  0.00    +0.000 F 
ATOM     33  F   UNL     1      -1.579  17.879  19.174  0.00  0.00    +0.000 F 
ENDBRANCH  29  30
BRANCH  24  34
ATOM     34  O   UNL     1       1.415  16.454  19.281  0.00  0.00    +0.000 OA
BRANCH  34  35
ATOM     35  C   UNL     1       2.371  16.060  18.299  0.00  0.00    +0.000 C 
BRANCH  35  37
ATOM     36  C   UNL     1       1.300  18.020  17.181  0.00  0.00    +0.000 C 
ATOM     37  C   UNL     1       2.531  17.124  17.220  0.00  0.00    +0.000 C 
ENDBRANCH  35  37
ENDBRANCH  34  35
ENDBRANCH  24  34
ENDBRANCH   1  26
TORSDOF 10
ENDMDL
MODEL 7
REMARK VINA RESULT:      -7.7      5.410     11.689
REMARK  Name = 
REMARK  11 active torsions:
REMARK  status: ('A' for Active; 'I' for Inactive)
REMARK    1  A    between atoms: C_1  and  C_2
REMARK    2  A    between atoms: C_2  and  C_3
REMARK    3  A    between atoms: C_3  and  O_4
REMARK    4  A    between atoms: O_4  and  C_5
REMARK    5  A    between atoms: C_7  and  N_8
REMARK    6  A    between atoms: C_14  and  C_15
REMARK    7  A    between atoms: C_18  and  C_19
REMARK    8  A    between atoms: C_19  and  O_20
REMARK    9  A    between atoms: C_19  and  C_21
REMARK   10  A    between atoms: C_21  and  O_22
REMARK   11  A    between atoms: C_30  and  C_31
REMARK                            x       y       z     vdW  Elec       q    Type
REMARK                         _______ _______ _______ _____ _____    ______ ____
ROOT
ATOM      1  N   UNL     1       0.242  11.678  19.743  0.00  0.00    +0.000 N 
ATOM      2  C   UNL     1       0.820  10.638  20.440  0.00  0.00    +0.000 C 
ATOM      3  O   UNL     1       1.104  10.713  21.634  0.00  0.00    +0.000 OA
ATOM      4  N   UNL     1       0.979   9.460  19.713  0.00  0.00    +0.000 N 
ATOM      5  C   UNL     1       1.260   8.239  20.466  0.00  0.00    +0.000 C 
ATOM      6  C   UNL     1       2.233   7.348  19.750  0.00  0.00    +0.000 C 
ATOM      7  C   UNL     1       2.682   7.564  18.501  0.00  0.00    +0.000 C 
ATOM      8  C   UNL     1       2.190   8.724  17.682  0.00  0.00    +0.000 C 
ATOM      9  C   UNL     1       0.882   9.293  18.254  0.00  0.00    +0.000 C 
ATOM     10  H   UNL     1      -0.447  11.368  19.075  0.00  0.00    +0.000 HD
ENDROOT
BRANCH   7  11
ATOM     11  C   UNL     1       3.628   6.629  17.883  0.00  0.00    +0.000 A 
ATOM     12  N   UNL     1       4.794   7.195  17.494  0.00  0.00    +0.000 NA
ATOM     13  C   UNL     1       5.685   6.419  16.838  0.00  0.00    +0.000 A 
ATOM     14  C   UNL     1       5.495   5.059  16.566  0.00  0.00    +0.000 A 
ATOM     15  C   UNL     1       4.285   4.500  16.989  0.00  0.00    +0.000 A 
ATOM     16  C   UNL     1       3.333   5.280  17.652  0.00  0.00    +0.000 A 
ATOM     17 CL   UNL     1       1.852   4.547  18.139  0.00  0.00    +0.000 Cl
BRANCH  14  18
ATOM     18  C   UNL     1       6.550   4.273  15.821  0.00  0.00    +0.000 C 
BRANCH  18  19
ATOM     19  O   UNL     1       7.823   4.431  16.455  0.00  0.00    +0.000 OA
ATOM     20  H   UNL     1       8.416   4.808  15.775  0.00  0.00    +0.000 HD
ENDBRANCH  18  19
BRANCH  18  21
ATOM     21  C   UNL     1       6.691   4.674  14.339  0.00  0.00    +0.000 C 
BRANCH  21  22
ATOM     22  O   UNL     1       7.874   5.457  14.151  0.00  0.00    +0.000 OA
ATOM     23  H   UNL     1       8.184   5.734  15.031  0.00  0.00    +0.000 HD
ENDBRANCH  21  22
ENDBRANCH  18  21
ENDBRANCH  14  18
ENDBRANCH   7  11
BRANCH   1  26
ATOM     24  C   UNL     1      -1.219  14.513  21.767  0.00  0.00    +0.000 A 
ATOM     25  C   UNL     1      -1.086  13.252  21.133  0.00  0.00    +0.000 A 
ATOM     26  C   UNL     1       0.006  12.956  20.306  0.00  0.00    +0.000 A 
ATOM     27  C   UNL     1       0.941  13.953  20.053  0.00  0.00    +0.000 A 
ATOM     28  C   UNL     1       0.824  15.196  20.672  0.00  0.00    +0.000 A 
ATOM     29  C   UNL     1      -0.209  15.474  21.600  0.00  0.00    +0.000 A 
BRANCH  29  30
ATOM     30  C   UNL     1      -0.051  16.778  22.346  0.00  0.00    +0.000 C 
ATOM     31  F   UNL     1      -0.175  16.727  23.696  0.00  0.00    +0.000 F 
ATOM     32  F   UNL     1       1.184  17.333  22.143  0.00  0.00    +0.000 F 
ATOM     33  F   UNL     1      -0.940  17.719  21.920  0.00  0.00    +0.000 F 
ENDBRANCH  29  30
BRANCH  24  34
ATOM     34  O   UNL     1      -2.347  14.614  22.540  0.00  0.00    +0.000 OA
BRANCH  34  35
ATOM     35  C   UNL     1      -2.345  13.993  23.824  0.00  0.00    +0.000 C 
BRANCH  35  37
ATOM     36  C   UNL     1      -3.417  16.205  24.264  0.00  0.00    +0.000 C 
ATOM     37  C   UNL     1      -3.071  14.845  24.857  0.00  0.00    +0.000 C 
ENDBRANCH  35  37
ENDBRANCH  34  35
ENDBRANCH  24  34
ENDBRANCH   1  26
TORSDOF 10
ENDMDL
MODEL 8
REMARK VINA RESULT:      -7.7      0.756      1.134
REMARK  Name = 
REMARK  11 active torsions:
REMARK  status: ('A' for Active; 'I' for Inactive)
REMARK    1  A    between atoms: C_1  and  C_2
REMARK    2  A    between atoms: C_2  and  C_3
REMARK    3  A    between atoms: C_3  and  O_4
REMARK    4  A    between atoms: O_4  and  C_5
REMARK    5  A    between atoms: C_7  and  N_8
REMARK    6  A    between atoms: C_14  and  C_15
REMARK    7  A    between atoms: C_18  and  C_19
REMARK    8  A    between atoms: C_19  and  O_20
REMARK    9  A    between atoms: C_19  and  C_21
REMARK   10  A    between atoms: C_21  and  O_22
REMARK   11  A    between atoms: C_30  and  C_31
REMARK                            x       y       z     vdW  Elec       q    Type
REMARK                         _______ _______ _______ _____ _____    ______ ____
ROOT
ATOM      1  N   UNL     1       2.198   7.589  18.929  0.00  0.00    +0.000 N 
ATOM      2  C   UNL     1       1.697   8.761  18.404  0.00  0.00    +0.000 C 
ATOM      3  O   UNL     1       1.930   9.131  17.255  0.00  0.00    +0.000 OA
ATOM      4  N   UNL     1       0.829   9.458  19.244  0.00  0.00    +0.000 N 
ATOM      5  C   UNL     1       0.007  10.505  18.642  0.00  0.00    +0.000 C 
ATOM      6  C   UNL     1      -0.151  11.688  19.552  0.00  0.00    +0.000 C 
ATOM      7  C   UNL     1       0.280  11.730  20.825  0.00  0.00    +0.000 C 
ATOM      8  C   UNL     1       0.929  10.538  21.470  0.00  0.00    +0.000 C 
ATOM      9  C   UNL     1       0.630   9.250  20.687  0.00  0.00    +0.000 C 
ATOM     10  H   UNL     1       1.541   7.113  19.527  0.00  0.00    +0.000 HD
ENDROOT
BRANCH   7  11
ATOM     11  C   UNL     1       0.070  12.933  21.637  0.00  0.00    +0.000 A 
ATOM     12  N   UNL     1      -0.989  12.857  22.477  0.00  0.00    +0.000 NA
ATOM     13  C   UNL     1      -1.303  13.956  23.199  0.00  0.00    +0.000 A 
ATOM     14  C   UNL     1      -0.583  15.156  23.160  0.00  0.00    +0.000 A 
ATOM     15  C   UNL     1       0.511  15.201  22.291  0.00  0.00    +0.000 A 
ATOM     16  C   UNL     1       0.851  14.088  21.514  0.00  0.00    +0.000 A 
ATOM     17 CL   UNL     1       2.199  14.200  20.448  0.00  0.00    +0.000 Cl
BRANCH  14  18
ATOM     18  C   UNL     1      -1.015  16.334  24.003  0.00  0.00    +0.000 C 
BRANCH  18  19
ATOM     19  O   UNL     1      -1.298  17.462  23.168  0.00  0.00    +0.000 OA
ATOM     20  H   UNL     1      -2.267  17.584  23.203  0.00  0.00    +0.000 HD
ENDBRANCH  18  19
BRANCH  18  21
ATOM     21  C   UNL     1       0.028  16.758  25.056  0.00  0.00    +0.000 C 
BRANCH  21  22
ATOM     22  O   UNL     1      -0.005  15.859  26.170  0.00  0.00    +0.000 OA
ATOM     23  H   UNL     1      -0.940  15.690  26.382  0.00  0.00    +0.000 HD
ENDBRANCH  21  22
ENDBRANCH  18  21
ENDBRANCH  14  18
ENDBRANCH   7  11
BRANCH   1  26
ATOM     24  C   UNL     1       3.706   4.649  17.098  0.00  0.00    +0.000 A 
ATOM     25  C   UNL     1       2.821   5.417  17.896  0.00  0.00    +0.000 A 
ATOM     26  C   UNL     1       3.101   6.748  18.232  0.00  0.00    +0.000 A 
ATOM     27  C   UNL     1       4.310   7.299  17.826  0.00  0.00    +0.000 A 
ATOM     28  C   UNL     1       5.188   6.556  17.039  0.00  0.00    +0.000 A 
ATOM     29  C   UNL     1       4.870   5.251  16.593  0.00  0.00    +0.000 A 
BRANCH  29  30
ATOM     30  C   UNL     1       5.822   4.686  15.565  0.00  0.00    +0.000 C 
ATOM     31  F   UNL     1       6.935   5.416  15.299  0.00  0.00    +0.000 F 
ATOM     32  F   UNL     1       6.304   3.460  15.938  0.00  0.00    +0.000 F 
ATOM     33  F   UNL     1       5.211   4.479  14.364  0.00  0.00    +0.000 F 
ENDBRANCH  29  30
BRANCH  24  34
ATOM     34  O   UNL     1       3.261   3.372  16.870  0.00  0.00    +0.000 OA
BRANCH  34  35
ATOM     35  C   UNL     1       2.649   2.667  17.949  0.00  0.00    +0.000 C 
BRANCH  35  37
ATOM     36  C   UNL     1       4.232   2.230  19.831  0.00  0.00    +0.000 C 
ATOM     37  C   UNL     1       3.607   1.655  18.566  0.00  0.00    +0.000 C 
ENDBRANCH  35  37
ENDBRANCH  34  35
ENDBRANCH  24  34
ENDBRANCH   1  26
TORSDOF 10
ENDMDL
MODEL 9
REMARK VINA RESULT:      -7.6      2.959      3.907
REMARK  Name = 
REMARK  11 active torsions:
REMARK  status: ('A' for Active; 'I' for Inactive)
REMARK    1  A    between atoms: C_1  and  C_2
REMARK    2  A    between atoms: C_2  and  C_3
REMARK    3  A    between atoms: C_3  and  O_4
REMARK    4  A    between atoms: O_4  and  C_5
REMARK    5  A    between atoms: C_7  and  N_8
REMARK    6  A    between atoms: C_14  and  C_15
REMARK    7  A    between atoms: C_18  and  C_19
REMARK    8  A    between atoms: C_19  and  O_20
REMARK    9  A    between atoms: C_19  and  C_21
REMARK   10  A    between atoms: C_21  and  O_22
REMARK   11  A    between atoms: C_30  and  C_31
REMARK                            x       y       z     vdW  Elec       q    Type
REMARK                         _______ _______ _______ _____ _____    ______ ____
ROOT
ATOM      1  N   UNL     1       2.206   7.690  19.102  0.00  0.00    +0.000 N 
ATOM      2  C   UNL     1       1.590   7.932  20.311  0.00  0.00    +0.000 C 
ATOM      3  O   UNL     1       1.446   7.066  21.171  0.00  0.00    +0.000 OA
ATOM      4  N   UNL     1       1.221   9.259  20.527  0.00  0.00    +0.000 N 
ATOM      5  C   UNL     1       0.885   9.648  21.895  0.00  0.00    +0.000 C 
ATOM      6  C   UNL     1      -0.255  10.625  21.937  0.00  0.00    +0.000 C 
ATOM      7  C   UNL     1      -0.808  11.194  20.851  0.00  0.00    +0.000 C 
ATOM      8  C   UNL     1      -0.277  10.925  19.472  0.00  0.00    +0.000 C 
ATOM      9  C   UNL     1       1.141  10.335  19.527  0.00  0.00    +0.000 C 
ATOM     10  H   UNL     1       2.779   8.458  18.791  0.00  0.00    +0.000 HD
ENDROOT
BRANCH   7  11
ATOM     11  C   UNL     1      -1.914  12.145  20.997  0.00  0.00    +0.000 A 
ATOM     12  N   UNL     1      -1.901  12.837  22.161  0.00  0.00    +0.000 NA
ATOM     13  C   UNL     1      -2.935  13.671  22.412  0.00  0.00    +0.000 A 
ATOM     14  C   UNL     1      -4.000  13.892  21.531  0.00  0.00    +0.000 A 
ATOM     15  C   UNL     1      -3.981  13.171  20.333  0.00  0.00    +0.000 A 
ATOM     16  C   UNL     1      -2.937  12.284  20.052  0.00  0.00    +0.000 A 
ATOM     17 CL   UNL     1      -2.968  11.408  18.568  0.00  0.00    +0.000 Cl
BRANCH  14  18
ATOM     18  C   UNL     1      -5.115  14.843  21.902  0.00  0.00    +0.000 C 
BRANCH  18  19
ATOM     19  O   UNL     1      -4.572  16.079  22.379  0.00  0.00    +0.000 OA
ATOM     20  H   UNL     1      -3.612  15.926  22.484  0.00  0.00    +0.000 HD
ENDBRANCH  18  19
BRANCH  18  21
ATOM     21  C   UNL     1      -6.074  14.287  22.972  0.00  0.00    +0.000 C 
BRANCH  21  22
ATOM     22  O   UNL     1      -5.813  14.905  24.236  0.00  0.00    +0.000 OA
ATOM     23  H   UNL     1      -6.398  15.681  24.309  0.00  0.00    +0.000 HD
ENDBRANCH  21  22
ENDBRANCH  18  21
ENDBRANCH  14  18
ENDBRANCH   7  11
BRANCH   1  26
ATOM     24  C   UNL     1       4.308   4.594  18.586  0.00  0.00    +0.000 A 
ATOM     25  C   UNL     1       3.946   5.927  18.904  0.00  0.00    +0.000 A 
ATOM     26  C   UNL     1       2.645   6.405  18.696  0.00  0.00    +0.000 A 
ATOM     27  C   UNL     1       1.713   5.565  18.100  0.00  0.00    +0.000 A 
ATOM     28  C   UNL     1       2.055   4.251  17.784  0.00  0.00    +0.000 A 
ATOM     29  C   UNL     1       3.329   3.717  18.093  0.00  0.00    +0.000 A 
BRANCH  29  30
ATOM     30  C   UNL     1       3.450   2.224  17.897  0.00  0.00    +0.000 C 
ATOM     31  F   UNL     1       4.468   1.793  17.111  0.00  0.00    +0.000 F 
ATOM     32  F   UNL     1       3.641   1.569  19.085  0.00  0.00    +0.000 F 
ATOM     33  F   UNL     1       2.312   1.685  17.372  0.00  0.00    +0.000 F 
ENDBRANCH  29  30
BRANCH  24  34
ATOM     34  O   UNL     1       5.621   4.308  18.863  0.00  0.00    +0.000 OA
BRANCH  34  35
ATOM     35  C   UNL     1       6.452   5.359  19.352  0.00  0.00    +0.000 C 
BRANCH  35  37
ATOM     36  C   UNL     1       7.288   6.772  17.470  0.00  0.00    +0.000 C 
ATOM     37  C   UNL     1       7.623   5.624  18.413  0.00  0.00    +0.000 C 
ENDBRANCH  35  37
ENDBRANCH  34  35
ENDBRANCH  24  34
ENDBRANCH   1  26
TORSDOF 10
ENDMDL
