MODEL 1
REMARK VINA RESULT:      -7.5      0.000      0.000
REMARK  Name = 
REMARK  12 active torsions:
REMARK  status: ('A' for Active; 'I' for Inactive)
REMARK    1  A    between atoms: C_1  and  C_2
REMARK    2  A    between atoms: C_2  and  C_3
REMARK    3  A    between atoms: C_3  and  C_4
REMARK    4  A    between atoms: C_4  and  C_5
REMARK    5  A    between atoms: C_5  and  C_6
REMARK    6  A    between atoms: C_6  and  C_7
REMARK    7  A    between atoms: C_10  and  N_11
REMARK    8  A    between atoms: N_11  and  C_12
REMARK    9  A    between atoms: N_19  and  C_20
REMARK   10  A    between atoms: C_20  and  C_21
REMARK   11  A    between atoms: C_21  and  O_22
REMARK   12  A    between atoms: O_22  and  C_23
REMARK                            x       y       z     vdW  Elec       q    Type
REMARK                         _______ _______ _______ _____ _____    ______ ____
ROOT
ATOM      1  N   UNL     1       2.742   6.033  20.283  0.00  0.00    +0.000 N 
ATOM      2  H   UNL     1       2.004   5.549  20.783  0.00  0.00    +0.000 HD
ENDROOT
BRANCH   1   3
ATOM      3  C   UNL     1       3.475   5.186  19.452  0.00  0.00    +0.000 A 
ATOM      4  C   UNL     1       4.810   5.367  19.423  0.00  0.00    +0.000 A 
ATOM      5  C   UNL     1       5.683   4.505  18.633  0.00  0.00    +0.000 A 
ATOM      6  O   UNL     1       6.888   4.695  18.575  0.00  0.00    +0.000 OA
ATOM      7  N   UNL     1       5.059   3.485  17.993  0.00  0.00    +0.000 N 
ATOM      8  C   UNL     1       3.713   3.267  17.962  0.00  0.00    +0.000 A 
ATOM      9  O   UNL     1       3.288   2.301  17.329  0.00  0.00    +0.000 OA
ATOM     10  N   UNL     1       2.914   4.158  18.685  0.00  0.00    +0.000 N 
ATOM     11  H   UNL     1       5.633   2.848  17.466  0.00  0.00    +0.000 HD
BRANCH  10  12
ATOM     12  C   UNL     1       1.468   3.902  18.650  0.00  0.00    +0.000 C 
BRANCH  12  13
ATOM     13  C   UNL     1       0.789   3.383  19.932  0.00  0.00    +0.000 C 
BRANCH  13  14
ATOM     14  O   UNL     1       1.472   2.277  20.526  0.00  0.00    +0.000 OA
ATOM     15  C   UNL     1       2.046   2.658  21.776  0.00  0.00    +0.000 C 
ENDBRANCH  13  14
ENDBRANCH  12  13
ENDBRANCH  10  12
ENDBRANCH   1   3
BRANCH   1  19
ATOM     16  C   UNL     1       1.043   9.685  18.960  0.00  0.00    +0.000 A 
ATOM     17  C   UNL     1       1.821   8.914  18.088  0.00  0.00    +0.000 A 
ATOM     18  C   UNL     1       2.410   7.731  18.521  0.00  0.00    +0.000 A 
ATOM     19  C   UNL     1       2.252   7.295  19.840  0.00  0.00    +0.000 A 
ATOM     20  C   UNL     1       1.528   8.096  20.731  0.00  0.00    +0.000 A 
ATOM     21  C   UNL     1       0.930   9.284  20.295  0.00  0.00    +0.000 A 
BRANCH  16  22
ATOM     22  C   UNL     1       0.298  10.889  18.432  0.00  0.00    +0.000 C 
BRANCH  22  23
ATOM     23  C   UNL     1      -1.207  10.605  18.399  0.00  0.00    +0.000 C 
BRANCH  23  24
ATOM     24  C   UNL     1      -1.620   9.688  17.252  0.00  0.00    +0.000 C 
BRANCH  24  25
ATOM     25  C   UNL     1      -3.041  10.039  16.810  0.00  0.00    +0.000 C 
BRANCH  25  27
ATOM     26  C   UNL     1      -3.483  10.132  14.347  0.00  0.00    +0.000 C 
ATOM     27  C   UNL     1      -3.060  10.929  15.572  0.00  0.00    +0.000 C 
ENDBRANCH  25  27
ENDBRANCH  24  25
ENDBRANCH  23  24
ENDBRANCH  22  23
ENDBRANCH  16  22
ENDBRANCH   1  19
TORSDOF 10
ENDMDL
MODEL 2
REMARK VINA RESULT:      -7.3      1.385      3.272
REMARK  Name = 
REMARK  12 active torsions:
REMARK  status: ('A' for Active; 'I' for Inactive)
REMARK    1  A    between atoms: C_1  and  C_2
REMARK    2  A    between atoms: C_2  and  C_3
REMARK    3  A    between atoms: C_3  and  C_4
REMARK    4  A    between atoms: C_4  and  C_5
REMARK    5  A    between atoms: C_5  and  C_6
REMARK    6  A    between atoms: C_6  and  C_7
REMARK    7  A    between atoms: C_10  and  N_11
REMARK    8  A    between atoms: N_11  and  C_12
REMARK    9  A    between atoms: N_19  and  C_20
REMARK   10  A    between atoms: C_20  and  C_21
REMARK   11  A    between atoms: C_21  and  O_22
REMARK   12  A    between atoms: O_22  and  C_23
REMARK                            x       y       z     vdW  Elec       q    Type
REMARK                         _______ _______ _______ _____ _____    ______ ____
ROOT
ATOM      1  N   UNL     1       3.172   6.207  19.895  0.00  0.00    +0.000 N 
ATOM      2  H   UNL     1       3.763   6.390  20.699  0.00  0.00    +0.000 HD
ENDROOT
BRANCH   1   3
ATOM      3  C   UNL     1       2.699   4.895  19.862  0.00  0.00    +0.000 A 
ATOM      4  C   UNL     1       2.208   4.395  21.014  0.00  0.00    +0.000 A 
ATOM      5  C   UNL     1       1.636   3.055  21.085  0.00  0.00    +0.000 A 
ATOM      6  O   UNL     1       1.230   2.587  22.138  0.00  0.00    +0.000 OA
ATOM      7  N   UNL     1       1.579   2.390  19.904  0.00  0.00    +0.000 N 
ATOM      8  C   UNL     1       2.082   2.830  18.715  0.00  0.00    +0.000 A 
ATOM      9  O   UNL     1       1.964   2.110  17.724  0.00  0.00    +0.000 OA
ATOM     10  N   UNL     1       2.676   4.095  18.713  0.00  0.00    +0.000 N 
ATOM     11  H   UNL     1       1.158   1.476  19.907  0.00  0.00    +0.000 HD
BRANCH  10  12
ATOM     12  C   UNL     1       3.202   4.559  17.422  0.00  0.00    +0.000 C 
BRANCH  12  13
ATOM     13  C   UNL     1       4.667   4.233  17.074  0.00  0.00    +0.000 C 
BRANCH  13  14
ATOM     14  O   UNL     1       5.101   4.821  15.846  0.00  0.00    +0.000 OA
ATOM     15  C   UNL     1       6.443   4.430  15.554  0.00  0.00    +0.000 C 
ENDBRANCH  13  14
ENDBRANCH  12  13
ENDBRANCH  10  12
ENDBRANCH   1   3
BRANCH   1  19
ATOM     16  C   UNL     1       0.845   9.693  19.257  0.00  0.00    +0.000 A 
ATOM     17  C   UNL     1       0.834   9.058  20.505  0.00  0.00    +0.000 A 
ATOM     18  C   UNL     1       1.568   7.895  20.716  0.00  0.00    +0.000 A 
ATOM     19  C   UNL     1       2.318   7.327  19.682  0.00  0.00    +0.000 A 
ATOM     20  C   UNL     1       2.279   7.923  18.417  0.00  0.00    +0.000 A 
ATOM     21  C   UNL     1       1.546   9.096  18.204  0.00  0.00    +0.000 A 
BRANCH  16  22
ATOM     22  C   UNL     1       0.156  11.027  19.090  0.00  0.00    +0.000 C 
BRANCH  22  23
ATOM     23  C   UNL     1      -0.891  10.944  17.974  0.00  0.00    +0.000 C 
BRANCH  23  24
ATOM     24  C   UNL     1      -2.105  10.100  18.350  0.00  0.00    +0.000 C 
BRANCH  24  25
ATOM     25  C   UNL     1      -3.179  10.250  17.272  0.00  0.00    +0.000 C 
BRANCH  25  27
ATOM     26  C   UNL     1      -3.173  10.438  14.775  0.00  0.00    +0.000 C 
ATOM     27  C   UNL     1      -2.786   9.572  15.965  0.00  0.00    +0.000 C 
ENDBRANCH  25  27
ENDBRANCH  24  25
ENDBRANCH  23  24
ENDBRANCH  22  23
ENDBRANCH  16  22
ENDBRANCH   1  19
TORSDOF 10
ENDMDL
MODEL 3
REMARK VINA RESULT:      -7.3      1.096      3.044
REMARK  Name = 
REMARK  12 active torsions:
REMARK  status: ('A' for Active; 'I' for Inactive)
REMARK    1  A    between atoms: C_1  and  C_2
REMARK    2  A    between atoms: C_2  and  C_3
REMARK    3  A    between atoms: C_3  and  C_4
REMARK    4  A    between atoms: C_4  and  C_5
REMARK    5  A    between atoms: C_5  and  C_6
REMARK    6  A    between atoms: C_6  and  C_7
REMARK    7  A    between atoms: C_10  and  N_11
REMARK    8  A    between atoms: N_11  and  C_12
REMARK    9  A    between atoms: N_19  and  C_20
REMARK   10  A    between atoms: C_20  and  C_21
REMARK   11  A    between atoms: C_21  and  O_22
REMARK   12  A    between atoms: O_22  and  C_23
REMARK                            x       y       z     vdW  Elec       q    Type
REMARK                         _______ _______ _______ _____ _____    ______ ____
ROOT
ATOM      1  N   UNL     1       3.355   6.111  19.905  0.00  0.00    +0.000 N 
ATOM      2  H   UNL     1       3.903   6.358  20.722  0.00  0.00    +0.000 HD
ENDROOT
BRANCH   1   3
ATOM      3  C   UNL     1       2.941   4.779  19.916  0.00  0.00    +0.000 A 
ATOM      4  C   UNL     1       2.333   4.340  21.037  0.00  0.00    +0.000 A 
ATOM      5  C   UNL     1       1.808   2.983  21.142  0.00  0.00    +0.000 A 
ATOM      6  O   UNL     1       1.296   2.573  22.172  0.00  0.00    +0.000 OA
ATOM      7  N   UNL     1       1.921   2.233  20.017  0.00  0.00    +0.000 N 
ATOM      8  C   UNL     1       2.547   2.610  18.866  0.00  0.00    +0.000 A 
ATOM      9  O   UNL     1       2.579   1.816  17.926  0.00  0.00    +0.000 OA
ATOM     10  N   UNL     1       3.088   3.899  18.838  0.00  0.00    +0.000 N 
ATOM     11  H   UNL     1       1.539   1.302  20.041  0.00  0.00    +0.000 HD
BRANCH  10  12
ATOM     12  C   UNL     1       3.749   4.293  17.585  0.00  0.00    +0.000 C 
BRANCH  12  13
ATOM     13  C   UNL     1       5.223   4.738  17.650  0.00  0.00    +0.000 C 
BRANCH  13  14
ATOM     14  O   UNL     1       5.878   4.352  18.860  0.00  0.00    +0.000 OA
ATOM     15  C   UNL     1       6.799   5.363  19.272  0.00  0.00    +0.000 C 
ENDBRANCH  13  14
ENDBRANCH  12  13
ENDBRANCH  10  12
ENDBRANCH   1   3
BRANCH   1  19
ATOM     16  C   UNL     1       0.911   9.453  18.991  0.00  0.00    +0.000 A 
ATOM     17  C   UNL     1       0.912   8.914  20.283  0.00  0.00    +0.000 A 
ATOM     18  C   UNL     1       1.685   7.797  20.586  0.00  0.00    +0.000 A 
ATOM     19  C   UNL     1       2.464   7.180  19.602  0.00  0.00    +0.000 A 
ATOM     20  C   UNL     1       2.415   7.678  18.295  0.00  0.00    +0.000 A 
ATOM     21  C   UNL     1       1.642   8.805  17.990  0.00  0.00    +0.000 A 
BRANCH  16  22
ATOM     22  C   UNL     1       0.177  10.745  18.720  0.00  0.00    +0.000 C 
BRANCH  22  23
ATOM     23  C   UNL     1      -1.323  10.476  18.563  0.00  0.00    +0.000 C 
BRANCH  23  24
ATOM     24  C   UNL     1      -2.114  11.710  18.139  0.00  0.00    +0.000 C 
BRANCH  24  25
ATOM     25  C   UNL     1      -2.756  11.455  16.775  0.00  0.00    +0.000 C 
BRANCH  25  27
ATOM     26  C   UNL     1      -3.013   9.851  14.869  0.00  0.00    +0.000 C 
ATOM     27  C   UNL     1      -2.611  10.004  16.329  0.00  0.00    +0.000 C 
ENDBRANCH  25  27
ENDBRANCH  24  25
ENDBRANCH  23  24
ENDBRANCH  22  23
ENDBRANCH  16  22
ENDBRANCH   1  19
TORSDOF 10
ENDMDL
MODEL 4
REMARK VINA RESULT:      -7.2      1.572      3.429
REMARK  Name = 
REMARK  12 active torsions:
REMARK  status: ('A' for Active; 'I' for Inactive)
REMARK    1  A    between atoms: C_1  and  C_2
REMARK    2  A    between atoms: C_2  and  C_3
REMARK    3  A    between atoms: C_3  and  C_4
REMARK    4  A    between atoms: C_4  and  C_5
REMARK    5  A    between atoms: C_5  and  C_6
REMARK    6  A    between atoms: C_6  and  C_7
REMARK    7  A    between atoms: C_10  and  N_11
REMARK    8  A    between atoms: N_11  and  C_12
REMARK    9  A    between atoms: N_19  and  C_20
REMARK   10  A    between atoms: C_20  and  C_21
REMARK   11  A    between atoms: C_21  and  O_22
REMARK   12  A    between atoms: O_22  and  C_23
REMARK                            x       y       z     vdW  Elec       q    Type
REMARK                         _______ _______ _______ _____ _____    ______ ____
ROOT
ATOM      1  N   UNL     1       3.215   6.158  17.831  0.00  0.00    +0.000 N 
ATOM      2  H   UNL     1       4.168   6.405  17.588  0.00  0.00    +0.000 HD
ENDROOT
BRANCH   1   3
ATOM      3  C   UNL     1       3.107   4.865  18.345  0.00  0.00    +0.000 A 
ATOM      4  C   UNL     1       1.950   4.213  18.114  0.00  0.00    +0.000 A 
ATOM      5  C   UNL     1       1.746   2.837  18.556  0.00  0.00    +0.000 A 
ATOM      6  O   UNL     1       0.683   2.261  18.383  0.00  0.00    +0.000 OA
ATOM      7  N   UNL     1       2.819   2.257  19.148  0.00  0.00    +0.000 N 
ATOM      8  C   UNL     1       4.003   2.871  19.433  0.00  0.00    +0.000 A 
ATOM      9  O   UNL     1       4.888   2.217  19.984  0.00  0.00    +0.000 OA
ATOM     10  N   UNL     1       4.126   4.209  19.044  0.00  0.00    +0.000 N 
ATOM     11  H   UNL     1       2.727   1.296  19.434  0.00  0.00    +0.000 HD
BRANCH  10  12
ATOM     12  C   UNL     1       5.412   4.852  19.348  0.00  0.00    +0.000 C 
BRANCH  12  13
ATOM     13  C   UNL     1       6.471   4.924  18.231  0.00  0.00    +0.000 C 
BRANCH  13  14
ATOM     14  O   UNL     1       5.924   4.760  16.922  0.00  0.00    +0.000 OA
ATOM     15  C   UNL     1       6.958   4.457  15.984  0.00  0.00    +0.000 C 
ENDBRANCH  13  14
ENDBRANCH  12  13
ENDBRANCH  10  12
ENDBRANCH   1   3
BRANCH   1  19
ATOM     16  C   UNL     1       1.128   9.352  19.681  0.00  0.00    +0.000 A 
ATOM     17  C   UNL     1       1.529   9.454  18.343  0.00  0.00    +0.000 A 
ATOM     18  C   UNL     1       2.243   8.426  17.736  0.00  0.00    +0.000 A 
ATOM     19  C   UNL     1       2.589   7.276  18.453  0.00  0.00    +0.000 A 
ATOM     20  C   UNL     1       2.246   7.200  19.807  0.00  0.00    +0.000 A 
ATOM     21  C   UNL     1       1.523   8.231  20.419  0.00  0.00    +0.000 A 
BRANCH  16  22
ATOM     22  C   UNL     1       0.236  10.414  20.278  0.00  0.00    +0.000 C 
BRANCH  22  23
ATOM     23  C   UNL     1      -0.289  11.341  19.176  0.00  0.00    +0.000 C 
BRANCH  23  24
ATOM     24  C   UNL     1      -1.747  11.078  18.814  0.00  0.00    +0.000 C 
BRANCH  24  25
ATOM     25  C   UNL     1      -1.810  10.355  17.468  0.00  0.00    +0.000 C 
BRANCH  25  27
ATOM     26  C   UNL     1      -4.271  10.711  17.771  0.00  0.00    +0.000 C 
ATOM     27  C   UNL     1      -3.203   9.812  17.166  0.00  0.00    +0.000 C 
ENDBRANCH  25  27
ENDBRANCH  24  25
ENDBRANCH  23  24
ENDBRANCH  22  23
ENDBRANCH  16  22
ENDBRANCH   1  19
TORSDOF 10
ENDMDL
MODEL 5
REMARK VINA RESULT:      -7.2      1.287      3.372
REMARK  Name = 
REMARK  12 active torsions:
REMARK  status: ('A' for Active; 'I' for Inactive)
REMARK    1  A    between atoms: C_1  and  C_2
REMARK    2  A    between atoms: C_2  and  C_3
REMARK    3  A    between atoms: C_3  and  C_4
REMARK    4  A    between atoms: C_4  and  C_5
REMARK    5  A    between atoms: C_5  and  C_6
REMARK    6  A    between atoms: C_6  and  C_7
REMARK    7  A    between atoms: C_10  and  N_11
REMARK    8  A    between atoms: N_11  and  C_12
REMARK    9  A    between atoms: N_19  and  C_20
REMARK   10  A    between atoms: C_20  and  C_21
REMARK   11  A    between atoms: C_21  and  O_22
REMARK   12  A    between atoms: O_22  and  C_23
REMARK                            x       y       z     vdW  Elec       q    Type
REMARK                         _______ _______ _______ _____ _____    ______ ____
ROOT
ATOM      1  N   UNL     1       2.876   6.218  20.136  0.00  0.00    +0.000 N 
ATOM      2  H   UNL     1       2.752   5.897  21.090  0.00  0.00    +0.000 HD
ENDROOT
BRANCH   1   3
ATOM      3  C   UNL     1       2.914   5.170  19.216  0.00  0.00    +0.000 A 
ATOM      4  C   UNL     1       1.860   4.330  19.205  0.00  0.00    +0.000 A 
ATOM      5  C   UNL     1       1.765   3.232  18.249  0.00  0.00    +0.000 A 
ATOM      6  O   UNL     1       0.830   2.447  18.267  0.00  0.00    +0.000 OA
ATOM      7  N   UNL     1       2.775   3.167  17.346  0.00  0.00    +0.000 N 
ATOM      8  C   UNL     1       3.879   3.967  17.322  0.00  0.00    +0.000 A 
ATOM      9  O   UNL     1       4.721   3.784  16.444  0.00  0.00    +0.000 OA
ATOM     10  N   UNL     1       3.952   4.966  18.299  0.00  0.00    +0.000 N 
ATOM     11  H   UNL     1       2.726   2.443  16.648  0.00  0.00    +0.000 HD
BRANCH  10  12
ATOM     12  C   UNL     1       5.142   5.827  18.252  0.00  0.00    +0.000 C 
BRANCH  12  13
ATOM     13  C   UNL     1       6.378   5.404  19.070  0.00  0.00    +0.000 C 
BRANCH  13  14
ATOM     14  O   UNL     1       7.614   5.802  18.473  0.00  0.00    +0.000 OA
ATOM     15  C   UNL     1       7.395   6.841  17.518  0.00  0.00    +0.000 C 
ENDBRANCH  13  14
ENDBRANCH  12  13
ENDBRANCH  10  12
ENDBRANCH   1   3
BRANCH   1  19
ATOM     16  C   UNL     1       0.718   9.820  19.543  0.00  0.00    +0.000 A 
ATOM     17  C   UNL     1       0.596   9.116  20.748  0.00  0.00    +0.000 A 
ATOM     18  C   UNL     1       1.274   7.916  20.940  0.00  0.00    +0.000 A 
ATOM     19  C   UNL     1       2.078   7.380  19.930  0.00  0.00    +0.000 A 
ATOM     20  C   UNL     1       2.150   8.048  18.702  0.00  0.00    +0.000 A 
ATOM     21  C   UNL     1       1.473   9.258  18.509  0.00  0.00    +0.000 A 
BRANCH  16  22
ATOM     22  C   UNL     1       0.089  11.186  19.408  0.00  0.00    +0.000 C 
BRANCH  22  23
ATOM     23  C   UNL     1      -1.399  11.049  19.065  0.00  0.00    +0.000 C 
BRANCH  23  24
ATOM     24  C   UNL     1      -1.653  10.802  17.582  0.00  0.00    +0.000 C 
BRANCH  24  25
ATOM     25  C   UNL     1      -2.976  10.052  17.414  0.00  0.00    +0.000 C 
BRANCH  25  27
ATOM     26  C   UNL     1      -3.054  10.289  14.922  0.00  0.00    +0.000 C 
ATOM     27  C   UNL     1      -3.786  10.563  16.228  0.00  0.00    +0.000 C 
ENDBRANCH  25  27
ENDBRANCH  24  25
ENDBRANCH  23  24
ENDBRANCH  22  23
ENDBRANCH  16  22
ENDBRANCH   1  19
TORSDOF 10
ENDMDL
MODEL 6
REMARK VINA RESULT:      -7.1      0.649      1.326
REMARK  Name = 
REMARK  12 active torsions:
REMARK  status: ('A' for Active; 'I' for Inactive)
REMARK    1  A    between atoms: C_1  and  C_2
REMARK    2  A    between atoms: C_2  and  C_3
REMARK    3  A    between atoms: C_3  and  C_4
REMARK    4  A    between atoms: C_4  and  C_5
REMARK    5  A    between atoms: C_5  and  C_6
REMARK    6  A    between atoms: C_6  and  C_7
REMARK    7  A    between atoms: C_10  and  N_11
REMARK    8  A    between atoms: N_11  and  C_12
REMARK    9  A    between atoms: N_19  and  C_20
REMARK   10  A    between atoms: C_20  and  C_21
REMARK   11  A    between atoms: C_21  and  O_22
REMARK   12  A    between atoms: O_22  and  C_23
REMARK                            x       y       z     vdW  Elec       q    Type
REMARK                         _______ _______ _______ _____ _____    ______ ____
ROOT
ATOM      1  N   UNL     1       2.961   6.116  20.268  0.00  0.00    +0.000 N 
ATOM      2  H   UNL     1       2.372   5.616  20.926  0.00  0.00    +0.000 HD
ENDROOT
BRANCH   1   3
ATOM      3  C   UNL     1       3.633   5.264  19.392  0.00  0.00    +0.000 A 
ATOM      4  C   UNL     1       4.977   5.374  19.346  0.00  0.00    +0.000 A 
ATOM      5  C   UNL     1       5.788   4.498  18.508  0.00  0.00    +0.000 A 
ATOM      6  O   UNL     1       7.001   4.625  18.435  0.00  0.00    +0.000 OA
ATOM      7  N   UNL     1       5.099   3.539  17.841  0.00  0.00    +0.000 N 
ATOM      8  C   UNL     1       3.743   3.394  17.825  0.00  0.00    +0.000 A 
ATOM      9  O   UNL     1       3.256   2.478  17.164  0.00  0.00    +0.000 OA
ATOM     10  N   UNL     1       3.006   4.298  18.596  0.00  0.00    +0.000 N 
ATOM     11  H   UNL     1       5.630   2.893  17.280  0.00  0.00    +0.000 HD
BRANCH  10  12
ATOM     12  C   UNL     1       1.547   4.122  18.578  0.00  0.00    +0.000 C 
BRANCH  12  13
ATOM     13  C   UNL     1       0.885   3.414  19.776  0.00  0.00    +0.000 C 
BRANCH  13  14
ATOM     14  O   UNL     1       1.756   2.501  20.446  0.00  0.00    +0.000 OA
ATOM     15  C   UNL     1       1.516   2.526  21.853  0.00  0.00    +0.000 C 
ENDBRANCH  13  14
ENDBRANCH  12  13
ENDBRANCH  10  12
ENDBRANCH   1   3
BRANCH   1  19
ATOM     16  C   UNL     1       1.138   9.704  18.934  0.00  0.00    +0.000 A 
ATOM     17  C   UNL     1       0.914   9.243  20.237  0.00  0.00    +0.000 A 
ATOM     18  C   UNL     1       1.481   8.050  20.675  0.00  0.00    +0.000 A 
ATOM     19  C   UNL     1       2.272   7.278  19.818  0.00  0.00    +0.000 A 
ATOM     20  C   UNL     1       2.444   7.704  18.496  0.00  0.00    +0.000 A 
ATOM     21  C   UNL     1       1.879   8.907  18.055  0.00  0.00    +0.000 A 
BRANCH  16  22
ATOM     22  C   UNL     1       0.631  11.067  18.525  0.00  0.00    +0.000 C 
BRANCH  22  23
ATOM     23  C   UNL     1      -0.813  11.257  19.002  0.00  0.00    +0.000 C 
BRANCH  23  24
ATOM     24  C   UNL     1      -1.656  12.094  18.046  0.00  0.00    +0.000 C 
BRANCH  24  25
ATOM     25  C   UNL     1      -3.053  11.481  17.935  0.00  0.00    +0.000 C 
BRANCH  25  27
ATOM     26  C   UNL     1      -2.683   9.780  16.135  0.00  0.00    +0.000 C 
ATOM     27  C   UNL     1      -3.008   9.993  17.606  0.00  0.00    +0.000 C 
ENDBRANCH  25  27
ENDBRANCH  24  25
ENDBRANCH  23  24
ENDBRANCH  22  23
ENDBRANCH  16  22
ENDBRANCH   1  19
TORSDOF 10
ENDMDL
MODEL 7
REMARK VINA RESULT:      -7.1      1.361      3.055
REMARK  Name = 
REMARK  12 active torsions:
REMARK  status: ('A' for Active; 'I' for Inactive)
REMARK    1  A    between atoms: C_1  and  C_2
REMARK    2  A    between atoms: C_2  and  C_3
REMARK    3  A    between atoms: C_3  and  C_4
REMARK    4  A    between atoms: C_4  and  C_5
REMARK    5  A    between atoms: C_5  and  C_6
REMARK    6  A    between atoms: C_6  and  C_7
REMARK    7  A    between atoms: C_10  and  N_11
REMARK    8  A    between atoms: N_11  and  C_12
REMARK    9  A    between atoms: N_19  and  C_20
REMARK   10  A    between atoms: C_20  and  C_21
REMARK   11  A    between atoms: C_21  and  O_22
REMARK   12  A    between atoms: O_22  and  C_23
REMARK                            x       y       z     vdW  Elec       q    Type
REMARK                         _______ _______ _______ _____ _____    ______ ____
ROOT
ATOM      1  N   UNL     1       3.104   6.259  19.998  0.00  0.00    +0.000 N 
ATOM      2  H   UNL     1       3.806   6.391  20.718  0.00  0.00    +0.000 HD
ENDROOT
BRANCH   1   3
ATOM      3  C   UNL     1       2.604   4.957  19.964  0.00  0.00    +0.000 A 
ATOM      4  C   UNL     1       2.187   4.435  21.135  0.00  0.00    +0.000 A 
ATOM      5  C   UNL     1       1.595   3.103  21.212  0.00  0.00    +0.000 A 
ATOM      6  O   UNL     1       1.256   2.614  22.279  0.00  0.00    +0.000 OA
ATOM      7  N   UNL     1       1.441   2.473  20.021  0.00  0.00    +0.000 N 
ATOM      8  C   UNL     1       1.865   2.936  18.811  0.00  0.00    +0.000 A 
ATOM      9  O   UNL     1       1.663   2.246  17.812  0.00  0.00    +0.000 OA
ATOM     10  N   UNL     1       2.483   4.191  18.800  0.00  0.00    +0.000 N 
ATOM     11  H   UNL     1       1.003   1.566  20.031  0.00  0.00    +0.000 HD
BRANCH  10  12
ATOM     12  C   UNL     1       2.924   4.680  17.486  0.00  0.00    +0.000 C 
BRANCH  12  13
ATOM     13  C   UNL     1       4.336   4.296  17.003  0.00  0.00    +0.000 C 
BRANCH  13  14
ATOM     14  O   UNL     1       5.308   5.320  17.223  0.00  0.00    +0.000 OA
ATOM     15  C   UNL     1       4.807   6.584  16.787  0.00  0.00    +0.000 C 
ENDBRANCH  13  14
ENDBRANCH  12  13
ENDBRANCH  10  12
ENDBRANCH   1   3
BRANCH   1  19
ATOM     16  C   UNL     1       0.364   9.493  19.896  0.00  0.00    +0.000 A 
ATOM     17  C   UNL     1       1.149   9.201  18.774  0.00  0.00    +0.000 A 
ATOM     18  C   UNL     1       2.075   8.162  18.808  0.00  0.00    +0.000 A 
ATOM     19  C   UNL     1       2.252   7.400  19.967  0.00  0.00    +0.000 A 
ATOM     20  C   UNL     1       1.514   7.732  21.109  0.00  0.00    +0.000 A 
ATOM     21  C   UNL     1       0.579   8.773  21.076  0.00  0.00    +0.000 A 
BRANCH  16  22
ATOM     22  C   UNL     1      -0.731  10.529  19.794  0.00  0.00    +0.000 C 
BRANCH  22  23
ATOM     23  C   UNL     1      -0.719  11.172  18.402  0.00  0.00    +0.000 C 
BRANCH  23  24
ATOM     24  C   UNL     1      -2.105  11.267  17.773  0.00  0.00    +0.000 C 
BRANCH  24  25
ATOM     25  C   UNL     1      -2.238  10.206  16.680  0.00  0.00    +0.000 C 
BRANCH  25  27
ATOM     26  C   UNL     1      -3.090   9.999  14.334  0.00  0.00    +0.000 C 
ATOM     27  C   UNL     1      -3.407  10.483  15.741  0.00  0.00    +0.000 C 
ENDBRANCH  25  27
ENDBRANCH  24  25
ENDBRANCH  23  24
ENDBRANCH  22  23
ENDBRANCH  16  22
ENDBRANCH   1  19
TORSDOF 10
ENDMDL
MODEL 8
REMARK VINA RESULT:      -7.1      1.126      3.335
REMARK  Name = 
REMARK  12 active torsions:
REMARK  status: ('A' for Active; 'I' for Inactive)
REMARK    1  A    between atoms: C_1  and  C_2
REMARK    2  A    between atoms: C_2  and  C_3
REMARK    3  A    between atoms: C_3  and  C_4
REMARK    4  A    between atoms: C_4  and  C_5
REMARK    5  A    between atoms: C_5  and  C_6
REMARK    6  A    between atoms: C_6  and  C_7
REMARK    7  A    between atoms: C_10  and  N_11
REMARK    8  A    between atoms: N_11  and  C_12
REMARK    9  A    between atoms: N_19  and  C_20
REMARK   10  A    between atoms: C_20  and  C_21
REMARK   11  A    between atoms: C_21  and  O_22
REMARK   12  A    between atoms: O_22  and  C_23
REMARK                            x       y       z     vdW  Elec       q    Type
REMARK                         _______ _______ _______ _____ _____    ______ ____
ROOT
ATOM      1  N   UNL     1       3.222   5.853  19.914  0.00  0.00    +0.000 N 
ATOM      2  H   UNL     1       3.428   5.860  20.907  0.00  0.00    +0.000 HD
ENDROOT
BRANCH   1   3
ATOM      3  C   UNL     1       2.895   4.581  19.442  0.00  0.00    +0.000 A 
ATOM      4  C   UNL     1       1.589   4.244  19.456  0.00  0.00    +0.000 A 
ATOM      5  C   UNL     1       1.124   2.963  18.935  0.00  0.00    +0.000 A 
ATOM      6  O   UNL     1      -0.053   2.641  18.986  0.00  0.00    +0.000 OA
ATOM      7  N   UNL     1       2.087   2.181  18.385  0.00  0.00    +0.000 N 
ATOM      8  C   UNL     1       3.423   2.455  18.365  0.00  0.00    +0.000 A 
ATOM      9  O   UNL     1       4.182   1.643  17.837  0.00  0.00    +0.000 OA
ATOM     10  N   UNL     1       3.825   3.667  18.933  0.00  0.00    +0.000 N 
ATOM     11  H   UNL     1       1.798   1.305  17.983  0.00  0.00    +0.000 HD
BRANCH  10  12
ATOM     12  C   UNL     1       5.266   3.951  18.893  0.00  0.00    +0.000 C 
BRANCH  12  13
ATOM     13  C   UNL     1       5.833   4.660  17.648  0.00  0.00    +0.000 C 
BRANCH  13  14
ATOM     14  O   UNL     1       7.240   4.899  17.725  0.00  0.00    +0.000 OA
ATOM     15  C   UNL     1       7.540   5.757  18.825  0.00  0.00    +0.000 C 
ENDBRANCH  13  14
ENDBRANCH  12  13
ENDBRANCH  10  12
ENDBRANCH   1   3
BRANCH   1  19
ATOM     16  C   UNL     1       1.142   9.417  18.942  0.00  0.00    +0.000 A 
ATOM     17  C   UNL     1       1.077   8.896  20.241  0.00  0.00    +0.000 A 
ATOM     18  C   UNL     1       1.729   7.710  20.562  0.00  0.00    +0.000 A 
ATOM     19  C   UNL     1       2.448   7.004  19.592  0.00  0.00    +0.000 A 
ATOM     20  C   UNL     1       2.460   7.489  18.279  0.00  0.00    +0.000 A 
ATOM     21  C   UNL     1       1.810   8.685  17.955  0.00  0.00    +0.000 A 
BRANCH  16  22
ATOM     22  C   UNL     1       0.547  10.774  18.650  0.00  0.00    +0.000 C 
BRANCH  22  23
ATOM     23  C   UNL     1      -0.925  10.807  19.075  0.00  0.00    +0.000 C 
BRANCH  23  24
ATOM     24  C   UNL     1      -1.878  11.099  17.920  0.00  0.00    +0.000 C 
BRANCH  24  25
ATOM     25  C   UNL     1      -2.701   9.846  17.615  0.00  0.00    +0.000 C 
BRANCH  25  27
ATOM     26  C   UNL     1      -3.027  11.034  15.435  0.00  0.00    +0.000 C 
ATOM     27  C   UNL     1      -2.971   9.678  16.124  0.00  0.00    +0.000 C 
ENDBRANCH  25  27
ENDBRANCH  24  25
ENDBRANCH  23  24
ENDBRANCH  22  23
ENDBRANCH  16  22
ENDBRANCH   1  19
TORSDOF 10
ENDMDL
MODEL 9
REMARK VINA RESULT:      -7.1      2.373      3.497
REMARK  Name = 
REMARK  12 active torsions:
REMARK  status: ('A' for Active; 'I' for Inactive)
REMARK    1  A    between atoms: C_1  and  C_2
REMARK    2  A    between atoms: C_2  and  C_3
REMARK    3  A    between atoms: C_3  and  C_4
REMARK    4  A    between atoms: C_4  and  C_5
REMARK    5  A    between atoms: C_5  and  C_6
REMARK    6  A    between atoms: C_6  and  C_7
REMARK    7  A    between atoms: C_10  and  N_11
REMARK    8  A    between atoms: N_11  and  C_12
REMARK    9  A    between atoms: N_19  and  C_20
REMARK   10  A    between atoms: C_20  and  C_21
REMARK   11  A    between atoms: C_21  and  O_22
REMARK   12  A    between atoms: O_22  and  C_23
REMARK                            x       y       z     vdW  Elec       q    Type
REMARK                         _______ _______ _______ _____ _____    ______ ____
ROOT
ATOM      1  N   UNL     1       3.259   6.615  17.552  0.00  0.00    +0.000 N 
ATOM      2  H   UNL     1       3.789   7.204  16.918  0.00  0.00    +0.000 HD
ENDROOT
BRANCH   1   3
ATOM      3  C   UNL     1       4.010   5.555  18.058  0.00  0.00    +0.000 A 
ATOM      4  C   UNL     1       5.227   5.854  18.557  0.00  0.00    +0.000 A 
ATOM      5  C   UNL     1       6.078   4.835  19.163  0.00  0.00    +0.000 A 
ATOM      6  O   UNL     1       7.196   5.098  19.576  0.00  0.00    +0.000 OA
ATOM      7  N   UNL     1       5.527   3.598  19.241  0.00  0.00    +0.000 N 
ATOM      8  C   UNL     1       4.317   3.228  18.732  0.00  0.00    +0.000 A 
ATOM      9  O   UNL     1       3.951   2.061  18.872  0.00  0.00    +0.000 OA
ATOM     10  N   UNL     1       3.567   4.228  18.106  0.00  0.00    +0.000 N 
ATOM     11  H   UNL     1       6.071   2.876  19.685  0.00  0.00    +0.000 HD
BRANCH  10  12
ATOM     12  C   UNL     1       2.260   3.816  17.574  0.00  0.00    +0.000 C 
BRANCH  12  13
ATOM     13  C   UNL     1       1.200   3.302  18.567  0.00  0.00    +0.000 C 
BRANCH  13  14
ATOM     14  O   UNL     1       1.126   4.076  19.766  0.00  0.00    +0.000 OA
ATOM     15  C   UNL     1       1.224   3.230  20.912  0.00  0.00    +0.000 C 
ENDBRANCH  13  14
ENDBRANCH  12  13
ENDBRANCH  10  12
ENDBRANCH   1   3
BRANCH   1  19
ATOM     16  C   UNL     1       1.059   9.244  20.048  0.00  0.00    +0.000 A 
ATOM     17  C   UNL     1       1.550   8.035  20.558  0.00  0.00    +0.000 A 
ATOM     18  C   UNL     1       2.244   7.150  19.739  0.00  0.00    +0.000 A 
ATOM     19  C   UNL     1       2.453   7.441  18.387  0.00  0.00    +0.000 A 
ATOM     20  C   UNL     1       1.909   8.619  17.861  0.00  0.00    +0.000 A 
ATOM     21  C   UNL     1       1.215   9.513  18.684  0.00  0.00    +0.000 A 
BRANCH  16  22
ATOM     22  C   UNL     1       0.434  10.251  20.984  0.00  0.00    +0.000 C 
BRANCH  22  23
ATOM     23  C   UNL     1       0.086   9.585  22.320  0.00  0.00    +0.000 C 
BRANCH  23  24
ATOM     24  C   UNL     1      -0.910  10.387  23.150  0.00  0.00    +0.000 C 
BRANCH  24  25
ATOM     25  C   UNL     1      -1.328  11.635  22.372  0.00  0.00    +0.000 C 
BRANCH  25  27
ATOM     26  C   UNL     1      -3.349  12.363  23.658  0.00  0.00    +0.000 C 
ATOM     27  C   UNL     1      -1.919  12.711  23.276  0.00  0.00    +0.000 C 
ENDBRANCH  25  27
ENDBRANCH  24  25
ENDBRANCH  23  24
ENDBRANCH  22  23
ENDBRANCH  16  22
ENDBRANCH   1  19
TORSDOF 10
ENDMDL
