MODEL 1
REMARK VINA RESULT:      -7.0      0.000      0.000
REMARK  Name = 
REMARK  7 active torsions:
REMARK  status: ('A' for Active; 'I' for Inactive)
REMARK    1  A    between atoms: C_5  and  O_6
REMARK    2  A    between atoms: O_6  and  C_7
REMARK    3  A    between atoms: C_7  and  C_8
REMARK    4  A    between atoms: C_14  and  C_15
REMARK    5  A    between atoms: C_15  and  N_16
REMARK    6  A    between atoms: N_16  and  C_17
REMARK    7  A    between atoms: C_17  and  C_18
REMARK                            x       y       z     vdW  Elec       q    Type
REMARK                         _______ _______ _______ _____ _____    ______ ____
ROOT
ATOM      1 BR   UNL     1      -0.974  11.740  19.871  0.00  0.00    +0.000 Br
ATOM      2  C   UNL     1       0.178  10.315  19.410  0.00  0.00    +0.000 A 
ATOM      3  C   UNL     1       0.730  10.261  18.137  0.00  0.00    +0.000 A 
ATOM      4  C   UNL     1       1.604   9.225  17.809  0.00  0.00    +0.000 A 
ATOM      5  C   UNL     1       1.957   8.252  18.757  0.00  0.00    +0.000 A 
ATOM      6  C   UNL     1       1.351   8.273  20.029  0.00  0.00    +0.000 A 
ATOM      7  C   UNL     1       0.470   9.326  20.346  0.00  0.00    +0.000 A 
ENDROOT
BRANCH   5   8
ATOM      8  O   UNL     1       2.887   7.267  18.510  0.00  0.00    +0.000 OA
BRANCH   8   9
ATOM      9  C   UNL     1       3.840   7.580  17.484  0.00  0.00    +0.000 C 
BRANCH   9  10
ATOM     10  C   UNL     1       4.816   6.455  17.234  0.00  0.00    +0.000 A 
ATOM     11  C   UNL     1       5.399   5.735  18.284  0.00  0.00    +0.000 A 
ATOM     12  C   UNL     1       6.274   4.680  18.015  0.00  0.00    +0.000 A 
ATOM     13  C   UNL     1       6.564   4.324  16.697  0.00  0.00    +0.000 A 
ATOM     14  C   UNL     1       5.971   5.017  15.644  0.00  0.00    +0.000 A 
ATOM     15  C   UNL     1       5.094   6.068  15.912  0.00  0.00    +0.000 A 
ENDBRANCH   9  10
ENDBRANCH   8   9
ENDBRANCH   5   8
BRANCH   6  16
ATOM     16  C   UNL     1       1.593   7.205  21.075  0.00  0.00    +0.000 C 
BRANCH  16  17
ATOM     17  N   UNL     1       2.440   6.094  20.653  0.00  0.00    +0.000 NA
ATOM     18  H   UNL     1       3.199   5.997  21.331  0.00  0.00    +0.000 HD
BRANCH  17  19
ATOM     19  C   UNL     1       1.720   4.816  20.599  0.00  0.00    +0.000 C 
BRANCH  19  20
ATOM     20  C   UNL     1       2.318   3.886  19.561  0.00  0.00    +0.000 A 
ATOM     21  C   UNL     1       2.045   4.081  18.207  0.00  0.00    +0.000 A 
ATOM     22  C   UNL     1       2.636   3.237  17.273  0.00  0.00    +0.000 A 
ATOM     23  C   UNL     1       3.483   2.227  17.711  0.00  0.00    +0.000 A 
ATOM     24  C   UNL     1       3.699   2.098  19.073  0.00  0.00    +0.000 A 
ATOM     25  N   UNL     1       3.137   2.898  20.005  0.00  0.00    +0.000 NA
ENDBRANCH  19  20
ENDBRANCH  17  19
ENDBRANCH  16  17
ENDBRANCH   6  16
TORSDOF 7
ENDMDL
MODEL 2
REMARK VINA RESULT:      -6.9      2.811      6.610
REMARK  Name = 
REMARK  7 active torsions:
REMARK  status: ('A' for Active; 'I' for Inactive)
REMARK    1  A    between atoms: C_5  and  O_6
REMARK    2  A    between atoms: O_6  and  C_7
REMARK    3  A    between atoms: C_7  and  C_8
REMARK    4  A    between atoms: C_14  and  C_15
REMARK    5  A    between atoms: C_15  and  N_16
REMARK    6  A    between atoms: N_16  and  C_17
REMARK    7  A    between atoms: C_17  and  C_18
REMARK                            x       y       z     vdW  Elec       q    Type
REMARK                         _______ _______ _______ _____ _____    ______ ____
ROOT
ATOM      1 BR   UNL     1       7.764   7.850  17.526  0.00  0.00    +0.000 Br
ATOM      2  C   UNL     1       6.421   6.550  17.249  0.00  0.00    +0.000 A 
ATOM      3  C   UNL     1       6.737   5.359  16.610  0.00  0.00    +0.000 A 
ATOM      4  C   UNL     1       5.751   4.389  16.433  0.00  0.00    +0.000 A 
ATOM      5  C   UNL     1       4.449   4.587  16.919  0.00  0.00    +0.000 A 
ATOM      6  C   UNL     1       4.113   5.820  17.513  0.00  0.00    +0.000 A 
ATOM      7  C   UNL     1       5.120   6.790  17.684  0.00  0.00    +0.000 A 
ENDROOT
BRANCH   5   8
ATOM      8  O   UNL     1       3.469   3.622  16.854  0.00  0.00    +0.000 OA
BRANCH   8   9
ATOM      9  C   UNL     1       3.632   2.534  17.775  0.00  0.00    +0.000 C 
BRANCH   9  10
ATOM     10  C   UNL     1       2.796   2.699  19.022  0.00  0.00    +0.000 A 
ATOM     11  C   UNL     1       1.410   2.884  18.964  0.00  0.00    +0.000 A 
ATOM     12  C   UNL     1       0.665   3.002  20.140  0.00  0.00    +0.000 A 
ATOM     13  C   UNL     1       1.293   2.922  21.383  0.00  0.00    +0.000 A 
ATOM     14  C   UNL     1       2.668   2.714  21.454  0.00  0.00    +0.000 A 
ATOM     15  C   UNL     1       3.413   2.592  20.281  0.00  0.00    +0.000 A 
ENDBRANCH   9  10
ENDBRANCH   8   9
ENDBRANCH   5   8
BRANCH   6  16
ATOM     16  C   UNL     1       2.709   6.158  17.970  0.00  0.00    +0.000 C 
BRANCH  16  17
ATOM     17  N   UNL     1       2.571   7.417  18.695  0.00  0.00    +0.000 NA
ATOM     18  H   UNL     1       3.508   7.750  18.935  0.00  0.00    +0.000 HD
BRANCH  17  19
ATOM     19  C   UNL     1       1.911   8.462  17.904  0.00  0.00    +0.000 C 
BRANCH  19  20
ATOM     20  C   UNL     1       1.444   9.608  18.780  0.00  0.00    +0.000 A 
ATOM     21  C   UNL     1       0.819   9.347  20.000  0.00  0.00    +0.000 A 
ATOM     22  C   UNL     1       0.433  10.416  20.802  0.00  0.00    +0.000 A 
ATOM     23  C   UNL     1       0.683  11.713  20.370  0.00  0.00    +0.000 A 
ATOM     24  C   UNL     1       1.305  11.887  19.145  0.00  0.00    +0.000 A 
ATOM     25  N   UNL     1       1.687  10.870  18.341  0.00  0.00    +0.000 NA
ENDBRANCH  19  20
ENDBRANCH  17  19
ENDBRANCH  16  17
ENDBRANCH   6  16
TORSDOF 7
ENDMDL
MODEL 3
REMARK VINA RESULT:      -6.8      2.605      6.124
REMARK  Name = 
REMARK  7 active torsions:
REMARK  status: ('A' for Active; 'I' for Inactive)
REMARK    1  A    between atoms: C_5  and  O_6
REMARK    2  A    between atoms: O_6  and  C_7
REMARK    3  A    between atoms: C_7  and  C_8
REMARK    4  A    between atoms: C_14  and  C_15
REMARK    5  A    between atoms: C_15  and  N_16
REMARK    6  A    between atoms: N_16  and  C_17
REMARK    7  A    between atoms: C_17  and  C_18
REMARK                            x       y       z     vdW  Elec       q    Type
REMARK                         _______ _______ _______ _____ _____    ______ ____
ROOT
ATOM      1 BR   UNL     1       7.712   7.886  17.368  0.00  0.00    +0.000 Br
ATOM      2  C   UNL     1       6.355   6.591  17.144  0.00  0.00    +0.000 A 
ATOM      3  C   UNL     1       6.558   5.524  16.279  0.00  0.00    +0.000 A 
ATOM      4  C   UNL     1       5.567   4.553  16.137  0.00  0.00    +0.000 A 
ATOM      5  C   UNL     1       4.377   4.624  16.878  0.00  0.00    +0.000 A 
ATOM      6  C   UNL     1       4.145   5.739  17.710  0.00  0.00    +0.000 A 
ATOM      7  C   UNL     1       5.156   6.711  17.842  0.00  0.00    +0.000 A 
ENDROOT
BRANCH   5   8
ATOM      8  O   UNL     1       3.412   3.643  16.845  0.00  0.00    +0.000 OA
BRANCH   8   9
ATOM      9  C   UNL     1       3.649   2.534  17.725  0.00  0.00    +0.000 C 
BRANCH   9  10
ATOM     10  C   UNL     1       2.848   2.625  19.002  0.00  0.00    +0.000 A 
ATOM     11  C   UNL     1       3.460   2.637  20.260  0.00  0.00    +0.000 A 
ATOM     12  C   UNL     1       2.688   2.753  21.419  0.00  0.00    +0.000 A 
ATOM     13  C   UNL     1       1.300   2.872  21.332  0.00  0.00    +0.000 A 
ATOM     14  C   UNL     1       0.682   2.886  20.085  0.00  0.00    +0.000 A 
ATOM     15  C   UNL     1       1.452   2.773  18.927  0.00  0.00    +0.000 A 
ENDBRANCH   9  10
ENDBRANCH   8   9
ENDBRANCH   5   8
BRANCH   6  16
ATOM     16  C   UNL     1       2.849   5.948  18.464  0.00  0.00    +0.000 C 
BRANCH  16  17
ATOM     17  N   UNL     1       2.991   6.395  19.845  0.00  0.00    +0.000 NA
ATOM     18  H   UNL     1       3.512   7.275  19.843  0.00  0.00    +0.000 HD
BRANCH  17  19
ATOM     19  C   UNL     1       1.702   6.637  20.503  0.00  0.00    +0.000 C 
BRANCH  19  20
ATOM     20  C   UNL     1       1.379   8.117  20.563  0.00  0.00    +0.000 A 
ATOM     21  C   UNL     1       1.418   8.889  19.401  0.00  0.00    +0.000 A 
ATOM     22  C   UNL     1       1.081  10.237  19.477  0.00  0.00    +0.000 A 
ATOM     23  C   UNL     1       0.711  10.776  20.702  0.00  0.00    +0.000 A 
ATOM     24  C   UNL     1       0.701   9.943  21.808  0.00  0.00    +0.000 A 
ATOM     25  N   UNL     1       1.027   8.632  21.769  0.00  0.00    +0.000 NA
ENDBRANCH  19  20
ENDBRANCH  17  19
ENDBRANCH  16  17
ENDBRANCH   6  16
TORSDOF 7
ENDMDL
MODEL 4
REMARK VINA RESULT:      -6.7      2.764      5.747
REMARK  Name = 
REMARK  7 active torsions:
REMARK  status: ('A' for Active; 'I' for Inactive)
REMARK    1  A    between atoms: C_5  and  O_6
REMARK    2  A    between atoms: O_6  and  C_7
REMARK    3  A    between atoms: C_7  and  C_8
REMARK    4  A    between atoms: C_14  and  C_15
REMARK    5  A    between atoms: C_15  and  N_16
REMARK    6  A    between atoms: N_16  and  C_17
REMARK    7  A    between atoms: C_17  and  C_18
REMARK                            x       y       z     vdW  Elec       q    Type
REMARK                         _______ _______ _______ _____ _____    ______ ____
ROOT
ATOM      1 BR   UNL     1       7.052   4.636  14.360  0.00  0.00    +0.000 Br
ATOM      2  C   UNL     1       5.921   5.367  15.685  0.00  0.00    +0.000 A 
ATOM      3  C   UNL     1       5.209   6.529  15.417  0.00  0.00    +0.000 A 
ATOM      4  C   UNL     1       4.352   7.050  16.385  0.00  0.00    +0.000 A 
ATOM      5  C   UNL     1       4.176   6.401  17.617  0.00  0.00    +0.000 A 
ATOM      6  C   UNL     1       4.944   5.256  17.913  0.00  0.00    +0.000 A 
ATOM      7  C   UNL     1       5.806   4.742  16.924  0.00  0.00    +0.000 A 
ENDROOT
BRANCH   5   8
ATOM      8  O   UNL     1       3.271   6.823  18.566  0.00  0.00    +0.000 OA
BRANCH   8   9
ATOM      9  C   UNL     1       2.516   7.988  18.202  0.00  0.00    +0.000 C 
BRANCH   9  10
ATOM     10  C   UNL     1       1.657   8.500  19.334  0.00  0.00    +0.000 A 
ATOM     11  C   UNL     1       0.875   9.653  19.206  0.00  0.00    +0.000 A 
ATOM     12  C   UNL     1       0.069  10.080  20.265  0.00  0.00    +0.000 A 
ATOM     13  C   UNL     1       0.027   9.353  21.455  0.00  0.00    +0.000 A 
ATOM     14  C   UNL     1       0.782   8.191  21.586  0.00  0.00    +0.000 A 
ATOM     15  C   UNL     1       1.584   7.762  20.528  0.00  0.00    +0.000 A 
ENDBRANCH   9  10
ENDBRANCH   8   9
ENDBRANCH   5   8
BRANCH   6  16
ATOM     16  C   UNL     1       4.895   4.555  19.253  0.00  0.00    +0.000 C 
BRANCH  16  17
ATOM     17  N   UNL     1       5.365   3.174  19.257  0.00  0.00    +0.000 NA
ATOM     18  H   UNL     1       6.311   3.160  19.646  0.00  0.00    +0.000 HD
BRANCH  17  19
ATOM     19  C   UNL     1       4.530   2.289  20.077  0.00  0.00    +0.000 C 
BRANCH  19  20
ATOM     20  C   UNL     1       3.055   2.595  19.898  0.00  0.00    +0.000 A 
ATOM     21  C   UNL     1       2.410   2.256  18.708  0.00  0.00    +0.000 A 
ATOM     22  C   UNL     1       1.049   2.513  18.583  0.00  0.00    +0.000 A 
ATOM     23  C   UNL     1       0.368   3.095  19.646  0.00  0.00    +0.000 A 
ATOM     24  C   UNL     1       1.083   3.404  20.791  0.00  0.00    +0.000 A 
ATOM     25  N   UNL     1       2.405   3.171  20.941  0.00  0.00    +0.000 NA
ENDBRANCH  19  20
ENDBRANCH  17  19
ENDBRANCH  16  17
ENDBRANCH   6  16
TORSDOF 7
ENDMDL
MODEL 5
REMARK VINA RESULT:      -6.7      2.858      5.593
REMARK  Name = 
REMARK  7 active torsions:
REMARK  status: ('A' for Active; 'I' for Inactive)
REMARK    1  A    between atoms: C_5  and  O_6
REMARK    2  A    between atoms: O_6  and  C_7
REMARK    3  A    between atoms: C_7  and  C_8
REMARK    4  A    between atoms: C_14  and  C_15
REMARK    5  A    between atoms: C_15  and  N_16
REMARK    6  A    between atoms: N_16  and  C_17
REMARK    7  A    between atoms: C_17  and  C_18
REMARK                            x       y       z     vdW  Elec       q    Type
REMARK                         _______ _______ _______ _____ _____    ______ ____
ROOT
ATOM      1 BR   UNL     1       0.982   9.412  17.935  0.00  0.00    +0.000 Br
ATOM      2  C   UNL     1       2.231   8.082  18.429  0.00  0.00    +0.000 A 
ATOM      3  C   UNL     1       2.073   7.402  19.629  0.00  0.00    +0.000 A 
ATOM      4  C   UNL     1       2.978   6.400  19.977  0.00  0.00    +0.000 A 
ATOM      5  C   UNL     1       4.031   6.049  19.117  0.00  0.00    +0.000 A 
ATOM      6  C   UNL     1       4.226   6.780  17.928  0.00  0.00    +0.000 A 
ATOM      7  C   UNL     1       3.303   7.789  17.590  0.00  0.00    +0.000 A 
ENDROOT
BRANCH   5   8
ATOM      8  O   UNL     1       4.891   5.005  19.372  0.00  0.00    +0.000 OA
BRANCH   8   9
ATOM      9  C   UNL     1       4.483   3.741  18.828  0.00  0.00    +0.000 C 
BRANCH   9  10
ATOM     10  C   UNL     1       3.084   3.354  19.245  0.00  0.00    +0.000 A 
ATOM     11  C   UNL     1       2.038   3.255  18.321  0.00  0.00    +0.000 A 
ATOM     12  C   UNL     1       0.763   2.864  18.737  0.00  0.00    +0.000 A 
ATOM     13  C   UNL     1       0.523   2.557  20.078  0.00  0.00    +0.000 A 
ATOM     14  C   UNL     1       1.562   2.629  21.002  0.00  0.00    +0.000 A 
ATOM     15  C   UNL     1       2.836   3.015  20.586  0.00  0.00    +0.000 A 
ENDBRANCH   9  10
ENDBRANCH   8   9
ENDBRANCH   5   8
BRANCH   6  16
ATOM     16  C   UNL     1       5.395   6.539  16.996  0.00  0.00    +0.000 C 
BRANCH  16  17
ATOM     17  N   UNL     1       5.356   5.283  16.253  0.00  0.00    +0.000 NA
ATOM     18  H   UNL     1       4.875   5.453  15.366  0.00  0.00    +0.000 HD
BRANCH  17  19
ATOM     19  C   UNL     1       6.692   4.760  15.946  0.00  0.00    +0.000 C 
BRANCH  19  20
ATOM     20  C   UNL     1       6.908   4.630  14.451  0.00  0.00    +0.000 A 
ATOM     21  C   UNL     1       6.137   3.734  13.709  0.00  0.00    +0.000 A 
ATOM     22  C   UNL     1       6.329   3.661  12.333  0.00  0.00    +0.000 A 
ATOM     23  C   UNL     1       7.277   4.482  11.735  0.00  0.00    +0.000 A 
ATOM     24  C   UNL     1       8.002   5.341  12.543  0.00  0.00    +0.000 A 
ATOM     25  N   UNL     1       7.844   5.433  13.882  0.00  0.00    +0.000 NA
ENDBRANCH  19  20
ENDBRANCH  17  19
ENDBRANCH  16  17
ENDBRANCH   6  16
TORSDOF 7
ENDMDL
MODEL 6
REMARK VINA RESULT:      -6.6      2.750      5.622
REMARK  Name = 
REMARK  7 active torsions:
REMARK  status: ('A' for Active; 'I' for Inactive)
REMARK    1  A    between atoms: C_5  and  O_6
REMARK    2  A    between atoms: O_6  and  C_7
REMARK    3  A    between atoms: C_7  and  C_8
REMARK    4  A    between atoms: C_14  and  C_15
REMARK    5  A    between atoms: C_15  and  N_16
REMARK    6  A    between atoms: N_16  and  C_17
REMARK    7  A    between atoms: C_17  and  C_18
REMARK                            x       y       z     vdW  Elec       q    Type
REMARK                         _______ _______ _______ _____ _____    ______ ____
ROOT
ATOM      1 BR   UNL     1       6.911   4.645  13.891  0.00  0.00    +0.000 Br
ATOM      2  C   UNL     1       6.063   5.276  15.458  0.00  0.00    +0.000 A 
ATOM      3  C   UNL     1       5.218   6.376  15.387  0.00  0.00    +0.000 A 
ATOM      4  C   UNL     1       4.570   6.822  16.538  0.00  0.00    +0.000 A 
ATOM      5  C   UNL     1       4.736   6.156  17.763  0.00  0.00    +0.000 A 
ATOM      6  C   UNL     1       5.640   5.077  17.847  0.00  0.00    +0.000 A 
ATOM      7  C   UNL     1       6.287   4.639  16.676  0.00  0.00    +0.000 A 
ENDROOT
BRANCH   5   8
ATOM      8  O   UNL     1       4.045   6.499  18.904  0.00  0.00    +0.000 OA
BRANCH   8   9
ATOM      9  C   UNL     1       2.616   6.459  18.777  0.00  0.00    +0.000 C 
BRANCH   9  10
ATOM     10  C   UNL     1       1.967   7.783  19.105  0.00  0.00    +0.000 A 
ATOM     11  C   UNL     1       1.529   8.092  20.398  0.00  0.00    +0.000 A 
ATOM     12  C   UNL     1       0.961   9.339  20.671  0.00  0.00    +0.000 A 
ATOM     13  C   UNL     1       0.838  10.293  19.660  0.00  0.00    +0.000 A 
ATOM     14  C   UNL     1       1.292  10.006  18.375  0.00  0.00    +0.000 A 
ATOM     15  C   UNL     1       1.862   8.763  18.103  0.00  0.00    +0.000 A 
ENDBRANCH   9  10
ENDBRANCH   8   9
ENDBRANCH   5   8
BRANCH   6  16
ATOM     16  C   UNL     1       5.958   4.370  19.147  0.00  0.00    +0.000 C 
BRANCH  16  17
ATOM     17  N   UNL     1       5.399   3.029  19.286  0.00  0.00    +0.000 NA
ATOM     18  H   UNL     1       5.089   2.912  20.254  0.00  0.00    +0.000 HD
BRANCH  17  19
ATOM     19  C   UNL     1       4.242   2.800  18.413  0.00  0.00    +0.000 C 
BRANCH  19  20
ATOM     20  C   UNL     1       2.937   2.936  19.173  0.00  0.00    +0.000 A 
ATOM     21  C   UNL     1       1.722   2.889  18.490  0.00  0.00    +0.000 A 
ATOM     22  C   UNL     1       0.538   2.978  19.216  0.00  0.00    +0.000 A 
ATOM     23  C   UNL     1       0.598   3.108  20.597  0.00  0.00    +0.000 A 
ATOM     24  C   UNL     1       1.844   3.149  21.199  0.00  0.00    +0.000 A 
ATOM     25  N   UNL     1       3.011   3.070  20.522  0.00  0.00    +0.000 NA
ENDBRANCH  19  20
ENDBRANCH  17  19
ENDBRANCH  16  17
ENDBRANCH   6  16
TORSDOF 7
ENDMDL
MODEL 7
REMARK VINA RESULT:      -6.5      2.903      5.877
REMARK  Name = 
REMARK  7 active torsions:
REMARK  status: ('A' for Active; 'I' for Inactive)
REMARK    1  A    between atoms: C_5  and  O_6
REMARK    2  A    between atoms: O_6  and  C_7
REMARK    3  A    between atoms: C_7  and  C_8
REMARK    4  A    between atoms: C_14  and  C_15
REMARK    5  A    between atoms: C_15  and  N_16
REMARK    6  A    between atoms: N_16  and  C_17
REMARK    7  A    between atoms: C_17  and  C_18
REMARK                            x       y       z     vdW  Elec       q    Type
REMARK                         _______ _______ _______ _____ _____    ______ ____
ROOT
ATOM      1 BR   UNL     1       1.894   2.850  21.473  0.00  0.00    +0.000 Br
ATOM      2  C   UNL     1       2.739   3.391  19.872  0.00  0.00    +0.000 A 
ATOM      3  C   UNL     1       3.277   2.435  19.020  0.00  0.00    +0.000 A 
ATOM      4  C   UNL     1       3.873   2.835  17.824  0.00  0.00    +0.000 A 
ATOM      5  C   UNL     1       3.913   4.189  17.456  0.00  0.00    +0.000 A 
ATOM      6  C   UNL     1       3.423   5.164  18.348  0.00  0.00    +0.000 A 
ATOM      7  C   UNL     1       2.823   4.744  19.551  0.00  0.00    +0.000 A 
ENDROOT
BRANCH   5   8
ATOM      8  O   UNL     1       4.405   4.623  16.245  0.00  0.00    +0.000 OA
BRANCH   8   9
ATOM      9  C   UNL     1       5.830   4.525  16.103  0.00  0.00    +0.000 C 
BRANCH   9  10
ATOM     10  C   UNL     1       6.261   4.377  14.663  0.00  0.00    +0.000 A 
ATOM     11  C   UNL     1       5.547   3.586  13.755  0.00  0.00    +0.000 A 
ATOM     12  C   UNL     1       5.957   3.497  12.423  0.00  0.00    +0.000 A 
ATOM     13  C   UNL     1       7.075   4.206  11.981  0.00  0.00    +0.000 A 
ATOM     14  C   UNL     1       7.779   5.015  12.870  0.00  0.00    +0.000 A 
ATOM     15  C   UNL     1       7.368   5.108  14.199  0.00  0.00    +0.000 A 
ENDBRANCH   9  10
ENDBRANCH   8   9
ENDBRANCH   5   8
BRANCH   6  16
ATOM     16  C   UNL     1       3.520   6.650  18.078  0.00  0.00    +0.000 C 
BRANCH  16  17
ATOM     17  N   UNL     1       2.272   7.302  17.694  0.00  0.00    +0.000 NA
ATOM     18  H   UNL     1       1.504   6.827  18.175  0.00  0.00    +0.000 HD
BRANCH  17  19
ATOM     19  C   UNL     1       2.229   8.720  18.069  0.00  0.00    +0.000 C 
BRANCH  19  20
ATOM     20  C   UNL     1       1.392   8.940  19.314  0.00  0.00    +0.000 A 
ATOM     21  C   UNL     1       1.635   8.184  20.462  0.00  0.00    +0.000 A 
ATOM     22  C   UNL     1       0.878   8.432  21.603  0.00  0.00    +0.000 A 
ATOM     23  C   UNL     1      -0.094   9.424  21.570  0.00  0.00    +0.000 A 
ATOM     24  C   UNL     1      -0.274  10.126  20.390  0.00  0.00    +0.000 A 
ATOM     25  N   UNL     1       0.441   9.907  19.265  0.00  0.00    +0.000 NA
ENDBRANCH  19  20
ENDBRANCH  17  19
ENDBRANCH  16  17
ENDBRANCH   6  16
TORSDOF 7
ENDMDL
MODEL 8
REMARK VINA RESULT:      -6.5      2.876      5.796
REMARK  Name = 
REMARK  7 active torsions:
REMARK  status: ('A' for Active; 'I' for Inactive)
REMARK    1  A    between atoms: C_5  and  O_6
REMARK    2  A    between atoms: O_6  and  C_7
REMARK    3  A    between atoms: C_7  and  C_8
REMARK    4  A    between atoms: C_14  and  C_15
REMARK    5  A    between atoms: C_15  and  N_16
REMARK    6  A    between atoms: N_16  and  C_17
REMARK    7  A    between atoms: C_17  and  C_18
REMARK                            x       y       z     vdW  Elec       q    Type
REMARK                         _______ _______ _______ _____ _____    ______ ____
ROOT
ATOM      1 BR   UNL     1       6.700   4.068  13.623  0.00  0.00    +0.000 Br
ATOM      2  C   UNL     1       5.977   5.000  15.099  0.00  0.00    +0.000 A 
ATOM      3  C   UNL     1       5.297   6.193  14.894  0.00  0.00    +0.000 A 
ATOM      4  C   UNL     1       4.739   6.864  15.981  0.00  0.00    +0.000 A 
ATOM      5  C   UNL     1       4.829   6.335  17.278  0.00  0.00    +0.000 A 
ATOM      6  C   UNL     1       5.570   5.156  17.495  0.00  0.00    +0.000 A 
ATOM      7  C   UNL     1       6.129   4.490  16.386  0.00  0.00    +0.000 A 
ENDROOT
BRANCH   5   8
ATOM      8  O   UNL     1       4.213   6.909  18.367  0.00  0.00    +0.000 OA
BRANCH   8   9
ATOM      9  C   UNL     1       2.802   6.664  18.461  0.00  0.00    +0.000 C 
BRANCH   9  10
ATOM     10  C   UNL     1       2.034   7.872  18.944  0.00  0.00    +0.000 A 
ATOM     11  C   UNL     1       1.644   8.014  20.281  0.00  0.00    +0.000 A 
ATOM     12  C   UNL     1       0.962   9.159  20.699  0.00  0.00    +0.000 A 
ATOM     13  C   UNL     1       0.675  10.179  19.790  0.00  0.00    +0.000 A 
ATOM     14  C   UNL     1       1.079  10.060  18.463  0.00  0.00    +0.000 A 
ATOM     15  C   UNL     1       1.763   8.918  18.046  0.00  0.00    +0.000 A 
ENDBRANCH   9  10
ENDBRANCH   8   9
ENDBRANCH   5   8
BRANCH   6  16
ATOM     16  C   UNL     1       5.807   4.573  18.872  0.00  0.00    +0.000 C 
BRANCH  16  17
ATOM     17  N   UNL     1       5.430   3.172  19.034  0.00  0.00    +0.000 NA
ATOM     18  H   UNL     1       5.325   2.984  20.034  0.00  0.00    +0.000 HD
BRANCH  17  19
ATOM     19  C   UNL     1       4.160   2.843  18.378  0.00  0.00    +0.000 C 
BRANCH  19  20
ATOM     20  C   UNL     1       3.003   2.884  19.358  0.00  0.00    +0.000 A 
ATOM     21  C   UNL     1       3.231   2.679  20.719  0.00  0.00    +0.000 A 
ATOM     22  C   UNL     1       2.159   2.759  21.601  0.00  0.00    +0.000 A 
ATOM     23  C   UNL     1       0.893   3.044  21.106  0.00  0.00    +0.000 A 
ATOM     24  C   UNL     1       0.750   3.232  19.742  0.00  0.00    +0.000 A 
ATOM     25  N   UNL     1       1.770   3.156  18.859  0.00  0.00    +0.000 NA
ENDBRANCH  19  20
ENDBRANCH  17  19
ENDBRANCH  16  17
ENDBRANCH   6  16
TORSDOF 7
ENDMDL
MODEL 9
REMARK VINA RESULT:      -6.4      2.771      5.669
REMARK  Name = 
REMARK  7 active torsions:
REMARK  status: ('A' for Active; 'I' for Inactive)
REMARK    1  A    between atoms: C_5  and  O_6
REMARK    2  A    between atoms: O_6  and  C_7
REMARK    3  A    between atoms: C_7  and  C_8
REMARK    4  A    between atoms: C_14  and  C_15
REMARK    5  A    between atoms: C_15  and  N_16
REMARK    6  A    between atoms: N_16  and  C_17
REMARK    7  A    between atoms: C_17  and  C_18
REMARK                            x       y       z     vdW  Elec       q    Type
REMARK                         _______ _______ _______ _____ _____    ______ ____
ROOT
ATOM      1 BR   UNL     1       7.359   4.883  14.014  0.00  0.00    +0.000 Br
ATOM      2  C   UNL     1       6.352   5.427  15.517  0.00  0.00    +0.000 A 
ATOM      3  C   UNL     1       5.257   6.265  15.346  0.00  0.00    +0.000 A 
ATOM      4  C   UNL     1       4.497   6.640  16.453  0.00  0.00    +0.000 A 
ATOM      5  C   UNL     1       4.806   6.161  17.736  0.00  0.00    +0.000 A 
ATOM      6  C   UNL     1       5.952   5.361  17.918  0.00  0.00    +0.000 A 
ATOM      7  C   UNL     1       6.709   4.990  16.790  0.00  0.00    +0.000 A 
ENDROOT
BRANCH   5   8
ATOM      8  O   UNL     1       4.031   6.426  18.843  0.00  0.00    +0.000 OA
BRANCH   8   9
ATOM      9  C   UNL     1       2.619   6.477  18.592  0.00  0.00    +0.000 C 
BRANCH   9  10
ATOM     10  C   UNL     1       2.014   7.815  18.948  0.00  0.00    +0.000 A 
ATOM     11  C   UNL     1       1.791   8.806  17.985  0.00  0.00    +0.000 A 
ATOM     12  C   UNL     1       1.201  10.020  18.345  0.00  0.00    +0.000 A 
ATOM     13  C   UNL     1       0.816  10.251  19.667  0.00  0.00    +0.000 A 
ATOM     14  C   UNL     1       1.011   9.263  20.629  0.00  0.00    +0.000 A 
ATOM     15  C   UNL     1       1.597   8.049  20.269  0.00  0.00    +0.000 A 
ENDBRANCH   9  10
ENDBRANCH   8   9
ENDBRANCH   5   8
BRANCH   6  16
ATOM     16  C   UNL     1       6.417   4.887  19.279  0.00  0.00    +0.000 C 
BRANCH  16  17
ATOM     17  N   UNL     1       5.415   4.189  20.077  0.00  0.00    +0.000 NA
ATOM     18  H   UNL     1       4.654   4.843  20.276  0.00  0.00    +0.000 HD
BRANCH  17  19
ATOM     19  C   UNL     1       4.842   3.029  19.385  0.00  0.00    +0.000 C 
BRANCH  19  20
ATOM     20  C   UNL     1       3.328   3.019  19.479  0.00  0.00    +0.000 A 
ATOM     21  C   UNL     1       2.557   2.863  18.327  0.00  0.00    +0.000 A 
ATOM     22  C   UNL     1       1.172   2.820  18.444  0.00  0.00    +0.000 A 
ATOM     23  C   UNL     1       0.594   2.929  19.703  0.00  0.00    +0.000 A 
ATOM     24  C   UNL     1       1.430   3.085  20.796  0.00  0.00    +0.000 A 
ATOM     25  N   UNL     1       2.778   3.136  20.715  0.00  0.00    +0.000 NA
ENDBRANCH  19  20
ENDBRANCH  17  19
ENDBRANCH  16  17
ENDBRANCH   6  16
TORSDOF 7
ENDMDL
