MODEL 1
REMARK VINA RESULT:      -7.5      0.000      0.000
REMARK  Name = 
REMARK  8 active torsions:
REMARK  status: ('A' for Active; 'I' for Inactive)
REMARK    1  A    between atoms: C_1  and  O_2
REMARK    2  A    between atoms: O_2  and  C_3
REMARK    3  A    between atoms: C_8  and  C_9
REMARK    4  A    between atoms: C_9  and  N_10
REMARK    5  A    between atoms: C_11  and  C_13
REMARK    6  A    between atoms: N_15  and  S_16
REMARK    7  A    between atoms: S_16  and  C_17
REMARK    8  A    between atoms: C_22  and  C_23
REMARK                            x       y       z     vdW  Elec       q    Type
REMARK                         _______ _______ _______ _____ _____    ______ ____
ROOT
ATOM      1  C   UNL     1       0.737   9.639  19.874  0.00  0.00    +0.000 C 
ATOM      2  C   UNL     1      -0.182  10.449  20.802  0.00  0.00    +0.000 C 
ATOM      3  N   UNL     1      -0.365  11.797  20.117  0.00  0.00    +0.000 N 
ATOM      4  C   UNL     1      -1.086  11.480  18.883  0.00  0.00    +0.000 A 
ATOM      5  C   UNL     1      -2.324  12.083  18.689  0.00  0.00    +0.000 A 
ATOM      6  C   UNL     1      -3.285  11.459  17.869  0.00  0.00    +0.000 A 
ATOM      7  C   UNL     1      -4.742  11.783  18.037  0.00  0.00    +0.000 C 
ATOM      8  C   UNL     1      -2.928  10.366  17.068  0.00  0.00    +0.000 A 
ATOM      9  C   UNL     1      -1.674   9.786  17.213  0.00  0.00    +0.000 A 
ATOM     10  C   UNL     1      -0.813  10.273  18.196  0.00  0.00    +0.000 A 
ATOM     11  O   UNL     1       0.105   9.341  18.627  0.00  0.00    +0.000 OA
ENDROOT
BRANCH   1  13
ATOM     12  N   UNL     1       2.277   7.716  19.897  0.00  0.00    +0.000 N 
ATOM     13  C   UNL     1       1.339   8.426  20.583  0.00  0.00    +0.000 C 
ATOM     14  O   UNL     1       1.087   8.153  21.745  0.00  0.00    +0.000 OA
ATOM     15  H   UNL     1       2.599   6.899  20.396  0.00  0.00    +0.000 HD
BRANCH  12  16
ATOM     16  C   UNL     1       2.515   7.763  18.466  0.00  0.00    +0.000 C 
BRANCH  16  22
ATOM     17  C   UNL     1       2.953   5.234  18.031  0.00  0.00    +0.000 A 
ATOM     18  C   UNL     1       3.713   4.252  17.382  0.00  0.00    +0.000 A 
ATOM     19  C   UNL     1       4.824   4.599  16.613  0.00  0.00    +0.000 A 
ATOM     20  C   UNL     1       5.172   5.935  16.464  0.00  0.00    +0.000 A 
ATOM     21  C   UNL     1       4.399   6.922  17.077  0.00  0.00    +0.000 A 
ATOM     22  C   UNL     1       3.274   6.596  17.862  0.00  0.00    +0.000 A 
BRANCH  17  24
ATOM     23  C   UNL     1       1.369   3.589  18.664  0.00  0.00    +0.000 C 
ATOM     24  O   UNL     1       1.854   4.920  18.782  0.00  0.00    +0.000 OA
ENDBRANCH  17  24
ENDBRANCH  16  22
ENDBRANCH  12  16
ENDBRANCH   1  13
BRANCH   3  25
ATOM     25  S   UNL     1       1.166  12.607  19.983  0.00  0.00    +0.000 S 
ATOM     26  C   UNL     1       0.761  14.327  19.938  0.00  0.00    +0.000 C 
ATOM     27  O   UNL     1       1.853  12.404  21.245  0.00  0.00    +0.000 OA
ATOM     28  O   UNL     1       1.814  12.252  18.740  0.00  0.00    +0.000 OA
ENDBRANCH   3  25
TORSDOF 5
ENDMDL
MODEL 2
REMARK VINA RESULT:      -7.4      0.964      1.771
REMARK  Name = 
REMARK  8 active torsions:
REMARK  status: ('A' for Active; 'I' for Inactive)
REMARK    1  A    between atoms: C_1  and  O_2
REMARK    2  A    between atoms: O_2  and  C_3
REMARK    3  A    between atoms: C_8  and  C_9
REMARK    4  A    between atoms: C_9  and  N_10
REMARK    5  A    between atoms: C_11  and  C_13
REMARK    6  A    between atoms: N_15  and  S_16
REMARK    7  A    between atoms: S_16  and  C_17
REMARK    8  A    between atoms: C_22  and  C_23
REMARK                            x       y       z     vdW  Elec       q    Type
REMARK                         _______ _______ _______ _____ _____    ______ ____
ROOT
ATOM      1  C   UNL     1       0.706   9.651  19.939  0.00  0.00    +0.000 C 
ATOM      2  C   UNL     1      -0.227  10.518  20.798  0.00  0.00    +0.000 C 
ATOM      3  N   UNL     1      -0.365  11.836  20.046  0.00  0.00    +0.000 N 
ATOM      4  C   UNL     1      -1.051  11.474  18.805  0.00  0.00    +0.000 A 
ATOM      5  C   UNL     1      -2.272  12.087  18.542  0.00  0.00    +0.000 A 
ATOM      6  C   UNL     1      -3.216  11.441  17.721  0.00  0.00    +0.000 A 
ATOM      7  C   UNL     1      -4.673  11.796  17.826  0.00  0.00    +0.000 C 
ATOM      8  C   UNL     1      -2.853  10.307  16.982  0.00  0.00    +0.000 A 
ATOM      9  C   UNL     1      -1.614   9.714  17.196  0.00  0.00    +0.000 A 
ATOM     10  C   UNL     1      -0.777  10.233  18.183  0.00  0.00    +0.000 A 
ATOM     11  O   UNL     1       0.109   9.306  18.686  0.00  0.00    +0.000 OA
ENDROOT
BRANCH   1  13
ATOM     12  N   UNL     1       2.200   7.699  20.095  0.00  0.00    +0.000 N 
ATOM     13  C   UNL     1       1.264   8.463  20.721  0.00  0.00    +0.000 C 
ATOM     14  O   UNL     1       0.979   8.256  21.890  0.00  0.00    +0.000 OA
ATOM     15  H   UNL     1       2.491   6.901  20.641  0.00  0.00    +0.000 HD
BRANCH  12  16
ATOM     16  C   UNL     1       2.471   7.667  18.669  0.00  0.00    +0.000 C 
BRANCH  16  22
ATOM     17  C   UNL     1       4.119   6.105  17.398  0.00  0.00    +0.000 A 
ATOM     18  C   UNL     1       4.430   4.815  16.946  0.00  0.00    +0.000 A 
ATOM     19  C   UNL     1       3.532   3.762  17.121  0.00  0.00    +0.000 A 
ATOM     20  C   UNL     1       2.325   3.982  17.771  0.00  0.00    +0.000 A 
ATOM     21  C   UNL     1       2.024   5.255  18.256  0.00  0.00    +0.000 A 
ATOM     22  C   UNL     1       2.914   6.337  18.088  0.00  0.00    +0.000 A 
BRANCH  17  24
ATOM     23  C   UNL     1       6.371   6.846  17.359  0.00  0.00    +0.000 C 
ATOM     24  O   UNL     1       4.987   7.152  17.248  0.00  0.00    +0.000 OA
ENDBRANCH  17  24
ENDBRANCH  16  22
ENDBRANCH  12  16
ENDBRANCH   1  13
BRANCH   3  25
ATOM     25  S   UNL     1       1.183  12.615  19.926  0.00  0.00    +0.000 S 
ATOM     26  C   UNL     1       0.812  14.340  19.834  0.00  0.00    +0.000 C 
ATOM     27  O   UNL     1       1.840  12.428  21.206  0.00  0.00    +0.000 OA
ATOM     28  O   UNL     1       1.850  12.219  18.705  0.00  0.00    +0.000 OA
ENDBRANCH   3  25
TORSDOF 5
ENDMDL
MODEL 3
REMARK VINA RESULT:      -7.4      1.231      2.164
REMARK  Name = 
REMARK  8 active torsions:
REMARK  status: ('A' for Active; 'I' for Inactive)
REMARK    1  A    between atoms: C_1  and  O_2
REMARK    2  A    between atoms: O_2  and  C_3
REMARK    3  A    between atoms: C_8  and  C_9
REMARK    4  A    between atoms: C_9  and  N_10
REMARK    5  A    between atoms: C_11  and  C_13
REMARK    6  A    between atoms: N_15  and  S_16
REMARK    7  A    between atoms: S_16  and  C_17
REMARK    8  A    between atoms: C_22  and  C_23
REMARK                            x       y       z     vdW  Elec       q    Type
REMARK                         _______ _______ _______ _____ _____    ______ ____
ROOT
ATOM      1  C   UNL     1       0.780  10.120  20.590  0.00  0.00    +0.000 C 
ATOM      2  C   UNL     1      -0.311  11.091  21.070  0.00  0.00    +0.000 C 
ATOM      3  N   UNL     1      -0.312  12.231  20.061  0.00  0.00    +0.000 N 
ATOM      4  C   UNL     1      -0.741  11.606  18.809  0.00  0.00    +0.000 A 
ATOM      5  C   UNL     1      -1.894  12.099  18.206  0.00  0.00    +0.000 A 
ATOM      6  C   UNL     1      -2.655  11.263  17.365  0.00  0.00    +0.000 A 
ATOM      7  C   UNL     1      -4.107  11.561  17.122  0.00  0.00    +0.000 C 
ATOM      8  C   UNL     1      -2.144  10.026  16.947  0.00  0.00    +0.000 A 
ATOM      9  C   UNL     1      -0.965   9.545  17.502  0.00  0.00    +0.000 A 
ATOM     10  C   UNL     1      -0.340  10.283  18.508  0.00  0.00    +0.000 A 
ATOM     11  O   UNL     1       0.441   9.513  19.341  0.00  0.00    +0.000 OA
ENDROOT
BRANCH   1  13
ATOM     12  N   UNL     1       1.929   8.058  21.296  0.00  0.00    +0.000 N 
ATOM     13  C   UNL     1       1.187   9.132  21.683  0.00  0.00    +0.000 C 
ATOM     14  O   UNL     1       0.962   9.332  22.866  0.00  0.00    +0.000 OA
ATOM     15  H   UNL     1       2.122   7.417  22.051  0.00  0.00    +0.000 HD
BRANCH  12  16
ATOM     16  C   UNL     1       2.081   7.561  19.941  0.00  0.00    +0.000 C 
BRANCH  16  22
ATOM     17  C   UNL     1       2.620   5.355  18.670  0.00  0.00    +0.000 A 
ATOM     18  C   UNL     1       2.584   3.954  18.646  0.00  0.00    +0.000 A 
ATOM     19  C   UNL     1       1.958   3.238  19.667  0.00  0.00    +0.000 A 
ATOM     20  C   UNL     1       1.385   3.915  20.736  0.00  0.00    +0.000 A 
ATOM     21  C   UNL     1       1.449   5.308  20.785  0.00  0.00    +0.000 A 
ATOM     22  C   UNL     1       2.072   6.054  19.763  0.00  0.00    +0.000 A 
BRANCH  17  24
ATOM     23  C   UNL     1       4.444   5.539  17.167  0.00  0.00    +0.000 C 
ATOM     24  O   UNL     1       3.236   6.079  17.685  0.00  0.00    +0.000 OA
ENDBRANCH  17  24
ENDBRANCH  16  22
ENDBRANCH  12  16
ENDBRANCH   1  13
BRANCH   3  25
ATOM     25  S   UNL     1       1.222  13.045  20.083  0.00  0.00    +0.000 S 
ATOM     26  C   UNL     1       0.844  14.727  19.695  0.00  0.00    +0.000 C 
ATOM     27  O   UNL     1       1.664  13.056  21.465  0.00  0.00    +0.000 OA
ATOM     28  O   UNL     1       2.086  12.515  19.051  0.00  0.00    +0.000 OA
ENDBRANCH   3  25
TORSDOF 5
ENDMDL
MODEL 4
REMARK VINA RESULT:      -7.3      4.305      7.477
REMARK  Name = 
REMARK  8 active torsions:
REMARK  status: ('A' for Active; 'I' for Inactive)
REMARK    1  A    between atoms: C_1  and  O_2
REMARK    2  A    between atoms: O_2  and  C_3
REMARK    3  A    between atoms: C_8  and  C_9
REMARK    4  A    between atoms: C_9  and  N_10
REMARK    5  A    between atoms: C_11  and  C_13
REMARK    6  A    between atoms: N_15  and  S_16
REMARK    7  A    between atoms: S_16  and  C_17
REMARK    8  A    between atoms: C_22  and  C_23
REMARK                            x       y       z     vdW  Elec       q    Type
REMARK                         _______ _______ _______ _____ _____    ______ ____
ROOT
ATOM      1  C   UNL     1       4.913   4.853  18.016  0.00  0.00    +0.000 C 
ATOM      2  C   UNL     1       4.735   5.469  19.413  0.00  0.00    +0.000 C 
ATOM      3  N   UNL     1       3.256   5.818  19.519  0.00  0.00    +0.000 N 
ATOM      4  C   UNL     1       2.575   4.523  19.474  0.00  0.00    +0.000 A 
ATOM      5  C   UNL     1       1.778   4.178  20.560  0.00  0.00    +0.000 A 
ATOM      6  C   UNL     1       1.548   2.820  20.854  0.00  0.00    +0.000 A 
ATOM      7  C   UNL     1       1.152   2.407  22.244  0.00  0.00    +0.000 C 
ATOM      8  C   UNL     1       1.916   1.825  19.938  0.00  0.00    +0.000 A 
ATOM      9  C   UNL     1       2.668   2.164  18.820  0.00  0.00    +0.000 A 
ATOM     10  C   UNL     1       3.087   3.485  18.660  0.00  0.00    +0.000 A 
ATOM     11  O   UNL     1       4.224   3.606  17.893  0.00  0.00    +0.000 OA
ENDROOT
BRANCH   1  13
ATOM     12  N   UNL     1       6.674   5.266  16.345  0.00  0.00    +0.000 N 
ATOM     13  C   UNL     1       6.380   4.809  17.593  0.00  0.00    +0.000 C 
ATOM     14  O   UNL     1       7.274   4.486  18.359  0.00  0.00    +0.000 OA
ATOM     15  H   UNL     1       7.649   5.163  16.105  0.00  0.00    +0.000 HD
BRANCH  12  16
ATOM     16  C   UNL     1       5.734   5.459  15.256  0.00  0.00    +0.000 C 
BRANCH  16  22
ATOM     17  C   UNL     1       7.190   4.713  13.231  0.00  0.00    +0.000 A 
ATOM     18  C   UNL     1       7.322   3.910  12.090  0.00  0.00    +0.000 A 
ATOM     19  C   UNL     1       6.263   3.116  11.649  0.00  0.00    +0.000 A 
ATOM     20  C   UNL     1       5.070   3.098  12.359  0.00  0.00    +0.000 A 
ATOM     21  C   UNL     1       4.943   3.866  13.517  0.00  0.00    +0.000 A 
ATOM     22  C   UNL     1       5.998   4.680  13.981  0.00  0.00    +0.000 A 
BRANCH  17  24
ATOM     23  C   UNL     1       8.977   6.178  12.705  0.00  0.00    +0.000 C 
ATOM     24  O   UNL     1       8.217   5.492  13.690  0.00  0.00    +0.000 OA
ENDBRANCH  17  24
ENDBRANCH  16  22
ENDBRANCH  12  16
ENDBRANCH   1  13
BRANCH   3  25
ATOM     25  S   UNL     1       2.840   7.003  18.319  0.00  0.00    +0.000 S 
ATOM     26  C   UNL     1       2.044   8.296  19.222  0.00  0.00    +0.000 C 
ATOM     27  O   UNL     1       4.089   7.571  17.848  0.00  0.00    +0.000 OA
ATOM     28  O   UNL     1       1.895   6.448  17.375  0.00  0.00    +0.000 OA
ENDBRANCH   3  25
TORSDOF 5
ENDMDL
MODEL 5
REMARK VINA RESULT:      -7.2      2.274      7.956
REMARK  Name = 
REMARK  8 active torsions:
REMARK  status: ('A' for Active; 'I' for Inactive)
REMARK    1  A    between atoms: C_1  and  O_2
REMARK    2  A    between atoms: O_2  and  C_3
REMARK    3  A    between atoms: C_8  and  C_9
REMARK    4  A    between atoms: C_9  and  N_10
REMARK    5  A    between atoms: C_11  and  C_13
REMARK    6  A    between atoms: N_15  and  S_16
REMARK    7  A    between atoms: S_16  and  C_17
REMARK    8  A    between atoms: C_22  and  C_23
REMARK                            x       y       z     vdW  Elec       q    Type
REMARK                         _______ _______ _______ _____ _____    ______ ____
ROOT
ATOM      1  C   UNL     1       2.283   6.742  19.436  0.00  0.00    +0.000 C 
ATOM      2  C   UNL     1       3.072   5.619  20.127  0.00  0.00    +0.000 C 
ATOM      3  N   UNL     1       3.129   4.481  19.116  0.00  0.00    +0.000 N 
ATOM      4  C   UNL     1       3.923   5.018  18.011  0.00  0.00    +0.000 A 
ATOM      5  C   UNL     1       5.093   4.345  17.673  0.00  0.00    +0.000 A 
ATOM      6  C   UNL     1       6.145   5.044  17.048  0.00  0.00    +0.000 A 
ATOM      7  C   UNL     1       7.551   4.520  17.134  0.00  0.00    +0.000 C 
ATOM      8  C   UNL     1       5.940   6.340  16.555  0.00  0.00    +0.000 A 
ATOM      9  C   UNL     1       4.754   7.004  16.840  0.00  0.00    +0.000 A 
ATOM     10  C   UNL     1       3.810   6.384  17.659  0.00  0.00    +0.000 A 
ATOM     11  O   UNL     1       2.987   7.275  18.312  0.00  0.00    +0.000 OA
ENDROOT
BRANCH   1  13
ATOM     12  N   UNL     1       1.038   8.809  19.933  0.00  0.00    +0.000 N 
ATOM     13  C   UNL     1       1.794   7.793  20.432  0.00  0.00    +0.000 C 
ATOM     14  O   UNL     1       1.969   7.688  21.636  0.00  0.00    +0.000 OA
ATOM     15  H   UNL     1       0.790   9.497  20.628  0.00  0.00    +0.000 HD
BRANCH  12  16
ATOM     16  C   UNL     1       0.935   9.199  18.538  0.00  0.00    +0.000 C 
BRANCH  16  22
ATOM     17  C   UNL     1      -0.445  11.403  18.665  0.00  0.00    +0.000 A 
ATOM     18  C   UNL     1      -1.537  12.152  18.208  0.00  0.00    +0.000 A 
ATOM     19  C   UNL     1      -2.450  11.607  17.305  0.00  0.00    +0.000 A 
ATOM     20  C   UNL     1      -2.265  10.314  16.830  0.00  0.00    +0.000 A 
ATOM     21  C   UNL     1      -1.160   9.575  17.252  0.00  0.00    +0.000 A 
ATOM     22  C   UNL     1      -0.226  10.103  18.167  0.00  0.00    +0.000 A 
BRANCH  17  24
ATOM     23  C   UNL     1      -0.013  12.243  20.839  0.00  0.00    +0.000 C 
ATOM     24  O   UNL     1       0.470  11.919  19.542  0.00  0.00    +0.000 OA
ENDBRANCH  17  24
ENDBRANCH  16  22
ENDBRANCH  12  16
ENDBRANCH   1  13
BRANCH   3  25
ATOM     25  S   UNL     1       1.524   3.915  18.770  0.00  0.00    +0.000 S 
ATOM     26  C   UNL     1       1.668   2.155  18.724  0.00  0.00    +0.000 C 
ATOM     27  O   UNL     1       0.720   4.208  19.942  0.00  0.00    +0.000 OA
ATOM     28  O   UNL     1       1.100   4.379  17.467  0.00  0.00    +0.000 OA
ENDBRANCH   3  25
TORSDOF 5
ENDMDL
MODEL 6
REMARK VINA RESULT:      -7.1      5.276      8.044
REMARK  Name = 
REMARK  8 active torsions:
REMARK  status: ('A' for Active; 'I' for Inactive)
REMARK    1  A    between atoms: C_1  and  O_2
REMARK    2  A    between atoms: O_2  and  C_3
REMARK    3  A    between atoms: C_8  and  C_9
REMARK    4  A    between atoms: C_9  and  N_10
REMARK    5  A    between atoms: C_11  and  C_13
REMARK    6  A    between atoms: N_15  and  S_16
REMARK    7  A    between atoms: S_16  and  C_17
REMARK    8  A    between atoms: C_22  and  C_23
REMARK                            x       y       z     vdW  Elec       q    Type
REMARK                         _______ _______ _______ _____ _____    ______ ____
ROOT
ATOM      1  C   UNL     1       4.581   6.073  17.556  0.00  0.00    +0.000 C 
ATOM      2  C   UNL     1       5.659   7.001  16.974  0.00  0.00    +0.000 C 
ATOM      3  N   UNL     1       6.922   6.153  16.887  0.00  0.00    +0.000 N 
ATOM      4  C   UNL     1       6.596   5.119  15.905  0.00  0.00    +0.000 A 
ATOM      5  C   UNL     1       7.392   5.037  14.768  0.00  0.00    +0.000 A 
ATOM      6  C   UNL     1       6.863   4.493  13.581  0.00  0.00    +0.000 A 
ATOM      7  C   UNL     1       7.474   4.845  12.254  0.00  0.00    +0.000 C 
ATOM      8  C   UNL     1       5.632   3.824  13.597  0.00  0.00    +0.000 A 
ATOM      9  C   UNL     1       4.849   3.852  14.744  0.00  0.00    +0.000 A 
ATOM     10  C   UNL     1       5.283   4.593  15.843  0.00  0.00    +0.000 A 
ATOM     11  O   UNL     1       4.255   5.008  16.660  0.00  0.00    +0.000 OA
ENDROOT
BRANCH   1  13
ATOM     12  N   UNL     1       2.936   6.548  19.327  0.00  0.00    +0.000 N 
ATOM     13  C   UNL     1       3.374   6.854  18.075  0.00  0.00    +0.000 C 
ATOM     14  O   UNL     1       2.880   7.784  17.458  0.00  0.00    +0.000 OA
ATOM     15  H   UNL     1       2.107   7.059  19.593  0.00  0.00    +0.000 HD
BRANCH  12  16
ATOM     16  C   UNL     1       3.252   5.347  20.079  0.00  0.00    +0.000 C 
BRANCH  16  22
ATOM     17  C   UNL     1       3.352   2.834  19.411  0.00  0.00    +0.000 A 
ATOM     18  C   UNL     1       2.673   1.690  18.970  0.00  0.00    +0.000 A 
ATOM     19  C   UNL     1       1.322   1.749  18.630  0.00  0.00    +0.000 A 
ATOM     20  C   UNL     1       0.629   2.947  18.751  0.00  0.00    +0.000 A 
ATOM     21  C   UNL     1       1.289   4.081  19.224  0.00  0.00    +0.000 A 
ATOM     22  C   UNL     1       2.656   4.048  19.571  0.00  0.00    +0.000 A 
BRANCH  17  24
ATOM     23  C   UNL     1       5.076   1.733  20.609  0.00  0.00    +0.000 C 
ATOM     24  O   UNL     1       4.675   2.800  19.760  0.00  0.00    +0.000 OA
ENDBRANCH  17  24
ENDBRANCH  16  22
ENDBRANCH  12  16
ENDBRANCH   1  13
BRANCH   3  25
ATOM     25  S   UNL     1       7.406   5.647  18.477  0.00  0.00    +0.000 S 
ATOM     26  C   UNL     1       8.409   6.970  19.083  0.00  0.00    +0.000 C 
ATOM     27  O   UNL     1       6.210   5.660  19.298  0.00  0.00    +0.000 OA
ATOM     28  O   UNL     1       8.217   4.452  18.396  0.00  0.00    +0.000 OA
ENDBRANCH   3  25
TORSDOF 5
ENDMDL
MODEL 7
REMARK VINA RESULT:      -7.1      0.989      1.009
REMARK  Name = 
REMARK  8 active torsions:
REMARK  status: ('A' for Active; 'I' for Inactive)
REMARK    1  A    between atoms: C_1  and  O_2
REMARK    2  A    between atoms: O_2  and  C_3
REMARK    3  A    between atoms: C_8  and  C_9
REMARK    4  A    between atoms: C_9  and  N_10
REMARK    5  A    between atoms: C_11  and  C_13
REMARK    6  A    between atoms: N_15  and  S_16
REMARK    7  A    between atoms: S_16  and  C_17
REMARK    8  A    between atoms: C_22  and  C_23
REMARK                            x       y       z     vdW  Elec       q    Type
REMARK                         _______ _______ _______ _____ _____    ______ ____
ROOT
ATOM      1  C   UNL     1       0.353  10.104  20.348  0.00  0.00    +0.000 C 
ATOM      2  C   UNL     1      -0.785  10.806  21.107  0.00  0.00    +0.000 C 
ATOM      3  N   UNL     1      -1.058  12.089  20.333  0.00  0.00    +0.000 N 
ATOM      4  C   UNL     1      -1.556  11.631  19.036  0.00  0.00    +0.000 A 
ATOM      5  C   UNL     1      -2.828  12.043  18.653  0.00  0.00    +0.000 A 
ATOM      6  C   UNL     1      -3.574  11.259  17.751  0.00  0.00    +0.000 A 
ATOM      7  C   UNL     1      -5.072  11.376  17.713  0.00  0.00    +0.000 C 
ATOM      8  C   UNL     1      -2.966  10.202  17.060  0.00  0.00    +0.000 A 
ATOM      9  C   UNL     1      -1.675   9.813  17.396  0.00  0.00    +0.000 A 
ATOM     10  C   UNL     1      -1.029  10.453  18.454  0.00  0.00    +0.000 A 
ATOM     11  O   UNL     1      -0.059   9.676  19.048  0.00  0.00    +0.000 OA
ENDROOT
BRANCH   1  13
ATOM     12  N   UNL     1       1.912   8.209  20.560  0.00  0.00    +0.000 N 
ATOM     13  C   UNL     1       1.016   9.015  21.191  0.00  0.00    +0.000 C 
ATOM     14  O   UNL     1       0.846   8.925  22.397  0.00  0.00    +0.000 OA
ATOM     15  H   UNL     1       2.276   7.479  21.155  0.00  0.00    +0.000 HD
BRANCH  12  16
ATOM     16  C   UNL     1       2.051   8.035  19.125  0.00  0.00    +0.000 C 
BRANCH  16  22
ATOM     17  C   UNL     1       2.771   5.535  19.212  0.00  0.00    +0.000 A 
ATOM     18  C   UNL     1       3.528   4.494  18.659  0.00  0.00    +0.000 A 
ATOM     19  C   UNL     1       4.402   4.731  17.598  0.00  0.00    +0.000 A 
ATOM     20  C   UNL     1       4.509   6.008  17.062  0.00  0.00    +0.000 A 
ATOM     21  C   UNL     1       3.732   7.043  17.583  0.00  0.00    +0.000 A 
ATOM     22  C   UNL     1       2.844   6.828  18.659  0.00  0.00    +0.000 A 
BRANCH  17  24
ATOM     23  C   UNL     1       2.157   4.196  21.069  0.00  0.00    +0.000 C 
ATOM     24  O   UNL     1       1.900   5.326  20.246  0.00  0.00    +0.000 OA
ENDBRANCH  17  24
ENDBRANCH  16  22
ENDBRANCH  12  16
ENDBRANCH   1  13
BRANCH   3  25
ATOM     25  S   UNL     1       0.350  13.106  20.355  0.00  0.00    +0.000 S 
ATOM     26  C   UNL     1      -0.286  14.754  20.385  0.00  0.00    +0.000 C 
ATOM     27  O   UNL     1       0.982  12.910  21.646  0.00  0.00    +0.000 OA
ATOM     28  O   UNL     1       1.115  12.928  19.140  0.00  0.00    +0.000 OA
ENDBRANCH   3  25
TORSDOF 5
ENDMDL
MODEL 8
REMARK VINA RESULT:      -7.1      2.470      3.934
REMARK  Name = 
REMARK  8 active torsions:
REMARK  status: ('A' for Active; 'I' for Inactive)
REMARK    1  A    between atoms: C_1  and  O_2
REMARK    2  A    between atoms: O_2  and  C_3
REMARK    3  A    between atoms: C_8  and  C_9
REMARK    4  A    between atoms: C_9  and  N_10
REMARK    5  A    between atoms: C_11  and  C_13
REMARK    6  A    between atoms: N_15  and  S_16
REMARK    7  A    between atoms: S_16  and  C_17
REMARK    8  A    between atoms: C_22  and  C_23
REMARK                            x       y       z     vdW  Elec       q    Type
REMARK                         _______ _______ _______ _____ _____    ______ ____
ROOT
ATOM      1  C   UNL     1       1.416   9.969  19.295  0.00  0.00    +0.000 C 
ATOM      2  C   UNL     1      -0.112  10.139  19.287  0.00  0.00    +0.000 C 
ATOM      3  N   UNL     1      -0.459  10.764  20.632  0.00  0.00    +0.000 N 
ATOM      4  C   UNL     1       0.173  12.084  20.592  0.00  0.00    +0.000 A 
ATOM      5  C   UNL     1      -0.650  13.196  20.735  0.00  0.00    +0.000 A 
ATOM      6  C   UNL     1      -0.258  14.432  20.185  0.00  0.00    +0.000 A 
ATOM      7  C   UNL     1      -1.290  15.478  19.871  0.00  0.00    +0.000 C 
ATOM      8  C   UNL     1       1.046  14.610  19.704  0.00  0.00    +0.000 A 
ATOM      9  C   UNL     1       1.899  13.517  19.605  0.00  0.00    +0.000 A 
ATOM     10  C   UNL     1       1.417  12.251  19.939  0.00  0.00    +0.000 A 
ATOM     11  O   UNL     1       2.092  11.229  19.308  0.00  0.00    +0.000 OA
ENDROOT
BRANCH   1  13
ATOM     12  N   UNL     1       2.043   7.703  18.560  0.00  0.00    +0.000 N 
ATOM     13  C   UNL     1       1.890   9.009  18.206  0.00  0.00    +0.000 C 
ATOM     14  O   UNL     1       2.027   9.352  17.042  0.00  0.00    +0.000 OA
ATOM     15  H   UNL     1       2.407   7.130  17.813  0.00  0.00    +0.000 HD
BRANCH  12  16
ATOM     16  C   UNL     1       2.147   7.186  19.912  0.00  0.00    +0.000 C 
BRANCH  16  22
ATOM     17  C   UNL     1       3.468   4.954  19.700  0.00  0.00    +0.000 A 
ATOM     18  C   UNL     1       3.516   3.571  19.924  0.00  0.00    +0.000 A 
ATOM     19  C   UNL     1       2.413   2.894  20.447  0.00  0.00    +0.000 A 
ATOM     20  C   UNL     1       1.261   3.597  20.773  0.00  0.00    +0.000 A 
ATOM     21  C   UNL     1       1.219   4.979  20.587  0.00  0.00    +0.000 A 
ATOM     22  C   UNL     1       2.319   5.685  20.057  0.00  0.00    +0.000 A 
BRANCH  17  24
ATOM     23  C   UNL     1       5.747   4.908  19.049  0.00  0.00    +0.000 C 
ATOM     24  O   UNL     1       4.539   5.642  19.199  0.00  0.00    +0.000 OA
ENDBRANCH  17  24
ENDBRANCH  16  22
ENDBRANCH  12  16
ENDBRANCH   1  13
BRANCH   3  25
ATOM     25  S   UNL     1      -0.015   9.685  21.919  0.00  0.00    +0.000 S 
ATOM     26  C   UNL     1      -0.966  10.226  23.306  0.00  0.00    +0.000 C 
ATOM     27  O   UNL     1      -0.548   8.382  21.568  0.00  0.00    +0.000 OA
ATOM     28  O   UNL     1       1.389   9.833  22.234  0.00  0.00    +0.000 OA
ENDBRANCH   3  25
TORSDOF 5
ENDMDL
MODEL 9
REMARK VINA RESULT:      -7.0      5.263      8.170
REMARK  Name = 
REMARK  8 active torsions:
REMARK  status: ('A' for Active; 'I' for Inactive)
REMARK    1  A    between atoms: C_1  and  O_2
REMARK    2  A    between atoms: O_2  and  C_3
REMARK    3  A    between atoms: C_8  and  C_9
REMARK    4  A    between atoms: C_9  and  N_10
REMARK    5  A    between atoms: C_11  and  C_13
REMARK    6  A    between atoms: N_15  and  S_16
REMARK    7  A    between atoms: S_16  and  C_17
REMARK    8  A    between atoms: C_22  and  C_23
REMARK                            x       y       z     vdW  Elec       q    Type
REMARK                         _______ _______ _______ _____ _____    ______ ____
ROOT
ATOM      1  C   UNL     1       4.510   6.057  17.285  0.00  0.00    +0.000 C 
ATOM      2  C   UNL     1       5.640   6.963  16.770  0.00  0.00    +0.000 C 
ATOM      3  N   UNL     1       6.882   6.082  16.731  0.00  0.00    +0.000 N 
ATOM      4  C   UNL     1       6.577   5.071  15.718  0.00  0.00    +0.000 A 
ATOM      5  C   UNL     1       7.425   4.984  14.619  0.00  0.00    +0.000 A 
ATOM      6  C   UNL     1       6.940   4.472  13.400  0.00  0.00    +0.000 A 
ATOM      7  C   UNL     1       7.624   4.825  12.110  0.00  0.00    +0.000 C 
ATOM      8  C   UNL     1       5.692   3.836  13.346  0.00  0.00    +0.000 A 
ATOM      9  C   UNL     1       4.855   3.869  14.455  0.00  0.00    +0.000 A 
ATOM     10  C   UNL     1       5.255   4.583  15.585  0.00  0.00    +0.000 A 
ATOM     11  O   UNL     1       4.200   5.014  16.358  0.00  0.00    +0.000 OA
ENDROOT
BRANCH   1  13
ATOM     12  N   UNL     1       2.265   6.162  18.292  0.00  0.00    +0.000 N 
ATOM     13  C   UNL     1       3.301   6.863  17.757  0.00  0.00    +0.000 C 
ATOM     14  O   UNL     1       3.288   8.084  17.763  0.00  0.00    +0.000 OA
ATOM     15  H   UNL     1       1.477   6.743  18.537  0.00  0.00    +0.000 HD
BRANCH  12  16
ATOM     16  C   UNL     1       2.027   4.737  18.150  0.00  0.00    +0.000 C 
BRANCH  16  22
ATOM     17  C   UNL     1       3.225   2.953  19.618  0.00  0.00    +0.000 A 
ATOM     18  C   UNL     1       3.292   2.262  20.836  0.00  0.00    +0.000 A 
ATOM     19  C   UNL     1       2.318   2.447  21.817  0.00  0.00    +0.000 A 
ATOM     20  C   UNL     1       1.279   3.342  21.600  0.00  0.00    +0.000 A 
ATOM     21  C   UNL     1       1.225   4.061  20.406  0.00  0.00    +0.000 A 
ATOM     22  C   UNL     1       2.196   3.889  19.397  0.00  0.00    +0.000 A 
BRANCH  17  24
ATOM     23  C   UNL     1       3.979   1.718  17.740  0.00  0.00    +0.000 C 
ATOM     24  O   UNL     1       4.174   2.797  18.645  0.00  0.00    +0.000 OA
ENDBRANCH  17  24
ENDBRANCH  16  22
ENDBRANCH  12  16
ENDBRANCH   1  13
BRANCH   3  25
ATOM     25  S   UNL     1       7.275   5.541  18.334  0.00  0.00    +0.000 S 
ATOM     26  C   UNL     1       8.268   6.834  19.014  0.00  0.00    +0.000 C 
ATOM     27  O   UNL     1       6.038   5.561  19.092  0.00  0.00    +0.000 OA
ATOM     28  O   UNL     1       8.068   4.332  18.274  0.00  0.00    +0.000 OA
ENDBRANCH   3  25
TORSDOF 5
ENDMDL
