MODEL 1
REMARK VINA RESULT:      -7.9      0.000      0.000
REMARK  Name = 
REMARK  10 active torsions:
REMARK  status: ('A' for Active; 'I' for Inactive)
REMARK    1  A    between atoms: C_1  and  C_2
REMARK    2  A    between atoms: C_2  and  C_3
REMARK    3  A    between atoms: C_6  and  C_7
REMARK    4  A    between atoms: C_7  and  O_8
REMARK    5  A    between atoms: C_9  and  C_10
REMARK    6  A    between atoms: C_13  and  C_14
REMARK    7  A    between atoms: C_22  and  C_23
REMARK    8  A    between atoms: C_23  and  N_24
REMARK    9  A    between atoms: N_24  and  C_25
REMARK   10  A    between atoms: C_26  and  C_27
REMARK                            x       y       z     vdW  Elec       q    Type
REMARK                         _______ _______ _______ _____ _____    ______ ____
ROOT
ATOM      1  C   UNL     1       6.421   4.845  15.312  0.00  0.00    +0.000 C 
ATOM      2  O   UNL     1       7.510   5.402  15.175  0.00  0.00    +0.000 OA
ATOM      3  N   UNL     1       5.439   5.402  16.081  0.00  0.00    +0.000 N 
ATOM      4  C   UNL     1       5.391   6.735  16.709  0.00  0.00    +0.000 C 
ATOM      5  C   UNL     1       4.475   6.041  17.753  0.00  0.00    +0.000 C 
ATOM      6  C   UNL     1       4.103   5.052  16.596  0.00  0.00    +0.000 C 
ENDROOT
BRANCH   5   7
ATOM      7  C   UNL     1       3.395   6.908  18.515  0.00  0.00    +0.000 A 
ATOM      8  C   UNL     1       2.826   8.084  18.004  0.00  0.00    +0.000 A 
ATOM      9  C   UNL     1       1.917   8.849  18.751  0.00  0.00    +0.000 A 
ATOM     10  C   UNL     1       1.516   8.470  20.043  0.00  0.00    +0.000 A 
ATOM     11  C   UNL     1       2.064   7.286  20.550  0.00  0.00    +0.000 A 
ATOM     12  C   UNL     1       2.982   6.535  19.808  0.00  0.00    +0.000 A 
BRANCH  10  13
ATOM     13  C   UNL     1       0.571   9.284  20.836  0.00  0.00    +0.000 A 
ATOM     14  C   UNL     1       0.320   9.032  22.193  0.00  0.00    +0.000 A 
ATOM     15  C   UNL     1      -0.586   9.816  22.905  0.00  0.00    +0.000 A 
ATOM     16  C   UNL     1      -1.224  10.851  22.246  0.00  0.00    +0.000 A 
ATOM     17  N   UNL     1      -1.019  11.143  20.947  0.00  0.00    +0.000 NA
ATOM     18  C   UNL     1      -0.137  10.357  20.280  0.00  0.00    +0.000 A 
ENDBRANCH  10  13
ENDBRANCH   5   7
BRANCH   1  20
ATOM     19  C   UNL     1       6.068   3.624  13.122  0.00  0.00    +0.000 C 
ATOM     20  C   UNL     1       6.112   3.528  14.639  0.00  0.00    +0.000 C 
ENDBRANCH   1  20
BRANCH   4  21
ATOM     21  C   UNL     1       6.695   7.326  17.220  0.00  0.00    +0.000 C 
BRANCH  21  22
ATOM     22  O   UNL     1       7.340   6.444  18.133  0.00  0.00    +0.000 OA
ATOM     23  H   UNL     1       7.247   5.555  17.732  0.00  0.00    +0.000 HD
ENDBRANCH  21  22
ENDBRANCH   4  21
BRANCH   6  24
ATOM     24  C   UNL     1       3.885   3.649  17.155  0.00  0.00    +0.000 C 
BRANCH  24  25
ATOM     25  N   UNL     1       2.609   3.459  17.864  0.00  0.00    +0.000 N 
ATOM     26  C   UNL     1       1.403   4.168  17.444  0.00  0.00    +0.000 C 
ATOM     27  C   UNL     1       2.557   2.979  19.179  0.00  0.00    +0.000 C 
ATOM     28  C   UNL     1       3.826   2.527  19.864  0.00  0.00    +0.000 C 
ATOM     29  O   UNL     1       1.495   2.914  19.804  0.00  0.00    +0.000 OA
ENDBRANCH  24  25
ENDBRANCH   6  24
TORSDOF 7
ENDMDL
MODEL 2
REMARK VINA RESULT:      -7.3      0.986      1.576
REMARK  Name = 
REMARK  10 active torsions:
REMARK  status: ('A' for Active; 'I' for Inactive)
REMARK    1  A    between atoms: C_1  and  C_2
REMARK    2  A    between atoms: C_2  and  C_3
REMARK    3  A    between atoms: C_6  and  C_7
REMARK    4  A    between atoms: C_7  and  O_8
REMARK    5  A    between atoms: C_9  and  C_10
REMARK    6  A    between atoms: C_13  and  C_14
REMARK    7  A    between atoms: C_22  and  C_23
REMARK    8  A    between atoms: C_23  and  N_24
REMARK    9  A    between atoms: N_24  and  C_25
REMARK   10  A    between atoms: C_26  and  C_27
REMARK                            x       y       z     vdW  Elec       q    Type
REMARK                         _______ _______ _______ _____ _____    ______ ____
ROOT
ATOM      1  C   UNL     1       6.501   4.793  15.881  0.00  0.00    +0.000 C 
ATOM      2  O   UNL     1       7.654   5.211  15.979  0.00  0.00    +0.000 OA
ATOM      3  N   UNL     1       5.457   5.477  16.436  0.00  0.00    +0.000 N 
ATOM      4  C   UNL     1       5.444   6.815  17.057  0.00  0.00    +0.000 C 
ATOM      5  C   UNL     1       4.254   6.254  17.880  0.00  0.00    +0.000 C 
ATOM      6  C   UNL     1       4.010   5.301  16.660  0.00  0.00    +0.000 C 
ENDROOT
BRANCH   5   7
ATOM      7  C   UNL     1       3.154   7.257  18.413  0.00  0.00    +0.000 A 
ATOM      8  C   UNL     1       2.711   8.386  17.708  0.00  0.00    +0.000 A 
ATOM      9  C   UNL     1       1.777   9.278  18.256  0.00  0.00    +0.000 A 
ATOM     10  C   UNL     1       1.224   9.081  19.531  0.00  0.00    +0.000 A 
ATOM     11  C   UNL     1       1.647   7.945  20.231  0.00  0.00    +0.000 A 
ATOM     12  C   UNL     1       2.590   7.066  19.688  0.00  0.00    +0.000 A 
BRANCH  10  13
ATOM     13  C   UNL     1       0.252  10.030  20.116  0.00  0.00    +0.000 A 
ATOM     14  C   UNL     1      -0.682  10.722  19.333  0.00  0.00    +0.000 A 
ATOM     15  C   UNL     1      -1.575  11.618  19.919  0.00  0.00    +0.000 A 
ATOM     16  C   UNL     1      -1.524  11.799  21.289  0.00  0.00    +0.000 A 
ATOM     17  N   UNL     1      -0.653  11.157  22.091  0.00  0.00    +0.000 NA
ATOM     18  C   UNL     1       0.209  10.300  21.489  0.00  0.00    +0.000 A 
ENDBRANCH  10  13
ENDBRANCH   5   7
BRANCH   1  20
ATOM     19  C   UNL     1       6.154   3.684  13.632  0.00  0.00    +0.000 C 
ATOM     20  C   UNL     1       6.178   3.516  15.142  0.00  0.00    +0.000 C 
ENDBRANCH   1  20
BRANCH   4  21
ATOM     21  C   UNL     1       6.677   7.248  17.834  0.00  0.00    +0.000 C 
BRANCH  21  22
ATOM     22  O   UNL     1       7.563   8.006  17.019  0.00  0.00    +0.000 OA
ATOM     23  H   UNL     1       7.013   8.320  16.272  0.00  0.00    +0.000 HD
ENDBRANCH  21  22
ENDBRANCH   4  21
BRANCH   6  24
ATOM     24  C   UNL     1       3.511   3.944  17.144  0.00  0.00    +0.000 C 
BRANCH  24  25
ATOM     25  N   UNL     1       3.608   3.734  18.598  0.00  0.00    +0.000 N 
ATOM     26  C   UNL     1       4.872   3.345  19.219  0.00  0.00    +0.000 C 
ATOM     27  C   UNL     1       2.482   3.459  19.384  0.00  0.00    +0.000 C 
ATOM     28  C   UNL     1       1.105   3.490  18.759  0.00  0.00    +0.000 C 
ATOM     29  O   UNL     1       2.578   3.185  20.584  0.00  0.00    +0.000 OA
ENDBRANCH  24  25
ENDBRANCH   6  24
TORSDOF 7
ENDMDL
MODEL 3
REMARK VINA RESULT:      -7.2      0.462      1.011
REMARK  Name = 
REMARK  10 active torsions:
REMARK  status: ('A' for Active; 'I' for Inactive)
REMARK    1  A    between atoms: C_1  and  C_2
REMARK    2  A    between atoms: C_2  and  C_3
REMARK    3  A    between atoms: C_6  and  C_7
REMARK    4  A    between atoms: C_7  and  O_8
REMARK    5  A    between atoms: C_9  and  C_10
REMARK    6  A    between atoms: C_13  and  C_14
REMARK    7  A    between atoms: C_22  and  C_23
REMARK    8  A    between atoms: C_23  and  N_24
REMARK    9  A    between atoms: N_24  and  C_25
REMARK   10  A    between atoms: C_26  and  C_27
REMARK                            x       y       z     vdW  Elec       q    Type
REMARK                         _______ _______ _______ _____ _____    ______ ____
ROOT
ATOM      1  C   UNL     1       6.440   4.563  15.437  0.00  0.00    +0.000 C 
ATOM      2  O   UNL     1       7.597   4.981  15.412  0.00  0.00    +0.000 OA
ATOM      3  N   UNL     1       5.492   5.169  16.211  0.00  0.00    +0.000 N 
ATOM      4  C   UNL     1       5.575   6.430  16.971  0.00  0.00    +0.000 C 
ATOM      5  C   UNL     1       4.516   5.766  17.892  0.00  0.00    +0.000 C 
ATOM      6  C   UNL     1       4.093   4.951  16.622  0.00  0.00    +0.000 C 
ENDROOT
BRANCH   5   7
ATOM      7  C   UNL     1       3.510   6.691  18.688  0.00  0.00    +0.000 A 
ATOM      8  C   UNL     1       3.008   6.393  19.963  0.00  0.00    +0.000 A 
ATOM      9  C   UNL     1       2.067   7.219  20.597  0.00  0.00    +0.000 A 
ATOM     10  C   UNL     1       1.591   8.396  19.997  0.00  0.00    +0.000 A 
ATOM     11  C   UNL     1       2.104   8.709  18.733  0.00  0.00    +0.000 A 
ATOM     12  C   UNL     1       3.030   7.874  18.097  0.00  0.00    +0.000 A 
BRANCH  10  13
ATOM     13  C   UNL     1       0.587   9.258  20.657  0.00  0.00    +0.000 A 
ATOM     14  C   UNL     1       0.238   9.102  22.006  0.00  0.00    +0.000 A 
ATOM     15  C   UNL     1      -0.721   9.927  22.591  0.00  0.00    +0.000 A 
ATOM     16  C   UNL     1      -1.311  10.907  21.814  0.00  0.00    +0.000 A 
ATOM     17  N   UNL     1      -1.010  11.107  20.516  0.00  0.00    +0.000 NA
ATOM     18  C   UNL     1      -0.080  10.282  19.975  0.00  0.00    +0.000 A 
ENDBRANCH  10  13
ENDBRANCH   5   7
BRANCH   1  20
ATOM     19  C   UNL     1       6.022   3.634  13.120  0.00  0.00    +0.000 C 
ATOM     20  C   UNL     1       6.008   3.371  14.617  0.00  0.00    +0.000 C 
ENDBRANCH   1  20
BRANCH   4  21
ATOM     21  C   UNL     1       6.910   6.790  17.604  0.00  0.00    +0.000 C 
BRANCH  21  22
ATOM     22  O   UNL     1       7.674   7.637  16.754  0.00  0.00    +0.000 OA
ATOM     23  H   UNL     1       7.788   7.126  15.926  0.00  0.00    +0.000 HD
ENDBRANCH  21  22
ENDBRANCH   4  21
BRANCH   6  24
ATOM     24  C   UNL     1       3.664   3.543  17.021  0.00  0.00    +0.000 C 
BRANCH  24  25
ATOM     25  N   UNL     1       2.413   3.474  17.794  0.00  0.00    +0.000 N 
ATOM     26  C   UNL     1       1.264   4.303  17.438  0.00  0.00    +0.000 C 
ATOM     27  C   UNL     1       2.378   2.990  19.108  0.00  0.00    +0.000 C 
ATOM     28  C   UNL     1       3.630   2.409  19.726  0.00  0.00    +0.000 C 
ATOM     29  O   UNL     1       1.348   3.027  19.786  0.00  0.00    +0.000 OA
ENDBRANCH  24  25
ENDBRANCH   6  24
TORSDOF 7
ENDMDL
MODEL 4
REMARK VINA RESULT:      -7.2      0.668      1.422
REMARK  Name = 
REMARK  10 active torsions:
REMARK  status: ('A' for Active; 'I' for Inactive)
REMARK    1  A    between atoms: C_1  and  C_2
REMARK    2  A    between atoms: C_2  and  C_3
REMARK    3  A    between atoms: C_6  and  C_7
REMARK    4  A    between atoms: C_7  and  O_8
REMARK    5  A    between atoms: C_9  and  C_10
REMARK    6  A    between atoms: C_13  and  C_14
REMARK    7  A    between atoms: C_22  and  C_23
REMARK    8  A    between atoms: C_23  and  N_24
REMARK    9  A    between atoms: N_24  and  C_25
REMARK   10  A    between atoms: C_26  and  C_27
REMARK                            x       y       z     vdW  Elec       q    Type
REMARK                         _______ _______ _______ _____ _____    ______ ____
ROOT
ATOM      1  C   UNL     1       6.501   4.850  15.475  0.00  0.00    +0.000 C 
ATOM      2  O   UNL     1       7.620   5.351  15.371  0.00  0.00    +0.000 OA
ATOM      3  N   UNL     1       5.509   5.486  16.165  0.00  0.00    +0.000 N 
ATOM      4  C   UNL     1       5.491   6.849  16.729  0.00  0.00    +0.000 C 
ATOM      5  C   UNL     1       4.492   6.247  17.753  0.00  0.00    +0.000 C 
ATOM      6  C   UNL     1       4.133   5.221  16.624  0.00  0.00    +0.000 C 
ENDROOT
BRANCH   5   7
ATOM      7  C   UNL     1       3.417   7.197  18.418  0.00  0.00    +0.000 A 
ATOM      8  C   UNL     1       2.826   6.963  19.669  0.00  0.00    +0.000 A 
ATOM      9  C   UNL     1       1.829   7.805  20.183  0.00  0.00    +0.000 A 
ATOM     10  C   UNL     1       1.381   8.937  19.481  0.00  0.00    +0.000 A 
ATOM     11  C   UNL     1       1.981   9.187  18.242  0.00  0.00    +0.000 A 
ATOM     12  C   UNL     1       2.964   8.335  17.725  0.00  0.00    +0.000 A 
BRANCH  10  13
ATOM     13  C   UNL     1       0.319   9.816  20.015  0.00  0.00    +0.000 A 
ATOM     14  C   UNL     1      -0.560  10.521  19.181  0.00  0.00    +0.000 A 
ATOM     15  C   UNL     1      -1.543  11.349  19.723  0.00  0.00    +0.000 A 
ATOM     16  C   UNL     1      -1.636  11.450  21.098  0.00  0.00    +0.000 A 
ATOM     17  N   UNL     1      -0.823  10.793  21.949  0.00  0.00    +0.000 NA
ATOM     18  C   UNL     1       0.128  10.002  21.390  0.00  0.00    +0.000 A 
ENDBRANCH  10  13
ENDBRANCH   5   7
BRANCH   1  20
ATOM     19  C   UNL     1       6.017   3.587  13.336  0.00  0.00    +0.000 C 
ATOM     20  C   UNL     1       6.165   3.518  14.847  0.00  0.00    +0.000 C 
ENDBRANCH   1  20
BRANCH   4  21
ATOM     21  C   UNL     1       6.794   7.404  17.281  0.00  0.00    +0.000 C 
BRANCH  21  22
ATOM     22  O   UNL     1       7.367   6.523  18.241  0.00  0.00    +0.000 OA
ATOM     23  H   UNL     1       6.612   6.219  18.786  0.00  0.00    +0.000 HD
ENDBRANCH  21  22
ENDBRANCH   4  21
BRANCH   6  24
ATOM     24  C   UNL     1       3.821   3.858  17.233  0.00  0.00    +0.000 C 
BRANCH  24  25
ATOM     25  N   UNL     1       2.511   3.764  17.897  0.00  0.00    +0.000 N 
ATOM     26  C   UNL     1       1.348   4.475  17.370  0.00  0.00    +0.000 C 
ATOM     27  C   UNL     1       2.386   3.392  19.242  0.00  0.00    +0.000 C 
ATOM     28  C   UNL     1       3.609   2.958  20.017  0.00  0.00    +0.000 C 
ATOM     29  O   UNL     1       1.297   3.411  19.822  0.00  0.00    +0.000 OA
ENDBRANCH  24  25
ENDBRANCH   6  24
TORSDOF 7
ENDMDL
MODEL 5
REMARK VINA RESULT:      -7.2      2.158      4.956
REMARK  Name = 
REMARK  10 active torsions:
REMARK  status: ('A' for Active; 'I' for Inactive)
REMARK    1  A    between atoms: C_1  and  C_2
REMARK    2  A    between atoms: C_2  and  C_3
REMARK    3  A    between atoms: C_6  and  C_7
REMARK    4  A    between atoms: C_7  and  O_8
REMARK    5  A    between atoms: C_9  and  C_10
REMARK    6  A    between atoms: C_13  and  C_14
REMARK    7  A    between atoms: C_22  and  C_23
REMARK    8  A    between atoms: C_23  and  N_24
REMARK    9  A    between atoms: N_24  and  C_25
REMARK   10  A    between atoms: C_26  and  C_27
REMARK                            x       y       z     vdW  Elec       q    Type
REMARK                         _______ _______ _______ _____ _____    ______ ____
ROOT
ATOM      1  C   UNL     1       3.448   2.780  20.313  0.00  0.00    +0.000 C 
ATOM      2  O   UNL     1       2.567   2.076  20.805  0.00  0.00    +0.000 OA
ATOM      3  N   UNL     1       3.234   4.108  20.073  0.00  0.00    +0.000 N 
ATOM      4  C   UNL     1       2.092   4.953  20.466  0.00  0.00    +0.000 C 
ATOM      5  C   UNL     1       2.462   5.775  19.202  0.00  0.00    +0.000 C 
ATOM      6  C   UNL     1       3.918   5.241  19.424  0.00  0.00    +0.000 C 
ENDROOT
BRANCH   5   7
ATOM      7  C   UNL     1       2.114   7.317  19.166  0.00  0.00    +0.000 A 
ATOM      8  C   UNL     1       1.598   8.033  20.257  0.00  0.00    +0.000 A 
ATOM      9  C   UNL     1       1.248   9.388  20.150  0.00  0.00    +0.000 A 
ATOM     10  C   UNL     1       1.411  10.103  18.953  0.00  0.00    +0.000 A 
ATOM     11  C   UNL     1       1.945   9.399  17.867  0.00  0.00    +0.000 A 
ATOM     12  C   UNL     1       2.278   8.044  17.973  0.00  0.00    +0.000 A 
BRANCH  10  13
ATOM     13  C   UNL     1       1.027  11.526  18.836  0.00  0.00    +0.000 A 
ATOM     14  C   UNL     1      -0.312  11.940  18.792  0.00  0.00    +0.000 A 
ATOM     15  C   UNL     1      -0.634  13.291  18.671  0.00  0.00    +0.000 A 
ATOM     16  C   UNL     1       0.395  14.211  18.604  0.00  0.00    +0.000 A 
ATOM     17  N   UNL     1       1.698  13.873  18.647  0.00  0.00    +0.000 NA
ATOM     18  C   UNL     1       1.979  12.550  18.757  0.00  0.00    +0.000 A 
ENDBRANCH  10  13
ENDBRANCH   5   7
BRANCH   1  20
ATOM     19  C   UNL     1       5.315   1.195  20.956  0.00  0.00    +0.000 C 
ATOM     20  C   UNL     1       4.806   2.221  19.957  0.00  0.00    +0.000 C 
ENDBRANCH   1  20
BRANCH   4  21
ATOM     21  C   UNL     1       0.712   4.314  20.493  0.00  0.00    +0.000 C 
BRANCH  21  22
ATOM     22  O   UNL     1       0.523   3.444  19.383  0.00  0.00    +0.000 OA
ATOM     23  H   UNL     1      -0.140   3.895  18.820  0.00  0.00    +0.000 HD
ENDBRANCH  21  22
ENDBRANCH   4  21
BRANCH   6  24
ATOM     24  C   UNL     1       4.601   5.004  18.081  0.00  0.00    +0.000 C 
BRANCH  24  25
ATOM     25  N   UNL     1       6.064   4.855  18.150  0.00  0.00    +0.000 N 
ATOM     26  C   UNL     1       6.841   5.542  19.178  0.00  0.00    +0.000 C 
ATOM     27  C   UNL     1       6.820   4.448  17.044  0.00  0.00    +0.000 C 
ATOM     28  C   UNL     1       6.121   4.032  15.769  0.00  0.00    +0.000 C 
ATOM     29  O   UNL     1       8.054   4.420  17.075  0.00  0.00    +0.000 OA
ENDBRANCH  24  25
ENDBRANCH   6  24
TORSDOF 7
ENDMDL
MODEL 6
REMARK VINA RESULT:      -7.1      0.925      1.353
REMARK  Name = 
REMARK  10 active torsions:
REMARK  status: ('A' for Active; 'I' for Inactive)
REMARK    1  A    between atoms: C_1  and  C_2
REMARK    2  A    between atoms: C_2  and  C_3
REMARK    3  A    between atoms: C_6  and  C_7
REMARK    4  A    between atoms: C_7  and  O_8
REMARK    5  A    between atoms: C_9  and  C_10
REMARK    6  A    between atoms: C_13  and  C_14
REMARK    7  A    between atoms: C_22  and  C_23
REMARK    8  A    between atoms: C_23  and  N_24
REMARK    9  A    between atoms: N_24  and  C_25
REMARK   10  A    between atoms: C_26  and  C_27
REMARK                            x       y       z     vdW  Elec       q    Type
REMARK                         _______ _______ _______ _____ _____    ______ ____
ROOT
ATOM      1  C   UNL     1       6.539   4.944  15.625  0.00  0.00    +0.000 C 
ATOM      2  O   UNL     1       7.647   5.468  15.503  0.00  0.00    +0.000 OA
ATOM      3  N   UNL     1       5.527   5.588  16.278  0.00  0.00    +0.000 N 
ATOM      4  C   UNL     1       5.473   6.975  16.776  0.00  0.00    +0.000 C 
ATOM      5  C   UNL     1       4.482   6.398  17.822  0.00  0.00    +0.000 C 
ATOM      6  C   UNL     1       4.155   5.311  16.741  0.00  0.00    +0.000 C 
ENDROOT
BRANCH   5   7
ATOM      7  C   UNL     1       3.379   7.351  18.435  0.00  0.00    +0.000 A 
ATOM      8  C   UNL     1       2.761   7.143  19.678  0.00  0.00    +0.000 A 
ATOM      9  C   UNL     1       1.742   7.987  20.145  0.00  0.00    +0.000 A 
ATOM     10  C   UNL     1       1.297   9.092  19.402  0.00  0.00    +0.000 A 
ATOM     11  C   UNL     1       1.923   9.317  18.171  0.00  0.00    +0.000 A 
ATOM     12  C   UNL     1       2.929   8.464  17.701  0.00  0.00    +0.000 A 
BRANCH  10  13
ATOM     13  C   UNL     1       0.211   9.972  19.887  0.00  0.00    +0.000 A 
ATOM     14  C   UNL     1       0.080  10.325  21.237  0.00  0.00    +0.000 A 
ATOM     15  C   UNL     1      -0.964  11.148  21.658  0.00  0.00    +0.000 A 
ATOM     16  C   UNL     1      -1.859  11.614  20.712  0.00  0.00    +0.000 A 
ATOM     17  N   UNL     1      -1.779  11.313  19.402  0.00  0.00    +0.000 NA
ATOM     18  C   UNL     1      -0.757  10.503  19.026  0.00  0.00    +0.000 A 
ENDBRANCH  10  13
ENDBRANCH   5   7
BRANCH   1  20
ATOM     19  C   UNL     1       5.831   3.608  13.594  0.00  0.00    +0.000 C 
ATOM     20  C   UNL     1       6.240   3.577  15.058  0.00  0.00    +0.000 C 
ENDBRANCH   1  20
BRANCH   4  21
ATOM     21  C   UNL     1       6.758   7.588  17.309  0.00  0.00    +0.000 C 
BRANCH  21  22
ATOM     22  O   UNL     1       7.428   6.697  18.193  0.00  0.00    +0.000 OA
ATOM     23  H   UNL     1       6.769   6.003  18.399  0.00  0.00    +0.000 HD
ENDBRANCH  21  22
ENDBRANCH   4  21
BRANCH   6  24
ATOM     24  C   UNL     1       3.873   3.972  17.413  0.00  0.00    +0.000 C 
BRANCH  24  25
ATOM     25  N   UNL     1       2.447   3.624  17.521  0.00  0.00    +0.000 N 
ATOM     26  C   UNL     1       1.413   4.651  17.414  0.00  0.00    +0.000 C 
ATOM     27  C   UNL     1       2.016   2.448  18.148  0.00  0.00    +0.000 C 
ATOM     28  C   UNL     1       3.033   1.439  18.630  0.00  0.00    +0.000 C 
ATOM     29  O   UNL     1       0.818   2.208  18.326  0.00  0.00    +0.000 OA
ENDBRANCH  24  25
ENDBRANCH   6  24
TORSDOF 7
ENDMDL
MODEL 7
REMARK VINA RESULT:      -7.1      2.111      5.049
REMARK  Name = 
REMARK  10 active torsions:
REMARK  status: ('A' for Active; 'I' for Inactive)
REMARK    1  A    between atoms: C_1  and  C_2
REMARK    2  A    between atoms: C_2  and  C_3
REMARK    3  A    between atoms: C_6  and  C_7
REMARK    4  A    between atoms: C_7  and  O_8
REMARK    5  A    between atoms: C_9  and  C_10
REMARK    6  A    between atoms: C_13  and  C_14
REMARK    7  A    between atoms: C_22  and  C_23
REMARK    8  A    between atoms: C_23  and  N_24
REMARK    9  A    between atoms: N_24  and  C_25
REMARK   10  A    between atoms: C_26  and  C_27
REMARK                            x       y       z     vdW  Elec       q    Type
REMARK                         _______ _______ _______ _____ _____    ______ ____
ROOT
ATOM      1  C   UNL     1       3.479   2.609  20.382  0.00  0.00    +0.000 C 
ATOM      2  O   UNL     1       2.587   1.904  20.852  0.00  0.00    +0.000 OA
ATOM      3  N   UNL     1       3.264   3.933  20.122  0.00  0.00    +0.000 N 
ATOM      4  C   UNL     1       2.104   4.774  20.469  0.00  0.00    +0.000 C 
ATOM      5  C   UNL     1       2.509   5.586  19.210  0.00  0.00    +0.000 C 
ATOM      6  C   UNL     1       3.961   5.065  19.485  0.00  0.00    +0.000 C 
ENDROOT
BRANCH   5   7
ATOM      7  C   UNL     1       2.153   7.125  19.147  0.00  0.00    +0.000 A 
ATOM      8  C   UNL     1       1.670   7.866  20.236  0.00  0.00    +0.000 A 
ATOM      9  C   UNL     1       1.309   9.216  20.108  0.00  0.00    +0.000 A 
ATOM     10  C   UNL     1       1.428   9.902  18.888  0.00  0.00    +0.000 A 
ATOM     11  C   UNL     1       1.929   9.174  17.803  0.00  0.00    +0.000 A 
ATOM     12  C   UNL     1       2.272   7.823  17.931  0.00  0.00    +0.000 A 
BRANCH  10  13
ATOM     13  C   UNL     1       1.033  11.320  18.749  0.00  0.00    +0.000 A 
ATOM     14  C   UNL     1       1.974  12.354  18.649  0.00  0.00    +0.000 A 
ATOM     15  C   UNL     1       1.562  13.680  18.530  0.00  0.00    +0.000 A 
ATOM     16  C   UNL     1       0.206  13.951  18.502  0.00  0.00    +0.000 A 
ATOM     17  N   UNL     1      -0.743  12.998  18.588  0.00  0.00    +0.000 NA
ATOM     18  C   UNL     1      -0.309  11.719  18.712  0.00  0.00    +0.000 A 
ENDBRANCH  10  13
ENDBRANCH   5   7
BRANCH   1  20
ATOM     19  C   UNL     1       5.375   1.118  21.152  0.00  0.00    +0.000 C 
ATOM     20  C   UNL     1       4.852   2.057  20.077  0.00  0.00    +0.000 C 
ENDBRANCH   1  20
BRANCH   4  21
ATOM     21  C   UNL     1       0.728   4.126  20.457  0.00  0.00    +0.000 C 
BRANCH  21  22
ATOM     22  O   UNL     1       0.552   3.307  19.307  0.00  0.00    +0.000 OA
ATOM     23  H   UNL     1      -0.199   2.718  19.529  0.00  0.00    +0.000 HD
ENDBRANCH  21  22
ENDBRANCH   4  21
BRANCH   6  24
ATOM     24  C   UNL     1       4.689   4.820  18.168  0.00  0.00    +0.000 C 
BRANCH  24  25
ATOM     25  N   UNL     1       5.975   5.523  18.033  0.00  0.00    +0.000 N 
ATOM     26  C   UNL     1       6.896   5.629  19.162  0.00  0.00    +0.000 C 
ATOM     27  C   UNL     1       6.199   6.472  17.027  0.00  0.00    +0.000 C 
ATOM     28  C   UNL     1       5.144   6.709  15.971  0.00  0.00    +0.000 C 
ATOM     29  O   UNL     1       7.242   7.132  16.978  0.00  0.00    +0.000 OA
ENDBRANCH  24  25
ENDBRANCH   6  24
TORSDOF 7
ENDMDL
MODEL 8
REMARK VINA RESULT:      -6.8      0.955      1.647
REMARK  Name = 
REMARK  10 active torsions:
REMARK  status: ('A' for Active; 'I' for Inactive)
REMARK    1  A    between atoms: C_1  and  C_2
REMARK    2  A    between atoms: C_2  and  C_3
REMARK    3  A    between atoms: C_6  and  C_7
REMARK    4  A    between atoms: C_7  and  O_8
REMARK    5  A    between atoms: C_9  and  C_10
REMARK    6  A    between atoms: C_13  and  C_14
REMARK    7  A    between atoms: C_22  and  C_23
REMARK    8  A    between atoms: C_23  and  N_24
REMARK    9  A    between atoms: N_24  and  C_25
REMARK   10  A    between atoms: C_26  and  C_27
REMARK                            x       y       z     vdW  Elec       q    Type
REMARK                         _______ _______ _______ _____ _____    ______ ____
ROOT
ATOM      1  C   UNL     1       6.545   4.698  15.770  0.00  0.00    +0.000 C 
ATOM      2  O   UNL     1       7.711   5.083  15.865  0.00  0.00    +0.000 OA
ATOM      3  N   UNL     1       5.527   5.397  16.354  0.00  0.00    +0.000 N 
ATOM      4  C   UNL     1       5.557   6.718  17.007  0.00  0.00    +0.000 C 
ATOM      5  C   UNL     1       4.362   6.169  17.831  0.00  0.00    +0.000 C 
ATOM      6  C   UNL     1       4.079   5.254  16.590  0.00  0.00    +0.000 C 
ENDROOT
BRANCH   5   7
ATOM      7  C   UNL     1       3.296   7.187  18.401  0.00  0.00    +0.000 A 
ATOM      8  C   UNL     1       2.680   7.062  19.656  0.00  0.00    +0.000 A 
ATOM      9  C   UNL     1       1.693   7.962  20.086  0.00  0.00    +0.000 A 
ATOM     10  C   UNL     1       1.280   9.044  19.292  0.00  0.00    +0.000 A 
ATOM     11  C   UNL     1       1.906   9.186  18.048  0.00  0.00    +0.000 A 
ATOM     12  C   UNL     1       2.879   8.278  17.616  0.00  0.00    +0.000 A 
BRANCH  10  13
ATOM     13  C   UNL     1       0.228   9.983  19.738  0.00  0.00    +0.000 A 
ATOM     14  C   UNL     1       0.111  10.397  21.072  0.00  0.00    +0.000 A 
ATOM     15  C   UNL     1      -0.902  11.275  21.456  0.00  0.00    +0.000 A 
ATOM     16  C   UNL     1      -1.779  11.734  20.491  0.00  0.00    +0.000 A 
ATOM     17  N   UNL     1      -1.711  11.375  19.194  0.00  0.00    +0.000 NA
ATOM     18  C   UNL     1      -0.720  10.513  18.854  0.00  0.00    +0.000 A 
ENDBRANCH  10  13
ENDBRANCH   5   7
BRANCH   1  20
ATOM     19  C   UNL     1       5.930   3.701  13.526  0.00  0.00    +0.000 C 
ATOM     20  C   UNL     1       6.180   3.449  15.004  0.00  0.00    +0.000 C 
ENDBRANCH   1  20
BRANCH   4  21
ATOM     21  C   UNL     1       6.810   7.099  17.781  0.00  0.00    +0.000 C 
BRANCH  21  22
ATOM     22  O   UNL     1       7.130   6.118  18.762  0.00  0.00    +0.000 OA
ATOM     23  H   UNL     1       6.502   5.385  18.599  0.00  0.00    +0.000 HD
ENDBRANCH  21  22
ENDBRANCH   4  21
BRANCH   6  24
ATOM     24  C   UNL     1       3.548   3.899  17.047  0.00  0.00    +0.000 C 
BRANCH  24  25
ATOM     25  N   UNL     1       3.565   3.690  18.505  0.00  0.00    +0.000 N 
ATOM     26  C   UNL     1       4.784   3.268  19.189  0.00  0.00    +0.000 C 
ATOM     27  C   UNL     1       2.393   3.446  19.232  0.00  0.00    +0.000 C 
ATOM     28  C   UNL     1       1.051   3.512  18.537  0.00  0.00    +0.000 C 
ATOM     29  O   UNL     1       2.420   3.172  20.435  0.00  0.00    +0.000 OA
ENDBRANCH  24  25
ENDBRANCH   6  24
TORSDOF 7
ENDMDL
MODEL 9
REMARK VINA RESULT:      -6.8      4.092      8.999
REMARK  Name = 
REMARK  10 active torsions:
REMARK  status: ('A' for Active; 'I' for Inactive)
REMARK    1  A    between atoms: C_1  and  C_2
REMARK    2  A    between atoms: C_2  and  C_3
REMARK    3  A    between atoms: C_6  and  C_7
REMARK    4  A    between atoms: C_7  and  O_8
REMARK    5  A    between atoms: C_9  and  C_10
REMARK    6  A    between atoms: C_13  and  C_14
REMARK    7  A    between atoms: C_22  and  C_23
REMARK    8  A    between atoms: C_23  and  N_24
REMARK    9  A    between atoms: N_24  and  C_25
REMARK   10  A    between atoms: C_26  and  C_27
REMARK                            x       y       z     vdW  Elec       q    Type
REMARK                         _______ _______ _______ _____ _____    ______ ____
ROOT
ATOM      1  C   UNL     1       0.704  14.616  19.873  0.00  0.00    +0.000 C 
ATOM      2  O   UNL     1       1.327  15.244  19.017  0.00  0.00    +0.000 OA
ATOM      3  N   UNL     1       0.852  13.264  19.997  0.00  0.00    +0.000 N 
ATOM      4  C   UNL     1       1.816  12.367  19.333  0.00  0.00    +0.000 C 
ATOM      5  C   UNL     1       0.713  11.291  19.524  0.00  0.00    +0.000 C 
ATOM      6  C   UNL     1       0.253  12.148  20.753  0.00  0.00    +0.000 C 
ENDROOT
BRANCH   5   7
ATOM      7  C   UNL     1       1.141   9.774  19.654  0.00  0.00    +0.000 A 
ATOM      8  C   UNL     1       0.984   9.009  20.819  0.00  0.00    +0.000 A 
ATOM      9  C   UNL     1       1.440   7.685  20.899  0.00  0.00    +0.000 A 
ATOM     10  C   UNL     1       2.061   7.049  19.812  0.00  0.00    +0.000 A 
ATOM     11  C   UNL     1       2.202   7.800  18.640  0.00  0.00    +0.000 A 
ATOM     12  C   UNL     1       1.760   9.126  18.569  0.00  0.00    +0.000 A 
BRANCH  10  13
ATOM     13  C   UNL     1       2.556   5.658  19.902  0.00  0.00    +0.000 A 
ATOM     14  C   UNL     1       1.819   4.639  20.520  0.00  0.00    +0.000 A 
ATOM     15  C   UNL     1       2.325   3.341  20.594  0.00  0.00    +0.000 A 
ATOM     16  C   UNL     1       3.563   3.083  20.036  0.00  0.00    +0.000 A 
ATOM     17  N   UNL     1       4.312   4.020  19.424  0.00  0.00    +0.000 NA
ATOM     18  C   UNL     1       3.796   5.274  19.377  0.00  0.00    +0.000 A 
ENDBRANCH  10  13
ENDBRANCH   5   7
BRANCH   1  20
ATOM     19  C   UNL     1       0.276  16.632  21.343  0.00  0.00    +0.000 C 
ATOM     20  C   UNL     1      -0.245  15.300  20.828  0.00  0.00    +0.000 C 
ENDBRANCH   1  20
BRANCH   4  21
ATOM     21  C   UNL     1       2.220  12.693  17.904  0.00  0.00    +0.000 C 
BRANCH  21  22
ATOM     22  O   UNL     1       3.423  13.452  17.867  0.00  0.00    +0.000 OA
ATOM     23  H   UNL     1       3.171  14.303  17.453  0.00  0.00    +0.000 HD
ENDBRANCH  21  22
ENDBRANCH   4  21
BRANCH   6  24
ATOM     24  C   UNL     1      -1.265  12.097  20.890  0.00  0.00    +0.000 C 
BRANCH  24  25
ATOM     25  N   UNL     1      -1.753  11.864  22.259  0.00  0.00    +0.000 N 
ATOM     26  C   UNL     1      -1.173  10.817  23.096  0.00  0.00    +0.000 C 
ATOM     27  C   UNL     1      -3.023  12.284  22.674  0.00  0.00    +0.000 C 
ATOM     28  C   UNL     1      -3.885  13.104  21.741  0.00  0.00    +0.000 C 
ATOM     29  O   UNL     1      -3.468  12.000  23.790  0.00  0.00    +0.000 OA
ENDBRANCH  24  25
ENDBRANCH   6  24
TORSDOF 7
ENDMDL
