MODEL 1
REMARK VINA RESULT:      -6.8      0.000      0.000
REMARK  Name = 
REMARK  3 active torsions:
REMARK  status: ('A' for Active; 'I' for Inactive)
REMARK    1  A    between atoms: C_8  and  C_9
REMARK    2  A    between atoms: C_9  and  N_10
REMARK    3  A    between atoms: C_13  and  C_14
REMARK                            x       y       z     vdW  Elec       q    Type
REMARK                         _______ _______ _______ _____ _____    ______ ____
ROOT
ATOM      1  C   UNL     1       3.862   2.762  17.779  0.00  0.00    +0.000 C 
ENDROOT
BRANCH   1   9
ATOM      2 CL   UNL     1       4.902   1.697  20.533  0.00  0.00    +0.000 Cl
ATOM      3  C   UNL     1       3.420   2.552  20.280  0.00  0.00    +0.000 A 
ATOM      4  C   UNL     1       2.605   2.727  21.408  0.00  0.00    +0.000 A 
ATOM      5  C   UNL     1       1.387   3.388  21.302  0.00  0.00    +0.000 A 
ATOM      6  C   UNL     1       0.988   3.886  20.067  0.00  0.00    +0.000 A 
ATOM      7  C   UNL     1       1.794   3.706  18.935  0.00  0.00    +0.000 A 
ATOM      8 CL   UNL     1       1.170   4.332  17.448  0.00  0.00    +0.000 Cl
ATOM      9  C   UNL     1       3.024   3.021  19.011  0.00  0.00    +0.000 A 
ENDBRANCH   1   9
BRANCH   1  10
ATOM     10  N   UNL     1       4.652   3.916  17.357  0.00  0.00    +0.000 N 
ATOM     11  C   UNL     1       4.458   4.677  16.237  0.00  0.00    +0.000 A 
ATOM     12  C   UNL     1       5.528   5.537  16.163  0.00  0.00    +0.000 A 
ATOM     13  C   UNL     1       6.333   5.196  17.264  0.00  0.00    +0.000 A 
ATOM     14  N   UNL     1       5.809   4.204  17.990  0.00  0.00    +0.000 NA
BRANCH  13  15
ATOM     15  C   UNL     1       7.660   5.873  17.567  0.00  0.00    +0.000 C 
ATOM     16  C   UNL     1       7.681   7.377  17.751  0.00  0.00    +0.000 C 
ATOM     17  C   UNL     1       7.868   6.492  18.935  0.00  0.00    +0.000 C 
ENDBRANCH  13  15
ENDBRANCH   1  10
TORSDOF 3
ENDMDL
MODEL 2
REMARK VINA RESULT:      -6.7      1.585      2.107
REMARK  Name = 
REMARK  3 active torsions:
REMARK  status: ('A' for Active; 'I' for Inactive)
REMARK    1  A    between atoms: C_8  and  C_9
REMARK    2  A    between atoms: C_9  and  N_10
REMARK    3  A    between atoms: C_13  and  C_14
REMARK                            x       y       z     vdW  Elec       q    Type
REMARK                         _______ _______ _______ _____ _____    ______ ____
ROOT
ATOM      1  C   UNL     1       2.738   4.964  17.530  0.00  0.00    +0.000 C 
ENDROOT
BRANCH   1   9
ATOM      2 CL   UNL     1       2.348   6.925  19.938  0.00  0.00    +0.000 Cl
ATOM      3  C   UNL     1       2.258   5.200  20.020  0.00  0.00    +0.000 A 
ATOM      4  C   UNL     1       2.042   4.650  21.293  0.00  0.00    +0.000 A 
ATOM      5  C   UNL     1       1.970   3.273  21.463  0.00  0.00    +0.000 A 
ATOM      6  C   UNL     1       2.101   2.443  20.356  0.00  0.00    +0.000 A 
ATOM      7  C   UNL     1       2.326   2.986  19.084  0.00  0.00    +0.000 A 
ATOM      8 CL   UNL     1       2.516   1.849  17.794  0.00  0.00    +0.000 Cl
ATOM      9  C   UNL     1       2.424   4.378  18.888  0.00  0.00    +0.000 A 
ENDBRANCH   1   9
BRANCH   1  10
ATOM     10  N   UNL     1       4.148   4.863  17.161  0.00  0.00    +0.000 N 
ATOM     11  C   UNL     1       4.686   4.071  16.183  0.00  0.00    +0.000 A 
ATOM     12  C   UNL     1       6.050   4.177  16.305  0.00  0.00    +0.000 A 
ATOM     13  C   UNL     1       6.242   5.028  17.408  0.00  0.00    +0.000 A 
ATOM     14  N   UNL     1       5.087   5.441  17.939  0.00  0.00    +0.000 NA
BRANCH  13  15
ATOM     15  C   UNL     1       7.615   5.406  17.940  0.00  0.00    +0.000 C 
ATOM     16  C   UNL     1       7.855   6.837  18.376  0.00  0.00    +0.000 C 
ATOM     17  C   UNL     1       7.756   5.765  19.406  0.00  0.00    +0.000 C 
ENDBRANCH  13  15
ENDBRANCH   1  10
TORSDOF 3
ENDMDL
MODEL 3
REMARK VINA RESULT:      -6.7      1.925      3.257
REMARK  Name = 
REMARK  3 active torsions:
REMARK  status: ('A' for Active; 'I' for Inactive)
REMARK    1  A    between atoms: C_8  and  C_9
REMARK    2  A    between atoms: C_9  and  N_10
REMARK    3  A    between atoms: C_13  and  C_14
REMARK                            x       y       z     vdW  Elec       q    Type
REMARK                         _______ _______ _______ _____ _____    ______ ____
ROOT
ATOM      1  C   UNL     1       4.780   5.204  19.557  0.00  0.00    +0.000 C 
ENDROOT
BRANCH   1   9
ATOM      2 CL   UNL     1       2.284   7.075  19.813  0.00  0.00    +0.000 Cl
ATOM      3  C   UNL     1       2.276   5.356  20.002  0.00  0.00    +0.000 A 
ATOM      4  C   UNL     1       1.048   4.776  20.351  0.00  0.00    +0.000 A 
ATOM      5  C   UNL     1       0.944   3.403  20.540  0.00  0.00    +0.000 A 
ATOM      6  C   UNL     1       2.070   2.606  20.369  0.00  0.00    +0.000 A 
ATOM      7  C   UNL     1       3.302   3.181  20.030  0.00  0.00    +0.000 A 
ATOM      8 CL   UNL     1       4.638   2.091  19.887  0.00  0.00    +0.000 Cl
ATOM      9  C   UNL     1       3.438   4.572  19.852  0.00  0.00    +0.000 A 
ENDBRANCH   1   9
BRANCH   1  10
ATOM     10  N   UNL     1       5.066   5.328  18.130  0.00  0.00    +0.000 N 
ATOM     11  C   UNL     1       4.625   6.311  17.287  0.00  0.00    +0.000 A 
ATOM     12  C   UNL     1       5.000   5.933  16.021  0.00  0.00    +0.000 A 
ATOM     13  C   UNL     1       5.633   4.689  16.195  0.00  0.00    +0.000 A 
ATOM     14  N   UNL     1       5.668   4.311  17.476  0.00  0.00    +0.000 NA
BRANCH  13  15
ATOM     15  C   UNL     1       6.186   3.868  15.042  0.00  0.00    +0.000 C 
ATOM     16  C   UNL     1       5.581   4.051  13.665  0.00  0.00    +0.000 C 
ATOM     17  C   UNL     1       6.947   4.577  13.939  0.00  0.00    +0.000 C 
ENDBRANCH  13  15
ENDBRANCH   1  10
TORSDOF 3
ENDMDL
MODEL 4
REMARK VINA RESULT:      -6.6      1.584      1.812
REMARK  Name = 
REMARK  3 active torsions:
REMARK  status: ('A' for Active; 'I' for Inactive)
REMARK    1  A    between atoms: C_8  and  C_9
REMARK    2  A    between atoms: C_9  and  N_10
REMARK    3  A    between atoms: C_13  and  C_14
REMARK                            x       y       z     vdW  Elec       q    Type
REMARK                         _______ _______ _______ _____ _____    ______ ____
ROOT
ATOM      1  C   UNL     1       2.716   4.985  17.533  0.00  0.00    +0.000 C 
ENDROOT
BRANCH   1   9
ATOM      2 CL   UNL     1       2.449   1.873  17.746  0.00  0.00    +0.000 Cl
ATOM      3  C   UNL     1       2.264   2.991  19.053  0.00  0.00    +0.000 A 
ATOM      4  C   UNL     1       1.914   2.441  20.295  0.00  0.00    +0.000 A 
ATOM      5  C   UNL     1       1.728   3.260  21.402  0.00  0.00    +0.000 A 
ATOM      6  C   UNL     1       1.904   4.632  21.271  0.00  0.00    +0.000 A 
ATOM      7  C   UNL     1       2.245   5.188  20.030  0.00  0.00    +0.000 A 
ATOM      8 CL   UNL     1       2.393   6.911  19.984  0.00  0.00    +0.000 Cl
ATOM      9  C   UNL     1       2.419   4.382  18.888  0.00  0.00    +0.000 A 
ENDBRANCH   1   9
BRANCH   1  10
ATOM     10  N   UNL     1       4.119   4.880  17.142  0.00  0.00    +0.000 N 
ATOM     11  C   UNL     1       4.650   4.028  16.212  0.00  0.00    +0.000 A 
ATOM     12  C   UNL     1       6.015   4.165  16.296  0.00  0.00    +0.000 A 
ATOM     13  C   UNL     1       6.215   5.097  17.330  0.00  0.00    +0.000 A 
ATOM     14  N   UNL     1       5.064   5.529  17.855  0.00  0.00    +0.000 NA
BRANCH  13  15
ATOM     15  C   UNL     1       7.592   5.534  17.803  0.00  0.00    +0.000 C 
ATOM     16  C   UNL     1       7.769   6.954  18.303  0.00  0.00    +0.000 C 
ATOM     17  C   UNL     1       7.799   5.826  19.276  0.00  0.00    +0.000 C 
ENDBRANCH  13  15
ENDBRANCH   1  10
TORSDOF 3
ENDMDL
MODEL 5
REMARK VINA RESULT:      -6.6      1.628      2.677
REMARK  Name = 
REMARK  3 active torsions:
REMARK  status: ('A' for Active; 'I' for Inactive)
REMARK    1  A    between atoms: C_8  and  C_9
REMARK    2  A    between atoms: C_9  and  N_10
REMARK    3  A    between atoms: C_13  and  C_14
REMARK                            x       y       z     vdW  Elec       q    Type
REMARK                         _______ _______ _______ _____ _____    ______ ____
ROOT
ATOM      1  C   UNL     1       4.611   5.025  19.431  0.00  0.00    +0.000 C 
ENDROOT
BRANCH   1   9
ATOM      2 CL   UNL     1       4.579   2.066  20.453  0.00  0.00    +0.000 Cl
ATOM      3  C   UNL     1       3.288   2.856  19.617  0.00  0.00    +0.000 A 
ATOM      4  C   UNL     1       2.159   2.071  19.336  0.00  0.00    +0.000 A 
ATOM      5  C   UNL     1       1.076   2.612  18.654  0.00  0.00    +0.000 A 
ATOM      6  C   UNL     1       1.116   3.945  18.261  0.00  0.00    +0.000 A 
ATOM      7  C   UNL     1       2.244   4.731  18.531  0.00  0.00    +0.000 A 
ATOM      8 CL   UNL     1       2.192   6.361  17.954  0.00  0.00    +0.000 Cl
ATOM      9  C   UNL     1       3.364   4.201  19.202  0.00  0.00    +0.000 A 
ENDBRANCH   1   9
BRANCH   1  10
ATOM     10  N   UNL     1       5.677   4.750  18.472  0.00  0.00    +0.000 N 
ATOM     11  C   UNL     1       7.004   5.059  18.608  0.00  0.00    +0.000 A 
ATOM     12  C   UNL     1       7.596   4.766  17.403  0.00  0.00    +0.000 A 
ATOM     13  C   UNL     1       6.540   4.318  16.589  0.00  0.00    +0.000 A 
ATOM     14  N   UNL     1       5.368   4.314  17.232  0.00  0.00    +0.000 NA
BRANCH  13  15
ATOM     15  C   UNL     1       6.723   3.910  15.136  0.00  0.00    +0.000 C 
ATOM     16  C   UNL     1       5.610   4.212  14.153  0.00  0.00    +0.000 C 
ATOM     17  C   UNL     1       6.875   4.995  14.088  0.00  0.00    +0.000 C 
ENDBRANCH  13  15
ENDBRANCH   1  10
TORSDOF 3
ENDMDL
MODEL 6
REMARK VINA RESULT:      -6.6      1.934      2.641
REMARK  Name = 
REMARK  3 active torsions:
REMARK  status: ('A' for Active; 'I' for Inactive)
REMARK    1  A    between atoms: C_8  and  C_9
REMARK    2  A    between atoms: C_9  and  N_10
REMARK    3  A    between atoms: C_13  and  C_14
REMARK                            x       y       z     vdW  Elec       q    Type
REMARK                         _______ _______ _______ _____ _____    ______ ____
ROOT
ATOM      1  C   UNL     1       4.756   5.186  19.582  0.00  0.00    +0.000 C 
ENDROOT
BRANCH   1   9
ATOM      2 CL   UNL     1       4.636   2.070  19.857  0.00  0.00    +0.000 Cl
ATOM      3  C   UNL     1       3.288   3.145  19.991  0.00  0.00    +0.000 A 
ATOM      4  C   UNL     1       2.035   2.546  20.188  0.00  0.00    +0.000 A 
ATOM      5  C   UNL     1       0.889   3.326  20.293  0.00  0.00    +0.000 A 
ATOM      6  C   UNL     1       0.998   4.709  20.212  0.00  0.00    +0.000 A 
ATOM      7  C   UNL     1       2.246   5.312  20.006  0.00  0.00    +0.000 A 
ATOM      8 CL   UNL     1       2.246   7.037  19.879  0.00  0.00    +0.000 Cl
ATOM      9  C   UNL     1       3.420   4.543  19.876  0.00  0.00    +0.000 A 
ENDBRANCH   1   9
BRANCH   1  10
ATOM     10  N   UNL     1       5.041   5.316  18.155  0.00  0.00    +0.000 N 
ATOM     11  C   UNL     1       4.572   6.285  17.310  0.00  0.00    +0.000 A 
ATOM     12  C   UNL     1       4.960   5.917  16.044  0.00  0.00    +0.000 A 
ATOM     13  C   UNL     1       5.629   4.692  16.221  0.00  0.00    +0.000 A 
ATOM     14  N   UNL     1       5.673   4.317  17.503  0.00  0.00    +0.000 NA
BRANCH  13  15
ATOM     15  C   UNL     1       6.208   3.885  15.070  0.00  0.00    +0.000 C 
ATOM     16  C   UNL     1       5.606   4.057  13.690  0.00  0.00    +0.000 C 
ATOM     17  C   UNL     1       6.959   4.614  13.974  0.00  0.00    +0.000 C 
ENDBRANCH  13  15
ENDBRANCH   1  10
TORSDOF 3
ENDMDL
MODEL 7
REMARK VINA RESULT:      -6.5      1.926      2.976
REMARK  Name = 
REMARK  3 active torsions:
REMARK  status: ('A' for Active; 'I' for Inactive)
REMARK    1  A    between atoms: C_8  and  C_9
REMARK    2  A    between atoms: C_9  and  N_10
REMARK    3  A    between atoms: C_13  and  C_14
REMARK                            x       y       z     vdW  Elec       q    Type
REMARK                         _______ _______ _______ _____ _____    ______ ____
ROOT
ATOM      1  C   UNL     1       2.867   5.152  17.719  0.00  0.00    +0.000 C 
ENDROOT
BRANCH   1   9
ATOM      2 CL   UNL     1       2.103   6.737  20.309  0.00  0.00    +0.000 Cl
ATOM      3  C   UNL     1       1.956   5.027  20.095  0.00  0.00    +0.000 A 
ATOM      4  C   UNL     1       1.504   4.300  21.207  0.00  0.00    +0.000 A 
ATOM      5  C   UNL     1       1.367   2.918  21.138  0.00  0.00    +0.000 A 
ATOM      6  C   UNL     1       1.673   2.263  19.951  0.00  0.00    +0.000 A 
ATOM      7  C   UNL     1       2.135   2.983  18.841  0.00  0.00    +0.000 A 
ATOM      8 CL   UNL     1       2.523   2.050  17.436  0.00  0.00    +0.000 Cl
ATOM      9  C   UNL     1       2.301   4.381  18.891  0.00  0.00    +0.000 A 
ENDBRANCH   1   9
BRANCH   1  10
ATOM     10  N   UNL     1       4.258   4.825  17.421  0.00  0.00    +0.000 N 
ATOM     11  C   UNL     1       5.342   5.033  18.230  0.00  0.00    +0.000 A 
ATOM     12  C   UNL     1       6.451   4.728  17.479  0.00  0.00    +0.000 A 
ATOM     13  C   UNL     1       5.939   4.378  16.217  0.00  0.00    +0.000 A 
ATOM     14  N   UNL     1       4.605   4.443  16.173  0.00  0.00    +0.000 NA
BRANCH  13  15
ATOM     15  C   UNL     1       6.819   3.994  15.038  0.00  0.00    +0.000 C 
ATOM     16  C   UNL     1       6.184   3.878  13.667  0.00  0.00    +0.000 C 
ATOM     17  C   UNL     1       7.086   5.027  13.960  0.00  0.00    +0.000 C 
ENDBRANCH  13  15
ENDBRANCH   1  10
TORSDOF 3
ENDMDL
MODEL 8
REMARK VINA RESULT:      -6.5      2.004      2.527
REMARK  Name = 
REMARK  3 active torsions:
REMARK  status: ('A' for Active; 'I' for Inactive)
REMARK    1  A    between atoms: C_8  and  C_9
REMARK    2  A    between atoms: C_9  and  N_10
REMARK    3  A    between atoms: C_13  and  C_14
REMARK                            x       y       z     vdW  Elec       q    Type
REMARK                         _______ _______ _______ _____ _____    ______ ____
ROOT
ATOM      1  C   UNL     1       3.016   5.848  18.037  0.00  0.00    +0.000 C 
ENDROOT
BRANCH   1   9
ATOM      2 CL   UNL     1       1.692   6.513  20.795  0.00  0.00    +0.000 Cl
ATOM      3  C   UNL     1       1.667   4.971  20.012  0.00  0.00    +0.000 A 
ATOM      4  C   UNL     1       1.041   3.930  20.714  0.00  0.00    +0.000 A 
ATOM      5  C   UNL     1       0.983   2.650  20.174  0.00  0.00    +0.000 A 
ATOM      6  C   UNL     1       1.543   2.413  18.924  0.00  0.00    +0.000 A 
ATOM      7  C   UNL     1       2.178   3.447  18.223  0.00  0.00    +0.000 A 
ATOM      8 CL   UNL     1       2.874   3.018  16.698  0.00  0.00    +0.000 Cl
ATOM      9  C   UNL     1       2.269   4.748  18.757  0.00  0.00    +0.000 A 
ENDBRANCH   1   9
BRANCH   1  10
ATOM     10  N   UNL     1       4.466   5.765  18.187  0.00  0.00    +0.000 N 
ATOM     11  C   UNL     1       5.155   4.992  19.082  0.00  0.00    +0.000 A 
ATOM     12  C   UNL     1       6.475   5.359  18.975  0.00  0.00    +0.000 A 
ATOM     13  C   UNL     1       6.481   6.386  18.014  0.00  0.00    +0.000 A 
ATOM     14  N   UNL     1       5.259   6.644  17.538  0.00  0.00    +0.000 NA
BRANCH  13  15
ATOM     15  C   UNL     1       7.740   7.127  17.594  0.00  0.00    +0.000 C 
ATOM     16  C   UNL     1       7.694   8.639  17.502  0.00  0.00    +0.000 C 
ATOM     17  C   UNL     1       8.449   7.996  18.614  0.00  0.00    +0.000 C 
ENDBRANCH  13  15
ENDBRANCH   1  10
TORSDOF 3
ENDMDL
MODEL 9
REMARK VINA RESULT:      -6.5      1.769      2.602
REMARK  Name = 
REMARK  3 active torsions:
REMARK  status: ('A' for Active; 'I' for Inactive)
REMARK    1  A    between atoms: C_8  and  C_9
REMARK    2  A    between atoms: C_9  and  N_10
REMARK    3  A    between atoms: C_13  and  C_14
REMARK                            x       y       z     vdW  Elec       q    Type
REMARK                         _______ _______ _______ _____ _____    ______ ____
ROOT
ATOM      1  C   UNL     1       3.812   4.925  17.364  0.00  0.00    +0.000 C 
ENDROOT
BRANCH   1   9
ATOM      2 CL   UNL     1       2.646   7.223  19.143  0.00  0.00    +0.000 Cl
ATOM      3  C   UNL     1       2.384   5.531  19.386  0.00  0.00    +0.000 A 
ATOM      4  C   UNL     1       1.625   5.177  20.511  0.00  0.00    +0.000 A 
ATOM      5  C   UNL     1       1.373   3.841  20.800  0.00  0.00    +0.000 A 
ATOM      6  C   UNL     1       1.871   2.856  19.954  0.00  0.00    +0.000 A 
ATOM      7  C   UNL     1       2.638   3.204  18.834  0.00  0.00    +0.000 A 
ATOM      8 CL   UNL     1       3.237   1.889  17.884  0.00  0.00    +0.000 Cl
ATOM      9  C   UNL     1       2.925   4.550  18.531  0.00  0.00    +0.000 A 
ENDBRANCH   1   9
BRANCH   1  10
ATOM     10  N   UNL     1       5.170   5.290  17.757  0.00  0.00    +0.000 N 
ATOM     11  C   UNL     1       5.864   4.826  18.842  0.00  0.00    +0.000 A 
ATOM     12  C   UNL     1       7.023   5.561  18.903  0.00  0.00    +0.000 A 
ATOM     13  C   UNL     1       6.926   6.468  17.833  0.00  0.00    +0.000 A 
ATOM     14  N   UNL     1       5.796   6.313  17.137  0.00  0.00    +0.000 NA
BRANCH  13  15
ATOM     15  C   UNL     1       7.984   7.516  17.531  0.00  0.00    +0.000 C 
ATOM     16  C   UNL     1       7.594   8.979  17.599  0.00  0.00    +0.000 C 
ATOM     17  C   UNL     1       8.472   8.406  18.657  0.00  0.00    +0.000 C 
ENDBRANCH  13  15
ENDBRANCH   1  10
TORSDOF 3
ENDMDL
