MODEL 1
REMARK VINA RESULT:      -6.4      0.000      0.000
REMARK  Name = 
REMARK  3 active torsions:
REMARK  status: ('A' for Active; 'I' for Inactive)
REMARK    1  A    between atoms: C_1  and  O_2
REMARK    2  A    between atoms: O_2  and  C_3
REMARK    3  A    between atoms: C_3  and  C_5
REMARK                            x       y       z     vdW  Elec       q    Type
REMARK                         _______ _______ _______ _____ _____    ______ ____
ROOT
ATOM      1  C   UNL     1       4.574   6.392  17.526  0.00  0.00    +0.000 A 
ATOM      2  C   UNL     1       3.769   7.542  17.409  0.00  0.00    +0.000 A 
ATOM      3  C   UNL     1       2.636   7.703  18.203  0.00  0.00    +0.000 A 
ATOM      4  C   UNL     1       2.287   6.709  19.111  0.00  0.00    +0.000 A 
ATOM      5  C   UNL     1       3.081   5.559  19.233  0.00  0.00    +0.000 A 
ATOM      6  C   UNL     1       4.245   5.400  18.463  0.00  0.00    +0.000 A 
ATOM      7  C   UNL     1       5.112   4.232  18.743  0.00  0.00    +0.000 C 
ATOM      8  O   UNL     1       6.290   4.181  18.427  0.00  0.00    +0.000 OA
ATOM      9  C   UNL     1       4.529   3.108  19.507  0.00  0.00    +0.000 C 
ATOM     10  C   UNL     1       3.392   3.244  20.192  0.00  0.00    +0.000 C 
ATOM     11  C   UNL     1       2.652   4.516  20.189  0.00  0.00    +0.000 C 
ATOM     12  O   UNL     1       1.697   4.673  20.936  0.00  0.00    +0.000 OA
ENDROOT
BRANCH   1  13
ATOM     13  C   UNL     1       5.742   6.350  16.617  0.00  0.00    +0.000 C 
ATOM     14  O   UNL     1       6.742   7.028  16.805  0.00  0.00    +0.000 OA
BRANCH  13  16
ATOM     15  C   UNL     1       6.609   4.928  14.989  0.00  0.00    +0.000 C 
ATOM     16  O   UNL     1       5.469   5.609  15.519  0.00  0.00    +0.000 OA
ENDBRANCH  13  16
ENDBRANCH   1  13
TORSDOF 2
ENDMDL
MODEL 2
REMARK VINA RESULT:      -6.3      1.573      4.594
REMARK  Name = 
REMARK  3 active torsions:
REMARK  status: ('A' for Active; 'I' for Inactive)
REMARK    1  A    between atoms: C_1  and  O_2
REMARK    2  A    between atoms: O_2  and  C_3
REMARK    3  A    between atoms: C_3  and  C_5
REMARK                            x       y       z     vdW  Elec       q    Type
REMARK                         _______ _______ _______ _____ _____    ______ ____
ROOT
ATOM      1  C   UNL     1       2.639   5.117  18.855  0.00  0.00    +0.000 A 
ATOM      2  C   UNL     1       2.198   6.405  19.219  0.00  0.00    +0.000 A 
ATOM      3  C   UNL     1       2.682   7.534  18.565  0.00  0.00    +0.000 A 
ATOM      4  C   UNL     1       3.623   7.391  17.551  0.00  0.00    +0.000 A 
ATOM      5  C   UNL     1       4.071   6.113  17.183  0.00  0.00    +0.000 A 
ATOM      6  C   UNL     1       3.565   4.964  17.811  0.00  0.00    +0.000 A 
ATOM      7  C   UNL     1       3.972   3.643  17.278  0.00  0.00    +0.000 C 
ATOM      8  O   UNL     1       3.340   2.617  17.474  0.00  0.00    +0.000 OA
ATOM      9  C   UNL     1       5.166   3.589  16.407  0.00  0.00    +0.000 C 
ATOM     10  C   UNL     1       5.681   4.690  15.857  0.00  0.00    +0.000 C 
ATOM     11  C   UNL     1       5.095   6.014  16.122  0.00  0.00    +0.000 C 
ATOM     12  O   UNL     1       5.480   6.993  15.498  0.00  0.00    +0.000 OA
ENDROOT
BRANCH   1  13
ATOM     13  C   UNL     1       2.046   4.008  19.637  0.00  0.00    +0.000 C 
ATOM     14  O   UNL     1       0.901   3.621  19.460  0.00  0.00    +0.000 OA
BRANCH  13  16
ATOM     15  C   UNL     1       2.229   2.876  21.665  0.00  0.00    +0.000 C 
ATOM     16  O   UNL     1       2.877   3.628  20.635  0.00  0.00    +0.000 OA
ENDBRANCH  13  16
ENDBRANCH   1  13
TORSDOF 2
ENDMDL
MODEL 3
REMARK VINA RESULT:      -6.3      1.215      1.533
REMARK  Name = 
REMARK  3 active torsions:
REMARK  status: ('A' for Active; 'I' for Inactive)
REMARK    1  A    between atoms: C_1  and  O_2
REMARK    2  A    between atoms: O_2  and  C_3
REMARK    3  A    between atoms: C_3  and  C_5
REMARK                            x       y       z     vdW  Elec       q    Type
REMARK                         _______ _______ _______ _____ _____    ______ ____
ROOT
ATOM      1  C   UNL     1       4.718   5.291  17.790  0.00  0.00    +0.000 A 
ATOM      2  C   UNL     1       4.551   6.558  17.197  0.00  0.00    +0.000 A 
ATOM      3  C   UNL     1       3.569   7.434  17.654  0.00  0.00    +0.000 A 
ATOM      4  C   UNL     1       2.734   7.046  18.696  0.00  0.00    +0.000 A 
ATOM      5  C   UNL     1       2.891   5.785  19.290  0.00  0.00    +0.000 A 
ATOM      6  C   UNL     1       3.899   4.907  18.863  0.00  0.00    +0.000 A 
ATOM      7  C   UNL     1       4.101   3.653  19.626  0.00  0.00    +0.000 C 
ATOM      8  O   UNL     1       5.139   3.012  19.599  0.00  0.00    +0.000 OA
ATOM      9  C   UNL     1       3.009   3.205  20.517  0.00  0.00    +0.000 C 
ATOM     10  C   UNL     1       2.020   4.024  20.877  0.00  0.00    +0.000 C 
ATOM     11  C   UNL     1       1.959   5.406  20.373  0.00  0.00    +0.000 C 
ATOM     12  O   UNL     1       1.135   6.189  20.825  0.00  0.00    +0.000 OA
ENDROOT
BRANCH   1  13
ATOM     13  C   UNL     1       5.795   4.462  17.201  0.00  0.00    +0.000 C 
ATOM     14  O   UNL     1       6.964   4.572  17.539  0.00  0.00    +0.000 OA
BRANCH  13  16
ATOM     15  C   UNL     1       6.056   3.906  14.954  0.00  0.00    +0.000 C 
ATOM     16  O   UNL     1       5.323   3.726  16.169  0.00  0.00    +0.000 OA
ENDBRANCH  13  16
ENDBRANCH   1  13
TORSDOF 2
ENDMDL
MODEL 4
REMARK VINA RESULT:      -6.2      1.652      3.026
REMARK  Name = 
REMARK  3 active torsions:
REMARK  status: ('A' for Active; 'I' for Inactive)
REMARK    1  A    between atoms: C_1  and  O_2
REMARK    2  A    between atoms: O_2  and  C_3
REMARK    3  A    between atoms: C_3  and  C_5
REMARK                            x       y       z     vdW  Elec       q    Type
REMARK                         _______ _______ _______ _____ _____    ______ ____
ROOT
ATOM      1  C   UNL     1       4.319   5.506  17.204  0.00  0.00    +0.000 A 
ATOM      2  C   UNL     1       4.592   4.194  16.767  0.00  0.00    +0.000 A 
ATOM      3  C   UNL     1       3.928   3.105  17.324  0.00  0.00    +0.000 A 
ATOM      4  C   UNL     1       2.996   3.313  18.336  0.00  0.00    +0.000 A 
ATOM      5  C   UNL     1       2.720   4.615  18.780  0.00  0.00    +0.000 A 
ATOM      6  C   UNL     1       3.357   5.724  18.203  0.00  0.00    +0.000 A 
ATOM      7  C   UNL     1       2.915   7.076  18.619  0.00  0.00    +0.000 C 
ATOM      8  O   UNL     1       3.107   8.079  17.950  0.00  0.00    +0.000 OA
ATOM      9  C   UNL     1       2.142   7.192  19.874  0.00  0.00    +0.000 C 
ATOM     10  C   UNL     1       1.585   6.127  20.453  0.00  0.00    +0.000 C 
ATOM     11  C   UNL     1       1.746   4.781  19.879  0.00  0.00    +0.000 C 
ATOM     12  O   UNL     1       1.110   3.840  20.333  0.00  0.00    +0.000 OA
ENDROOT
BRANCH   1  13
ATOM     13  C   UNL     1       5.102   6.566  16.529  0.00  0.00    +0.000 C 
ATOM     14  O   UNL     1       5.001   6.793  15.332  0.00  0.00    +0.000 OA
BRANCH  13  16
ATOM     15  C   UNL     1       7.337   6.589  17.183  0.00  0.00    +0.000 C 
ATOM     16  O   UNL     1       6.015   7.099  17.373  0.00  0.00    +0.000 OA
ENDBRANCH  13  16
ENDBRANCH   1  13
TORSDOF 2
ENDMDL
MODEL 5
REMARK VINA RESULT:      -6.2      2.357      5.087
REMARK  Name = 
REMARK  3 active torsions:
REMARK  status: ('A' for Active; 'I' for Inactive)
REMARK    1  A    between atoms: C_1  and  O_2
REMARK    2  A    between atoms: O_2  and  C_3
REMARK    3  A    between atoms: C_3  and  C_5
REMARK                            x       y       z     vdW  Elec       q    Type
REMARK                         _______ _______ _______ _____ _____    ______ ____
ROOT
ATOM      1  C   UNL     1       5.603   4.765  18.630  0.00  0.00    +0.000 A 
ATOM      2  C   UNL     1       6.536   5.540  19.347  0.00  0.00    +0.000 A 
ATOM      3  C   UNL     1       7.597   6.162  18.694  0.00  0.00    +0.000 A 
ATOM      4  C   UNL     1       7.746   6.002  17.321  0.00  0.00    +0.000 A 
ATOM      5  C   UNL     1       6.825   5.229  16.599  0.00  0.00    +0.000 A 
ATOM      6  C   UNL     1       5.731   4.626  17.239  0.00  0.00    +0.000 A 
ATOM      7  C   UNL     1       4.719   3.945  16.398  0.00  0.00    +0.000 C 
ATOM      8  O   UNL     1       3.579   3.720  16.770  0.00  0.00    +0.000 OA
ATOM      9  C   UNL     1       5.100   3.589  15.014  0.00  0.00    +0.000 C 
ATOM     10  C   UNL     1       6.174   4.120  14.426  0.00  0.00    +0.000 C 
ATOM     11  C   UNL     1       7.044   5.064  15.146  0.00  0.00    +0.000 C 
ATOM     12  O   UNL     1       7.934   5.655  14.552  0.00  0.00    +0.000 OA
ENDROOT
BRANCH   1  13
ATOM     13  C   UNL     1       4.531   4.158  19.451  0.00  0.00    +0.000 C 
ATOM     14  O   UNL     1       3.568   4.798  19.848  0.00  0.00    +0.000 OA
BRANCH  13  16
ATOM     15  C   UNL     1       3.786   1.960  19.659  0.00  0.00    +0.000 C 
ATOM     16  O   UNL     1       4.858   2.895  19.810  0.00  0.00    +0.000 OA
ENDBRANCH  13  16
ENDBRANCH   1  13
TORSDOF 2
ENDMDL
MODEL 6
REMARK VINA RESULT:      -6.1      2.089      3.331
REMARK  Name = 
REMARK  3 active torsions:
REMARK  status: ('A' for Active; 'I' for Inactive)
REMARK    1  A    between atoms: C_1  and  O_2
REMARK    2  A    between atoms: O_2  and  C_3
REMARK    3  A    between atoms: C_3  and  C_5
REMARK                            x       y       z     vdW  Elec       q    Type
REMARK                         _______ _______ _______ _____ _____    ______ ____
ROOT
ATOM      1  C   UNL     1       4.303   4.753  18.002  0.00  0.00    +0.000 A 
ATOM      2  C   UNL     1       4.676   3.836  16.999  0.00  0.00    +0.000 A 
ATOM      3  C   UNL     1       3.879   2.731  16.713  0.00  0.00    +0.000 A 
ATOM      4  C   UNL     1       2.711   2.520  17.437  0.00  0.00    +0.000 A 
ATOM      5  C   UNL     1       2.333   3.425  18.440  0.00  0.00    +0.000 A 
ATOM      6  C   UNL     1       3.108   4.563  18.715  0.00  0.00    +0.000 A 
ATOM      7  C   UNL     1       2.579   5.549  19.685  0.00  0.00    +0.000 C 
ATOM      8  O   UNL     1       2.951   6.711  19.729  0.00  0.00    +0.000 OA
ATOM      9  C   UNL     1       1.497   5.112  20.592  0.00  0.00    +0.000 C 
ATOM     10  C   UNL     1       0.798   3.999  20.361  0.00  0.00    +0.000 C 
ATOM     11  C   UNL     1       1.099   3.141  19.203  0.00  0.00    +0.000 C 
ATOM     12  O   UNL     1       0.359   2.210  18.919  0.00  0.00    +0.000 OA
ENDROOT
BRANCH   1  13
ATOM     13  C   UNL     1       5.245   5.877  18.204  0.00  0.00    +0.000 C 
ATOM     14  O   UNL     1       5.307   6.825  17.435  0.00  0.00    +0.000 OA
BRANCH  13  16
ATOM     15  C   UNL     1       7.472   5.663  18.854  0.00  0.00    +0.000 C 
ATOM     16  O   UNL     1       6.092   5.616  19.227  0.00  0.00    +0.000 OA
ENDBRANCH  13  16
ENDBRANCH   1  13
TORSDOF 2
ENDMDL
MODEL 7
REMARK VINA RESULT:      -6.1      1.626      4.449
REMARK  Name = 
REMARK  3 active torsions:
REMARK  status: ('A' for Active; 'I' for Inactive)
REMARK    1  A    between atoms: C_1  and  O_2
REMARK    2  A    between atoms: O_2  and  C_3
REMARK    3  A    between atoms: C_3  and  C_5
REMARK                            x       y       z     vdW  Elec       q    Type
REMARK                         _______ _______ _______ _____ _____    ______ ____
ROOT
ATOM      1  C   UNL     1       2.824   5.107  18.902  0.00  0.00    +0.000 A 
ATOM      2  C   UNL     1       2.333   6.377  19.266  0.00  0.00    +0.000 A 
ATOM      3  C   UNL     1       2.724   7.518  18.570  0.00  0.00    +0.000 A 
ATOM      4  C   UNL     1       3.622   7.405  17.514  0.00  0.00    +0.000 A 
ATOM      5  C   UNL     1       4.118   6.145  17.146  0.00  0.00    +0.000 A 
ATOM      6  C   UNL     1       3.705   4.983  17.816  0.00  0.00    +0.000 A 
ATOM      7  C   UNL     1       4.156   3.675  17.286  0.00  0.00    +0.000 C 
ATOM      8  O   UNL     1       3.589   2.622  17.530  0.00  0.00    +0.000 OA
ATOM      9  C   UNL     1       5.308   3.667  16.359  0.00  0.00    +0.000 C 
ATOM     10  C   UNL     1       5.736   4.783  15.766  0.00  0.00    +0.000 C 
ATOM     11  C   UNL     1       5.094   6.080  16.038  0.00  0.00    +0.000 C 
ATOM     12  O   UNL     1       5.397   7.065  15.379  0.00  0.00    +0.000 OA
ENDROOT
BRANCH   1  13
ATOM     13  C   UNL     1       2.329   3.984  19.730  0.00  0.00    +0.000 C 
ATOM     14  O   UNL     1       3.067   3.325  20.447  0.00  0.00    +0.000 OA
BRANCH  13  16
ATOM     15  C   UNL     1       0.794   2.353  19.092  0.00  0.00    +0.000 C 
ATOM     16  O   UNL     1       1.033   3.716  19.450  0.00  0.00    +0.000 OA
ENDBRANCH  13  16
ENDBRANCH   1  13
TORSDOF 2
ENDMDL
MODEL 8
REMARK VINA RESULT:      -6.1      2.233      5.133
REMARK  Name = 
REMARK  3 active torsions:
REMARK  status: ('A' for Active; 'I' for Inactive)
REMARK    1  A    between atoms: C_1  and  O_2
REMARK    2  A    between atoms: O_2  and  C_3
REMARK    3  A    between atoms: C_3  and  C_5
REMARK                            x       y       z     vdW  Elec       q    Type
REMARK                         _______ _______ _______ _____ _____    ______ ____
ROOT
ATOM      1  C   UNL     1       5.699   4.686  18.702  0.00  0.00    +0.000 A 
ATOM      2  C   UNL     1       6.623   5.501  19.386  0.00  0.00    +0.000 A 
ATOM      3  C   UNL     1       7.637   6.160  18.698  0.00  0.00    +0.000 A 
ATOM      4  C   UNL     1       7.750   6.000  17.321  0.00  0.00    +0.000 A 
ATOM      5  C   UNL     1       6.837   5.188  16.631  0.00  0.00    +0.000 A 
ATOM      6  C   UNL     1       5.789   4.546  17.308  0.00  0.00    +0.000 A 
ATOM      7  C   UNL     1       4.779   3.821  16.501  0.00  0.00    +0.000 C 
ATOM      8  O   UNL     1       3.660   3.554  16.911  0.00  0.00    +0.000 OA
ATOM      9  C   UNL     1       5.130   3.473  15.108  0.00  0.00    +0.000 C 
ATOM     10  C   UNL     1       6.163   4.043  14.484  0.00  0.00    +0.000 C 
ATOM     11  C   UNL     1       7.018   5.024  15.173  0.00  0.00    +0.000 C 
ATOM     12  O   UNL     1       7.865   5.647  14.549  0.00  0.00    +0.000 OA
ENDROOT
BRANCH   1  13
ATOM     13  C   UNL     1       4.678   4.041  19.559  0.00  0.00    +0.000 C 
ATOM     14  O   UNL     1       4.721   2.855  19.849  0.00  0.00    +0.000 OA
BRANCH  13  16
ATOM     15  C   UNL     1       2.454   4.241  20.224  0.00  0.00    +0.000 C 
ATOM     16  O   UNL     1       3.659   4.894  19.814  0.00  0.00    +0.000 OA
ENDBRANCH  13  16
ENDBRANCH   1  13
TORSDOF 2
ENDMDL
MODEL 9
REMARK VINA RESULT:      -6.1      0.871      1.395
REMARK  Name = 
REMARK  3 active torsions:
REMARK  status: ('A' for Active; 'I' for Inactive)
REMARK    1  A    between atoms: C_1  and  O_2
REMARK    2  A    between atoms: O_2  and  C_3
REMARK    3  A    between atoms: C_3  and  C_5
REMARK                            x       y       z     vdW  Elec       q    Type
REMARK                         _______ _______ _______ _____ _____    ______ ____
ROOT
ATOM      1  C   UNL     1       4.721   6.243  17.773  0.00  0.00    +0.000 A 
ATOM      2  C   UNL     1       3.971   7.400  17.481  0.00  0.00    +0.000 A 
ATOM      3  C   UNL     1       2.686   7.563  17.991  0.00  0.00    +0.000 A 
ATOM      4  C   UNL     1       2.130   6.566  18.785  0.00  0.00    +0.000 A 
ATOM      5  C   UNL     1       2.868   5.409  19.078  0.00  0.00    +0.000 A 
ATOM      6  C   UNL     1       4.177   5.247  18.600  0.00  0.00    +0.000 A 
ATOM      7  C   UNL     1       4.949   4.071  19.064  0.00  0.00    +0.000 C 
ATOM      8  O   UNL     1       6.168   4.013  19.031  0.00  0.00    +0.000 OA
ATOM      9  C   UNL     1       4.198   2.946  19.662  0.00  0.00    +0.000 C 
ATOM     10  C   UNL     1       2.933   3.085  20.064  0.00  0.00    +0.000 C 
ATOM     11  C   UNL     1       2.222   4.363  19.900  0.00  0.00    +0.000 C 
ATOM     12  O   UNL     1       1.119   4.522  20.405  0.00  0.00    +0.000 OA
ENDROOT
BRANCH   1  13
ATOM     13  C   UNL     1       6.069   6.199  17.161  0.00  0.00    +0.000 C 
ATOM     14  O   UNL     1       6.291   5.619  16.108  0.00  0.00    +0.000 OA
BRANCH  13  16
ATOM     15  C   UNL     1       7.650   7.883  17.459  0.00  0.00    +0.000 C 
ATOM     16  O   UNL     1       6.991   6.732  17.994  0.00  0.00    +0.000 OA
ENDBRANCH  13  16
ENDBRANCH   1  13
TORSDOF 2
ENDMDL
