MODEL 1
REMARK VINA RESULT:      -8.1      0.000      0.000
REMARK  Name = 
REMARK  11 active torsions:
REMARK  status: ('A' for Active; 'I' for Inactive)
REMARK    1  A    between atoms: C_1  and  O_2
REMARK    2  A    between atoms: O_2  and  C_3
REMARK    3  A    between atoms: C_3  and  C_4
REMARK    4  A    between atoms: C_4  and  N_5
REMARK    5  A    between atoms: N_5  and  C_6
REMARK    6  A    between atoms: C_6  and  C_7
REMARK    7  A    between atoms: C_11  and  C_12
REMARK    8  A    between atoms: C_16  and  N_17
REMARK    9  A    between atoms: N_17  and  C_18
REMARK   10  A    between atoms: C_20  and  O_21
REMARK   11  A    between atoms: C_24  and  C_25
REMARK                            x       y       z     vdW  Elec       q    Type
REMARK                         _______ _______ _______ _____ _____    ______ ____
ROOT
ATOM      1  C   UNL     1       2.756   7.019  18.498  0.00  0.00    +0.000 A 
ATOM      2  C   UNL     1       2.299   7.992  17.602  0.00  0.00    +0.000 A 
ATOM      3  C   UNL     1       1.502   9.052  18.043  0.00  0.00    +0.000 A 
ATOM      4  C   UNL     1       1.111   9.155  19.393  0.00  0.00    +0.000 A 
ATOM      5  C   UNL     1       0.286  10.197  19.893  0.00  0.00    +0.000 A 
ATOM      6  C   UNL     1      -0.043  10.208  21.247  0.00  0.00    +0.000 A 
ATOM      7  C   UNL     1       0.462   9.210  22.055  0.00  0.00    +0.000 A 
ATOM      8  N   UNL     1       1.254   8.214  21.611  0.00  0.00    +0.000 NA
ATOM      9  C   UNL     1       1.571   8.187  20.307  0.00  0.00    +0.000 A 
ATOM     10  C   UNL     1       2.381   7.156  19.843  0.00  0.00    +0.000 A 
ENDROOT
BRANCH   1  15
ATOM     11  C   UNL     1       3.283   4.589  17.656  0.00  0.00    +0.000 A 
ATOM     12  N   UNL     1       4.372   3.799  17.284  0.00  0.00    +0.000 NA
ATOM     13  C   UNL     1       5.480   4.491  17.382  0.00  0.00    +0.000 A 
ATOM     14  S   UNL     1       5.320   6.087  17.952  0.00  0.00    +0.000 S 
ATOM     15  C   UNL     1       3.602   5.892  18.054  0.00  0.00    +0.000 A 
BRANCH  11  16
ATOM     16  C   UNL     1       1.928   3.952  17.515  0.00  0.00    +0.000 C 
BRANCH  16  17
ATOM     17  N   UNL     1       1.977   2.510  17.789  0.00  0.00    +0.000 NA
ATOM     18  H   UNL     1       1.230   2.063  17.260  0.00  0.00    +0.000 HD
BRANCH  17  19
ATOM     19  C   UNL     1       1.783   2.230  19.217  0.00  0.00    +0.000 C 
BRANCH  19  20
ATOM     20  C   UNL     1       0.802   3.220  19.850  0.00  0.00    +0.000 C 
BRANCH  20  22
ATOM     21  C   UNL     1       2.438   2.907  21.516  0.00  0.00    +0.000 C 
ATOM     22  O   UNL     1       1.390   3.740  21.045  0.00  0.00    +0.000 OA
ENDBRANCH  20  22
ENDBRANCH  19  20
ENDBRANCH  17  19
ENDBRANCH  16  17
ENDBRANCH  11  16
ENDBRANCH   1  15
BRANCH   5  23
ATOM     23  N   UNL     1      -0.264  11.149  18.997  0.00  0.00    +0.000 N 
ATOM     24  H   UNL     1       0.482  11.602  18.478  0.00  0.00    +0.000 HD
BRANCH  23  25
ATOM     25  C   UNL     1      -1.503  11.139  18.315  0.00  0.00    +0.000 A 
ATOM     26  C   UNL     1      -1.664  10.388  17.137  0.00  0.00    +0.000 A 
ATOM     27  C   UNL     1      -2.910  10.285  16.524  0.00  0.00    +0.000 A 
ATOM     28  C   UNL     1      -4.020  10.917  17.060  0.00  0.00    +0.000 A 
ATOM     29  C   UNL     1      -3.884  11.666  18.226  0.00  0.00    +0.000 A 
ATOM     30  C   UNL     1      -2.636  11.785  18.865  0.00  0.00    +0.000 A 
ATOM     31  C   UNL     1      -2.551  12.609  20.121  0.00  0.00    +0.000 C 
BRANCH  27  32
ATOM     32  O   UNL     1      -3.087   9.546  15.391  0.00  0.00    +0.000 OA
ATOM     33  H   UNL     1      -3.749   8.859  15.571  0.00  0.00    +0.000 HD
ENDBRANCH  27  32
ENDBRANCH  23  25
ENDBRANCH   5  23
TORSDOF 9
ENDMDL
MODEL 2
REMARK VINA RESULT:      -8.0      3.399      4.513
REMARK  Name = 
REMARK  11 active torsions:
REMARK  status: ('A' for Active; 'I' for Inactive)
REMARK    1  A    between atoms: C_1  and  O_2
REMARK    2  A    between atoms: O_2  and  C_3
REMARK    3  A    between atoms: C_3  and  C_4
REMARK    4  A    between atoms: C_4  and  N_5
REMARK    5  A    between atoms: N_5  and  C_6
REMARK    6  A    between atoms: C_6  and  C_7
REMARK    7  A    between atoms: C_11  and  C_12
REMARK    8  A    between atoms: C_16  and  N_17
REMARK    9  A    between atoms: N_17  and  C_18
REMARK   10  A    between atoms: C_20  and  O_21
REMARK   11  A    between atoms: C_24  and  C_25
REMARK                            x       y       z     vdW  Elec       q    Type
REMARK                         _______ _______ _______ _____ _____    ______ ____
ROOT
ATOM      1  C   UNL     1       2.365   6.572  18.710  0.00  0.00    +0.000 A 
ATOM      2  C   UNL     1       2.334   7.566  17.724  0.00  0.00    +0.000 A 
ATOM      3  C   UNL     1       1.917   8.863  18.032  0.00  0.00    +0.000 A 
ATOM      4  C   UNL     1       1.488   9.202  19.331  0.00  0.00    +0.000 A 
ATOM      5  C   UNL     1       1.035  10.498  19.695  0.00  0.00    +0.000 A 
ATOM      6  C   UNL     1       0.633  10.729  21.008  0.00  0.00    +0.000 A 
ATOM      7  C   UNL     1       0.706   9.689  21.912  0.00  0.00    +0.000 A 
ATOM      8  N   UNL     1       1.141   8.452  21.598  0.00  0.00    +0.000 NA
ATOM      9  C   UNL     1       1.522   8.213  20.334  0.00  0.00    +0.000 A 
ATOM     10  C   UNL     1       1.963   6.936  20.004  0.00  0.00    +0.000 A 
ENDROOT
BRANCH   1  15
ATOM     11  C   UNL     1       4.044   4.560  18.556  0.00  0.00    +0.000 A 
ATOM     12  N   UNL     1       4.073   3.219  18.171  0.00  0.00    +0.000 NA
ATOM     13  C   UNL     1       2.886   2.845  17.763  0.00  0.00    +0.000 A 
ATOM     14  S   UNL     1       1.680   4.047  17.764  0.00  0.00    +0.000 S 
ATOM     15  C   UNL     1       2.805   5.194  18.409  0.00  0.00    +0.000 A 
BRANCH  11  16
ATOM     16  C   UNL     1       5.322   5.109  19.128  0.00  0.00    +0.000 C 
BRANCH  16  17
ATOM     17  N   UNL     1       6.474   4.266  18.786  0.00  0.00    +0.000 NA
ATOM     18  H   UNL     1       6.836   3.861  19.648  0.00  0.00    +0.000 HD
BRANCH  17  19
ATOM     19  C   UNL     1       7.539   5.048  18.143  0.00  0.00    +0.000 C 
BRANCH  19  20
ATOM     20  C   UNL     1       7.246   5.269  16.658  0.00  0.00    +0.000 C 
BRANCH  20  22
ATOM     21  C   UNL     1       7.624   7.429  17.521  0.00  0.00    +0.000 C 
ATOM     22  O   UNL     1       7.495   6.643  16.346  0.00  0.00    +0.000 OA
ENDBRANCH  20  22
ENDBRANCH  19  20
ENDBRANCH  17  19
ENDBRANCH  16  17
ENDBRANCH  11  16
ENDBRANCH   1  15
BRANCH   5  23
ATOM     23  N   UNL     1       0.910  11.503  18.701  0.00  0.00    +0.000 N 
ATOM     24  H   UNL     1       0.008  11.419  18.242  0.00  0.00    +0.000 HD
BRANCH  23  25
ATOM     25  C   UNL     1       1.445  12.812  18.665  0.00  0.00    +0.000 A 
ATOM     26  C   UNL     1       2.755  13.035  18.205  0.00  0.00    +0.000 A 
ATOM     27  C   UNL     1       3.247  14.330  18.063  0.00  0.00    +0.000 A 
ATOM     28  C   UNL     1       2.458  15.427  18.366  0.00  0.00    +0.000 A 
ATOM     29  C   UNL     1       1.158  15.230  18.823  0.00  0.00    +0.000 A 
ATOM     30  C   UNL     1       0.637  13.931  18.975  0.00  0.00    +0.000 A 
ATOM     31  C   UNL     1      -0.776  13.781  19.474  0.00  0.00    +0.000 C 
BRANCH  27  32
ATOM     32  O   UNL     1       4.509  14.564  17.602  0.00  0.00    +0.000 OA
ATOM     33  H   UNL     1       4.683  15.519  17.650  0.00  0.00    +0.000 HD
ENDBRANCH  27  32
ENDBRANCH  23  25
ENDBRANCH   5  23
TORSDOF 9
ENDMDL
MODEL 3
REMARK VINA RESULT:      -7.8      2.477      2.982
REMARK  Name = 
REMARK  11 active torsions:
REMARK  status: ('A' for Active; 'I' for Inactive)
REMARK    1  A    between atoms: C_1  and  O_2
REMARK    2  A    between atoms: O_2  and  C_3
REMARK    3  A    between atoms: C_3  and  C_4
REMARK    4  A    between atoms: C_4  and  N_5
REMARK    5  A    between atoms: N_5  and  C_6
REMARK    6  A    between atoms: C_6  and  C_7
REMARK    7  A    between atoms: C_11  and  C_12
REMARK    8  A    between atoms: C_16  and  N_17
REMARK    9  A    between atoms: N_17  and  C_18
REMARK   10  A    between atoms: C_20  and  O_21
REMARK   11  A    between atoms: C_24  and  C_25
REMARK                            x       y       z     vdW  Elec       q    Type
REMARK                         _______ _______ _______ _____ _____    ______ ____
ROOT
ATOM      1  C   UNL     1       3.058   6.867  18.223  0.00  0.00    +0.000 A 
ATOM      2  C   UNL     1       2.849   7.994  17.419  0.00  0.00    +0.000 A 
ATOM      3  C   UNL     1       2.095   9.074  17.885  0.00  0.00    +0.000 A 
ATOM      4  C   UNL     1       1.500   9.050  19.162  0.00  0.00    +0.000 A 
ATOM      5  C   UNL     1       0.708  10.109  19.679  0.00  0.00    +0.000 A 
ATOM      6  C   UNL     1       0.164   9.985  20.955  0.00  0.00    +0.000 A 
ATOM      7  C   UNL     1       0.431   8.840  21.677  0.00  0.00    +0.000 A 
ATOM      8  N   UNL     1       1.187   7.823  21.217  0.00  0.00    +0.000 NA
ATOM      9  C   UNL     1       1.709   7.925  19.985  0.00  0.00    +0.000 A 
ATOM     10  C   UNL     1       2.482   6.874  19.503  0.00  0.00    +0.000 A 
ENDROOT
BRANCH   1  15
ATOM     11  C   UNL     1       3.499   4.389  17.480  0.00  0.00    +0.000 A 
ATOM     12  N   UNL     1       4.542   3.577  17.030  0.00  0.00    +0.000 NA
ATOM     13  C   UNL     1       5.647   4.274  16.948  0.00  0.00    +0.000 A 
ATOM     14  S   UNL     1       5.544   5.904  17.431  0.00  0.00    +0.000 S 
ATOM     15  C   UNL     1       3.854   5.715  17.753  0.00  0.00    +0.000 A 
BRANCH  11  16
ATOM     16  C   UNL     1       2.143   3.743  17.546  0.00  0.00    +0.000 C 
BRANCH  16  17
ATOM     17  N   UNL     1       2.231   2.340  17.971  0.00  0.00    +0.000 NA
ATOM     18  H   UNL     1       1.666   1.781  17.334  0.00  0.00    +0.000 HD
BRANCH  17  19
ATOM     19  C   UNL     1       1.724   2.162  19.338  0.00  0.00    +0.000 C 
BRANCH  19  20
ATOM     20  C   UNL     1       0.828   3.331  19.756  0.00  0.00    +0.000 C 
BRANCH  20  22
ATOM     21  C   UNL     1       2.291   2.990  21.571  0.00  0.00    +0.000 C 
ATOM     22  O   UNL     1       1.284   3.824  21.018  0.00  0.00    +0.000 OA
ENDBRANCH  20  22
ENDBRANCH  19  20
ENDBRANCH  17  19
ENDBRANCH  16  17
ENDBRANCH  11  16
ENDBRANCH   1  15
BRANCH   5  23
ATOM     23  N   UNL     1       0.405  11.226  18.857  0.00  0.00    +0.000 N 
ATOM     24  H   UNL     1      -0.580  11.213  18.610  0.00  0.00    +0.000 HD
BRANCH  23  25
ATOM     25  C   UNL     1       0.976  12.520  18.844  0.00  0.00    +0.000 A 
ATOM     26  C   UNL     1       2.268  12.725  18.330  0.00  0.00    +0.000 A 
ATOM     27  C   UNL     1       2.790  14.011  18.211  0.00  0.00    +0.000 A 
ATOM     28  C   UNL     1       2.048  15.117  18.593  0.00  0.00    +0.000 A 
ATOM     29  C   UNL     1       0.766  14.937  19.104  0.00  0.00    +0.000 A 
ATOM     30  C   UNL     1       0.216  13.648  19.233  0.00  0.00    +0.000 A 
ATOM     31  C   UNL     1      -1.175  13.517  19.794  0.00  0.00    +0.000 C 
BRANCH  27  32
ATOM     32  O   UNL     1       4.036  14.229  17.699  0.00  0.00    +0.000 OA
ATOM     33  H   UNL     1       4.075  13.842  16.809  0.00  0.00    +0.000 HD
ENDBRANCH  27  32
ENDBRANCH  23  25
ENDBRANCH   5  23
TORSDOF 9
ENDMDL
MODEL 4
REMARK VINA RESULT:      -7.7      1.465      1.986
REMARK  Name = 
REMARK  11 active torsions:
REMARK  status: ('A' for Active; 'I' for Inactive)
REMARK    1  A    between atoms: C_1  and  O_2
REMARK    2  A    between atoms: O_2  and  C_3
REMARK    3  A    between atoms: C_3  and  C_4
REMARK    4  A    between atoms: C_4  and  N_5
REMARK    5  A    between atoms: N_5  and  C_6
REMARK    6  A    between atoms: C_6  and  C_7
REMARK    7  A    between atoms: C_11  and  C_12
REMARK    8  A    between atoms: C_16  and  N_17
REMARK    9  A    between atoms: N_17  and  C_18
REMARK   10  A    between atoms: C_20  and  O_21
REMARK   11  A    between atoms: C_24  and  C_25
REMARK                            x       y       z     vdW  Elec       q    Type
REMARK                         _______ _______ _______ _____ _____    ______ ____
ROOT
ATOM      1  C   UNL     1       2.745   7.332  18.339  0.00  0.00    +0.000 A 
ATOM      2  C   UNL     1       2.179   8.340  17.550  0.00  0.00    +0.000 A 
ATOM      3  C   UNL     1       1.332   9.298  18.114  0.00  0.00    +0.000 A 
ATOM      4  C   UNL     1       1.001   9.260  19.483  0.00  0.00    +0.000 A 
ATOM      5  C   UNL     1       0.130  10.195  20.105  0.00  0.00    +0.000 A 
ATOM      6  C   UNL     1      -0.133  10.070  21.468  0.00  0.00    +0.000 A 
ATOM      7  C   UNL     1       0.479   9.048  22.166  0.00  0.00    +0.000 A 
ATOM      8  N   UNL     1       1.316   8.153  21.604  0.00  0.00    +0.000 NA
ATOM      9  C   UNL     1       1.570   8.256  20.291  0.00  0.00    +0.000 A 
ATOM     10  C   UNL     1       2.427   7.330  19.706  0.00  0.00    +0.000 A 
ENDROOT
BRANCH   1  15
ATOM     11  C   UNL     1       3.494   4.931  17.588  0.00  0.00    +0.000 A 
ATOM     12  N   UNL     1       4.575   4.288  16.984  0.00  0.00    +0.000 NA
ATOM     13  C   UNL     1       5.509   5.160  16.696  0.00  0.00    +0.000 A 
ATOM     14  S   UNL     1       5.197   6.771  17.152  0.00  0.00    +0.000 S 
ATOM     15  C   UNL     1       3.645   6.311  17.765  0.00  0.00    +0.000 A 
BRANCH  11  16
ATOM     16  C   UNL     1       2.305   4.065  17.902  0.00  0.00    +0.000 C 
BRANCH  16  17
ATOM     17  N   UNL     1       2.669   2.644  17.956  0.00  0.00    +0.000 NA
ATOM     18  H   UNL     1       2.077   2.141  17.296  0.00  0.00    +0.000 HD
BRANCH  17  19
ATOM     19  C   UNL     1       2.463   2.088  19.300  0.00  0.00    +0.000 C 
BRANCH  19  20
ATOM     20  C   UNL     1       3.529   2.588  20.277  0.00  0.00    +0.000 C 
BRANCH  20  22
ATOM     21  C   UNL     1       1.615   2.804  21.633  0.00  0.00    +0.000 C 
ATOM     22  O   UNL     1       3.002   2.507  21.604  0.00  0.00    +0.000 OA
ENDBRANCH  20  22
ENDBRANCH  19  20
ENDBRANCH  17  19
ENDBRANCH  16  17
ENDBRANCH  11  16
ENDBRANCH   1  15
BRANCH   5  23
ATOM     23  N   UNL     1      -0.528  11.174  19.318  0.00  0.00    +0.000 N 
ATOM     24  H   UNL     1       0.015  11.362  18.480  0.00  0.00    +0.000 HD
BRANCH  23  25
ATOM     25  C   UNL     1      -1.910  11.435  19.166  0.00  0.00    +0.000 A 
ATOM     26  C   UNL     1      -2.569  12.317  20.040  0.00  0.00    +0.000 A 
ATOM     27  C   UNL     1      -3.902  12.663  19.828  0.00  0.00    +0.000 A 
ATOM     28  C   UNL     1      -4.607  12.150  18.752  0.00  0.00    +0.000 A 
ATOM     29  C   UNL     1      -3.973  11.275  17.874  0.00  0.00    +0.000 A 
ATOM     30  C   UNL     1      -2.627  10.910  18.066  0.00  0.00    +0.000 A 
ATOM     31  C   UNL     1      -1.997   9.959  17.084  0.00  0.00    +0.000 C 
BRANCH  27  32
ATOM     32  O   UNL     1      -4.552  13.531  20.656  0.00  0.00    +0.000 OA
ATOM     33  H   UNL     1      -4.764  13.068  21.483  0.00  0.00    +0.000 HD
ENDBRANCH  27  32
ENDBRANCH  23  25
ENDBRANCH   5  23
TORSDOF 9
ENDMDL
MODEL 5
REMARK VINA RESULT:      -7.7      2.545      8.400
REMARK  Name = 
REMARK  11 active torsions:
REMARK  status: ('A' for Active; 'I' for Inactive)
REMARK    1  A    between atoms: C_1  and  O_2
REMARK    2  A    between atoms: O_2  and  C_3
REMARK    3  A    between atoms: C_3  and  C_4
REMARK    4  A    between atoms: C_4  and  N_5
REMARK    5  A    between atoms: N_5  and  C_6
REMARK    6  A    between atoms: C_6  and  C_7
REMARK    7  A    between atoms: C_11  and  C_12
REMARK    8  A    between atoms: C_16  and  N_17
REMARK    9  A    between atoms: N_17  and  C_18
REMARK   10  A    between atoms: C_20  and  O_21
REMARK   11  A    between atoms: C_24  and  C_25
REMARK                            x       y       z     vdW  Elec       q    Type
REMARK                         _______ _______ _______ _____ _____    ______ ____
ROOT
ATOM      1  C   UNL     1      -0.035  10.153  20.687  0.00  0.00    +0.000 A 
ATOM      2  C   UNL     1       0.186   9.010  21.464  0.00  0.00    +0.000 A 
ATOM      3  C   UNL     1       1.041   7.999  21.019  0.00  0.00    +0.000 A 
ATOM      4  C   UNL     1       1.682   8.085  19.767  0.00  0.00    +0.000 A 
ATOM      5  C   UNL     1       2.544   7.079  19.256  0.00  0.00    +0.000 A 
ATOM      6  C   UNL     1       3.129   7.262  18.005  0.00  0.00    +0.000 A 
ATOM      7  C   UNL     1       2.859   8.426  17.316  0.00  0.00    +0.000 A 
ATOM      8  N   UNL     1       2.052   9.402  17.779  0.00  0.00    +0.000 NA
ATOM      9  C   UNL     1       1.475   9.234  18.979  0.00  0.00    +0.000 A 
ATOM     10  C   UNL     1       0.636  10.235  19.457  0.00  0.00    +0.000 A 
ENDROOT
BRANCH   1  15
ATOM     11  C   UNL     1      -1.628  12.223  20.430  0.00  0.00    +0.000 A 
ATOM     12  N   UNL     1      -2.404  13.079  21.213  0.00  0.00    +0.000 NA
ATOM     13  C   UNL     1      -2.311  12.738  22.474  0.00  0.00    +0.000 A 
ATOM     14  S   UNL     1      -1.281  11.427  22.823  0.00  0.00    +0.000 S 
ATOM     15  C   UNL     1      -0.932  11.237  21.137  0.00  0.00    +0.000 A 
BRANCH  11  16
ATOM     16  C   UNL     1      -1.702  12.443  18.944  0.00  0.00    +0.000 C 
BRANCH  16  17
ATOM     17  N   UNL     1      -2.967  11.951  18.386  0.00  0.00    +0.000 NA
ATOM     18  H   UNL     1      -3.701  12.117  19.072  0.00  0.00    +0.000 HD
BRANCH  17  19
ATOM     19  C   UNL     1      -2.903  10.512  18.098  0.00  0.00    +0.000 C 
BRANCH  19  20
ATOM     20  C   UNL     1      -2.068  10.233  16.846  0.00  0.00    +0.000 C 
BRANCH  20  22
ATOM     21  C   UNL     1      -3.198  10.280  14.780  0.00  0.00    +0.000 C 
ATOM     22  O   UNL     1      -2.557  11.053  15.782  0.00  0.00    +0.000 OA
ENDBRANCH  20  22
ENDBRANCH  19  20
ENDBRANCH  17  19
ENDBRANCH  16  17
ENDBRANCH  11  16
ENDBRANCH   1  15
BRANCH   5  23
ATOM     23  N   UNL     1       2.720   5.871  19.979  0.00  0.00    +0.000 N 
ATOM     24  H   UNL     1       2.361   5.981  20.923  0.00  0.00    +0.000 HD
BRANCH  23  25
ATOM     25  C   UNL     1       2.709   4.532  19.521  0.00  0.00    +0.000 A 
ATOM     26  C   UNL     1       1.492   3.863  19.305  0.00  0.00    +0.000 A 
ATOM     27  C   UNL     1       1.472   2.586  18.749  0.00  0.00    +0.000 A 
ATOM     28  C   UNL     1       2.649   1.947  18.394  0.00  0.00    +0.000 A 
ATOM     29  C   UNL     1       3.866   2.592  18.599  0.00  0.00    +0.000 A 
ATOM     30  C   UNL     1       3.912   3.883  19.159  0.00  0.00    +0.000 A 
ATOM     31  C   UNL     1       5.258   4.528  19.358  0.00  0.00    +0.000 C 
BRANCH  27  32
ATOM     32  O   UNL     1       0.300   1.929  18.517  0.00  0.00    +0.000 OA
ATOM     33  H   UNL     1       0.268   1.676  17.579  0.00  0.00    +0.000 HD
ENDBRANCH  27  32
ENDBRANCH  23  25
ENDBRANCH   5  23
TORSDOF 9
ENDMDL
MODEL 6
REMARK VINA RESULT:      -7.7      2.574      8.690
REMARK  Name = 
REMARK  11 active torsions:
REMARK  status: ('A' for Active; 'I' for Inactive)
REMARK    1  A    between atoms: C_1  and  O_2
REMARK    2  A    between atoms: O_2  and  C_3
REMARK    3  A    between atoms: C_3  and  C_4
REMARK    4  A    between atoms: C_4  and  N_5
REMARK    5  A    between atoms: N_5  and  C_6
REMARK    6  A    between atoms: C_6  and  C_7
REMARK    7  A    between atoms: C_11  and  C_12
REMARK    8  A    between atoms: C_16  and  N_17
REMARK    9  A    between atoms: N_17  and  C_18
REMARK   10  A    between atoms: C_20  and  O_21
REMARK   11  A    between atoms: C_24  and  C_25
REMARK                            x       y       z     vdW  Elec       q    Type
REMARK                         _______ _______ _______ _____ _____    ______ ____
ROOT
ATOM      1  C   UNL     1       1.267  10.114  18.942  0.00  0.00    +0.000 A 
ATOM      2  C   UNL     1       2.071   9.723  17.865  0.00  0.00    +0.000 A 
ATOM      3  C   UNL     1       2.600   8.431  17.801  0.00  0.00    +0.000 A 
ATOM      4  C   UNL     1       2.364   7.496  18.828  0.00  0.00    +0.000 A 
ATOM      5  C   UNL     1       2.892   6.177  18.825  0.00  0.00    +0.000 A 
ATOM      6  C   UNL     1       2.599   5.329  19.892  0.00  0.00    +0.000 A 
ATOM      7  C   UNL     1       1.790   5.801  20.905  0.00  0.00    +0.000 A 
ATOM      8  N   UNL     1       1.268   7.044  20.930  0.00  0.00    +0.000 NA
ATOM      9  C   UNL     1       1.550   7.873  19.914  0.00  0.00    +0.000 A 
ATOM     10  C   UNL     1       1.020   9.159  19.941  0.00  0.00    +0.000 A 
ENDROOT
BRANCH   1  15
ATOM     11  C   UNL     1      -0.614  11.943  18.881  0.00  0.00    +0.000 A 
ATOM     12  N   UNL     1      -0.774  13.318  19.055  0.00  0.00    +0.000 NA
ATOM     13  C   UNL     1       0.377  13.869  19.346  0.00  0.00    +0.000 A 
ATOM     14  S   UNL     1       1.719  12.822  19.391  0.00  0.00    +0.000 S 
ATOM     15  C   UNL     1       0.695  11.473  19.031  0.00  0.00    +0.000 A 
BRANCH  11  16
ATOM     16  C   UNL     1      -1.873  11.161  18.623  0.00  0.00    +0.000 C 
BRANCH  16  17
ATOM     17  N   UNL     1      -3.064  12.016  18.683  0.00  0.00    +0.000 NA
ATOM     18  H   UNL     1      -3.478  11.916  19.609  0.00  0.00    +0.000 HD
BRANCH  17  19
ATOM     19  C   UNL     1      -4.057  11.626  17.673  0.00  0.00    +0.000 C 
BRANCH  19  20
ATOM     20  C   UNL     1      -3.526  10.504  16.778  0.00  0.00    +0.000 C 
BRANCH  20  22
ATOM     21  C   UNL     1      -3.111  10.048  14.504  0.00  0.00    +0.000 C 
ATOM     22  O   UNL     1      -3.894  10.791  15.426  0.00  0.00    +0.000 OA
ENDBRANCH  20  22
ENDBRANCH  19  20
ENDBRANCH  17  19
ENDBRANCH  16  17
ENDBRANCH  11  16
ENDBRANCH   1  15
BRANCH   5  23
ATOM     23  N   UNL     1       3.781   5.778  17.793  0.00  0.00    +0.000 N 
ATOM     24  H   UNL     1       3.480   6.178  16.909  0.00  0.00    +0.000 HD
BRANCH  23  25
ATOM     25  C   UNL     1       5.168   5.505  17.848  0.00  0.00    +0.000 A 
ATOM     26  C   UNL     1       5.889   5.711  19.038  0.00  0.00    +0.000 A 
ATOM     27  C   UNL     1       7.227   5.339  19.130  0.00  0.00    +0.000 A 
ATOM     28  C   UNL     1       7.879   4.755  18.056  0.00  0.00    +0.000 A 
ATOM     29  C   UNL     1       7.184   4.542  16.869  0.00  0.00    +0.000 A 
ATOM     30  C   UNL     1       5.830   4.908  16.750  0.00  0.00    +0.000 A 
ATOM     31  C   UNL     1       5.132   4.654  15.441  0.00  0.00    +0.000 C 
BRANCH  27  32
ATOM     32  O   UNL     1       7.937   5.516  20.282  0.00  0.00    +0.000 OA
ATOM     33  H   UNL     1       7.311   5.637  21.015  0.00  0.00    +0.000 HD
ENDBRANCH  27  32
ENDBRANCH  23  25
ENDBRANCH   5  23
TORSDOF 9
ENDMDL
MODEL 7
REMARK VINA RESULT:      -7.7      1.203      1.425
REMARK  Name = 
REMARK  11 active torsions:
REMARK  status: ('A' for Active; 'I' for Inactive)
REMARK    1  A    between atoms: C_1  and  O_2
REMARK    2  A    between atoms: O_2  and  C_3
REMARK    3  A    between atoms: C_3  and  C_4
REMARK    4  A    between atoms: C_4  and  N_5
REMARK    5  A    between atoms: N_5  and  C_6
REMARK    6  A    between atoms: C_6  and  C_7
REMARK    7  A    between atoms: C_11  and  C_12
REMARK    8  A    between atoms: C_16  and  N_17
REMARK    9  A    between atoms: N_17  and  C_18
REMARK   10  A    between atoms: C_20  and  O_21
REMARK   11  A    between atoms: C_24  and  C_25
REMARK                            x       y       z     vdW  Elec       q    Type
REMARK                         _______ _______ _______ _____ _____    ______ ____
ROOT
ATOM      1  C   UNL     1       3.388   7.115  18.084  0.00  0.00    +0.000 A 
ATOM      2  C   UNL     1       2.956   8.220  17.341  0.00  0.00    +0.000 A 
ATOM      3  C   UNL     1       1.990   9.091  17.852  0.00  0.00    +0.000 A 
ATOM      4  C   UNL     1       1.404   8.868  19.115  0.00  0.00    +0.000 A 
ATOM      5  C   UNL     1       0.405   9.708  19.675  0.00  0.00    +0.000 A 
ATOM      6  C   UNL     1      -0.110   9.399  20.932  0.00  0.00    +0.000 A 
ATOM      7  C   UNL     1       0.385   8.293  21.593  0.00  0.00    +0.000 A 
ATOM      8  N   UNL     1       1.339   7.484  21.091  0.00  0.00    +0.000 NA
ATOM      9  C   UNL     1       1.837   7.764  19.876  0.00  0.00    +0.000 A 
ATOM     10  C   UNL     1       2.815   6.927  19.350  0.00  0.00    +0.000 A 
ENDROOT
BRANCH   1  15
ATOM     11  C   UNL     1       4.985   5.031  18.115  0.00  0.00    +0.000 A 
ATOM     12  N   UNL     1       5.923   4.392  17.305  0.00  0.00    +0.000 NA
ATOM     13  C   UNL     1       6.041   5.030  16.168  0.00  0.00    +0.000 A 
ATOM     14  S   UNL     1       5.095   6.436  15.995  0.00  0.00    +0.000 S 
ATOM     15  C   UNL     1       4.409   6.182  17.564  0.00  0.00    +0.000 A 
BRANCH  11  16
ATOM     16  C   UNL     1       4.682   4.362  19.427  0.00  0.00    +0.000 C 
BRANCH  16  17
ATOM     17  N   UNL     1       5.046   2.940  19.406  0.00  0.00    +0.000 NA
ATOM     18  H   UNL     1       5.236   2.677  18.440  0.00  0.00    +0.000 HD
BRANCH  17  19
ATOM     19  C   UNL     1       3.957   2.100  19.922  0.00  0.00    +0.000 C 
BRANCH  19  20
ATOM     20  C   UNL     1       3.036   2.894  20.852  0.00  0.00    +0.000 C 
BRANCH  20  22
ATOM     21  C   UNL     1       0.982   3.642  19.974  0.00  0.00    +0.000 C 
ATOM     22  O   UNL     1       1.681   2.550  20.551  0.00  0.00    +0.000 OA
ENDBRANCH  20  22
ENDBRANCH  19  20
ENDBRANCH  17  19
ENDBRANCH  16  17
ENDBRANCH  11  16
ENDBRANCH   1  15
BRANCH   5  23
ATOM     23  N   UNL     1      -0.117  10.784  18.912  0.00  0.00    +0.000 N 
ATOM     24  H   UNL     1       0.639  11.258  18.427  0.00  0.00    +0.000 HD
BRANCH  23  25
ATOM     25  C   UNL     1      -1.371  10.914  18.272  0.00  0.00    +0.000 A 
ATOM     26  C   UNL     1      -1.647  10.201  17.092  0.00  0.00    +0.000 A 
ATOM     27  C   UNL     1      -2.916  10.239  16.519  0.00  0.00    +0.000 A 
ATOM     28  C   UNL     1      -3.936  10.976  17.099  0.00  0.00    +0.000 A 
ATOM     29  C   UNL     1      -3.685  11.689  18.268  0.00  0.00    +0.000 A 
ATOM     30  C   UNL     1      -2.411  11.666  18.867  0.00  0.00    +0.000 A 
ATOM     31  C   UNL     1      -2.200  12.459  20.129  0.00  0.00    +0.000 C 
BRANCH  27  32
ATOM     32  O   UNL     1      -3.205   9.540  15.384  0.00  0.00    +0.000 OA
ATOM     33  H   UNL     1      -4.170   9.455  15.311  0.00  0.00    +0.000 HD
ENDBRANCH  27  32
ENDBRANCH  23  25
ENDBRANCH   5  23
TORSDOF 9
ENDMDL
MODEL 8
REMARK VINA RESULT:      -7.6      2.140      3.240
REMARK  Name = 
REMARK  11 active torsions:
REMARK  status: ('A' for Active; 'I' for Inactive)
REMARK    1  A    between atoms: C_1  and  O_2
REMARK    2  A    between atoms: O_2  and  C_3
REMARK    3  A    between atoms: C_3  and  C_4
REMARK    4  A    between atoms: C_4  and  N_5
REMARK    5  A    between atoms: N_5  and  C_6
REMARK    6  A    between atoms: C_6  and  C_7
REMARK    7  A    between atoms: C_11  and  C_12
REMARK    8  A    between atoms: C_16  and  N_17
REMARK    9  A    between atoms: N_17  and  C_18
REMARK   10  A    between atoms: C_20  and  O_21
REMARK   11  A    between atoms: C_24  and  C_25
REMARK                            x       y       z     vdW  Elec       q    Type
REMARK                         _______ _______ _______ _____ _____    ______ ____
ROOT
ATOM      1  C   UNL     1       2.341   6.563  18.755  0.00  0.00    +0.000 A 
ATOM      2  C   UNL     1       1.921   7.461  17.768  0.00  0.00    +0.000 A 
ATOM      3  C   UNL     1       1.330   8.679  18.115  0.00  0.00    +0.000 A 
ATOM      4  C   UNL     1       1.115   9.026  19.463  0.00  0.00    +0.000 A 
ATOM      5  C   UNL     1       0.502  10.239  19.873  0.00  0.00    +0.000 A 
ATOM      6  C   UNL     1       0.335  10.486  21.235  0.00  0.00    +0.000 A 
ATOM      7  C   UNL     1       0.789   9.545  22.135  0.00  0.00    +0.000 A 
ATOM      8  N   UNL     1       1.383   8.389  21.776  0.00  0.00    +0.000 NA
ATOM      9  C   UNL     1       1.541   8.134  20.468  0.00  0.00    +0.000 A 
ATOM     10  C   UNL     1       2.145   6.939  20.093  0.00  0.00    +0.000 A 
ENDROOT
BRANCH   1  15
ATOM     11  C   UNL     1       4.275   4.796  18.585  0.00  0.00    +0.000 A 
ATOM     12  N   UNL     1       4.496   3.492  18.142  0.00  0.00    +0.000 NA
ATOM     13  C   UNL     1       3.385   2.988  17.665  0.00  0.00    +0.000 A 
ATOM     14  S   UNL     1       2.031   4.022  17.667  0.00  0.00    +0.000 S 
ATOM     15  C   UNL     1       2.970   5.271  18.412  0.00  0.00    +0.000 A 
BRANCH  11  16
ATOM     16  C   UNL     1       5.447   5.477  19.238  0.00  0.00    +0.000 C 
BRANCH  16  17
ATOM     17  N   UNL     1       6.673   4.679  19.116  0.00  0.00    +0.000 NA
ATOM     18  H   UNL     1       7.034   4.509  20.053  0.00  0.00    +0.000 HD
BRANCH  17  19
ATOM     19  C   UNL     1       7.697   5.385  18.333  0.00  0.00    +0.000 C 
BRANCH  19  20
ATOM     20  C   UNL     1       7.168   5.775  16.951  0.00  0.00    +0.000 C 
BRANCH  20  22
ATOM     21  C   UNL     1       7.796   7.918  17.699  0.00  0.00    +0.000 C 
ATOM     22  O   UNL     1       7.732   7.037  16.588  0.00  0.00    +0.000 OA
ENDBRANCH  20  22
ENDBRANCH  19  20
ENDBRANCH  17  19
ENDBRANCH  16  17
ENDBRANCH  11  16
ENDBRANCH   1  15
BRANCH   5  23
ATOM     23  N   UNL     1      -0.014  11.131  18.897  0.00  0.00    +0.000 N 
ATOM     24  H   UNL     1       0.733  11.428  18.277  0.00  0.00    +0.000 HD
BRANCH  23  25
ATOM     25  C   UNL     1      -1.297  11.178  18.303  0.00  0.00    +0.000 A 
ATOM     26  C   UNL     1      -1.599  10.372  17.192  0.00  0.00    +0.000 A 
ATOM     27  C   UNL     1      -2.890  10.332  16.672  0.00  0.00    +0.000 A 
ATOM     28  C   UNL     1      -3.908  11.082  17.240  0.00  0.00    +0.000 A 
ATOM     29  C   UNL     1      -3.631  11.887  18.341  0.00  0.00    +0.000 A 
ATOM     30  C   UNL     1      -2.334  11.944  18.885  0.00  0.00    +0.000 A 
ATOM     31  C   UNL     1      -2.096  12.835  20.075  0.00  0.00    +0.000 C 
BRANCH  27  32
ATOM     32  O   UNL     1      -3.204   9.542  15.605  0.00  0.00    +0.000 OA
ATOM     33  H   UNL     1      -4.169   9.548  15.490  0.00  0.00    +0.000 HD
ENDBRANCH  27  32
ENDBRANCH  23  25
ENDBRANCH   5  23
TORSDOF 9
ENDMDL
MODEL 9
REMARK VINA RESULT:      -7.5      3.636      4.771
REMARK  Name = 
REMARK  11 active torsions:
REMARK  status: ('A' for Active; 'I' for Inactive)
REMARK    1  A    between atoms: C_1  and  O_2
REMARK    2  A    between atoms: O_2  and  C_3
REMARK    3  A    between atoms: C_3  and  C_4
REMARK    4  A    between atoms: C_4  and  N_5
REMARK    5  A    between atoms: N_5  and  C_6
REMARK    6  A    between atoms: C_6  and  C_7
REMARK    7  A    between atoms: C_11  and  C_12
REMARK    8  A    between atoms: C_16  and  N_17
REMARK    9  A    between atoms: N_17  and  C_18
REMARK   10  A    between atoms: C_20  and  O_21
REMARK   11  A    between atoms: C_24  and  C_25
REMARK                            x       y       z     vdW  Elec       q    Type
REMARK                         _______ _______ _______ _____ _____    ______ ____
ROOT
ATOM      1  C   UNL     1       2.460   6.503  18.736  0.00  0.00    +0.000 A 
ATOM      2  C   UNL     1       2.426   7.491  17.746  0.00  0.00    +0.000 A 
ATOM      3  C   UNL     1       1.982   8.783  18.041  0.00  0.00    +0.000 A 
ATOM      4  C   UNL     1       1.529   9.119  19.332  0.00  0.00    +0.000 A 
ATOM      5  C   UNL     1       1.047  10.409  19.684  0.00  0.00    +0.000 A 
ATOM      6  C   UNL     1       0.622  10.638  20.991  0.00  0.00    +0.000 A 
ATOM      7  C   UNL     1       0.701   9.604  21.900  0.00  0.00    +0.000 A 
ATOM      8  N   UNL     1       1.162   8.373  21.598  0.00  0.00    +0.000 NA
ATOM      9  C   UNL     1       1.565   8.136  20.341  0.00  0.00    +0.000 A 
ATOM     10  C   UNL     1       2.034   6.865  20.023  0.00  0.00    +0.000 A 
ENDROOT
BRANCH   1  15
ATOM     11  C   UNL     1       4.199   4.549  18.516  0.00  0.00    +0.000 A 
ATOM     12  N   UNL     1       4.250   3.196  18.176  0.00  0.00    +0.000 NA
ATOM     13  C   UNL     1       3.051   2.765  17.878  0.00  0.00    +0.000 A 
ATOM     14  S   UNL     1       1.802   3.921  17.935  0.00  0.00    +0.000 S 
ATOM     15  C   UNL     1       2.929   5.131  18.448  0.00  0.00    +0.000 A 
BRANCH  11  16
ATOM     16  C   UNL     1       5.496   5.165  18.965  0.00  0.00    +0.000 C 
BRANCH  16  17
ATOM     17  N   UNL     1       6.108   5.972  17.902  0.00  0.00    +0.000 NA
ATOM     18  H   UNL     1       6.176   5.394  17.066  0.00  0.00    +0.000 HD
BRANCH  17  19
ATOM     19  C   UNL     1       7.454   6.424  18.280  0.00  0.00    +0.000 C 
BRANCH  19  20
ATOM     20  C   UNL     1       7.780   7.781  17.652  0.00  0.00    +0.000 C 
BRANCH  20  22
ATOM     21  C   UNL     1       8.594   9.906  18.262  0.00  0.00    +0.000 C 
ATOM     22  O   UNL     1       8.593   8.521  18.568  0.00  0.00    +0.000 OA
ENDBRANCH  20  22
ENDBRANCH  19  20
ENDBRANCH  17  19
ENDBRANCH  16  17
ENDBRANCH  11  16
ENDBRANCH   1  15
BRANCH   5  23
ATOM     23  N   UNL     1       0.918  11.407  18.684  0.00  0.00    +0.000 N 
ATOM     24  H   UNL     1       0.029  11.299  18.205  0.00  0.00    +0.000 HD
BRANCH  23  25
ATOM     25  C   UNL     1       1.421  12.729  18.654  0.00  0.00    +0.000 A 
ATOM     26  C   UNL     1       2.732  12.984  18.215  0.00  0.00    +0.000 A 
ATOM     27  C   UNL     1       3.194  14.290  18.078  0.00  0.00    +0.000 A 
ATOM     28  C   UNL     1       2.373  15.368  18.367  0.00  0.00    +0.000 A 
ATOM     29  C   UNL     1       1.071  15.139  18.804  0.00  0.00    +0.000 A 
ATOM     30  C   UNL     1       0.581  13.828  18.950  0.00  0.00    +0.000 A 
ATOM     31  C   UNL     1      -0.835  13.643  19.427  0.00  0.00    +0.000 C 
BRANCH  27  32
ATOM     32  O   UNL     1       4.457  14.556  17.636  0.00  0.00    +0.000 OA
ATOM     33  H   UNL     1       4.446  14.579  16.665  0.00  0.00    +0.000 HD
ENDBRANCH  27  32
ENDBRANCH  23  25
ENDBRANCH   5  23
TORSDOF 9
ENDMDL
