MODEL 1
REMARK VINA RESULT:      -5.7      0.000      0.000
REMARK  Name = 
REMARK  3 active torsions:
REMARK  status: ('A' for Active; 'I' for Inactive)
REMARK    1  A    between atoms: C_1  and  C_2
REMARK    2  A    between atoms: C_2  and  C_3
REMARK    3  A    between atoms: C_5  and  O_6
REMARK                            x       y       z     vdW  Elec       q    Type
REMARK                         _______ _______ _______ _____ _____    ______ ____
ROOT
ATOM      1  C   UNL     1       6.588   4.880  15.139  0.00  0.00    +0.000 A 
ATOM      2  N   UNL     1       7.611   4.470  15.920  0.00  0.00    +0.000 NA
ATOM      3  C   UNL     1       7.419   4.489  17.243  0.00  0.00    +0.000 A 
ATOM      4  C   UNL     1       6.212   4.884  17.810  0.00  0.00    +0.000 A 
ATOM      5  C   UNL     1       5.718   4.967  19.152  0.00  0.00    +0.000 A 
ATOM      6  C   UNL     1       4.413   5.418  19.200  0.00  0.00    +0.000 A 
ATOM      7  S   UNL     1       3.797   5.761  17.640  0.00  0.00    +0.000 S 
ATOM      8  C   UNL     1       5.256   5.289  16.898  0.00  0.00    +0.000 A 
ATOM      9  N   UNL     1       5.390   5.315  15.563  0.00  0.00    +0.000 NA
ENDROOT
BRANCH   1  11
ATOM     10  C   UNL     1       6.000   3.641  13.045  0.00  0.00    +0.000 C 
ATOM     11  C   UNL     1       6.775   4.805  13.645  0.00  0.00    +0.000 C 
ENDBRANCH   1  11
BRANCH   3  12
ATOM     12  O   UNL     1       8.484   4.077  17.990  0.00  0.00    +0.000 OA
ATOM     13  H   UNL     1       9.158   3.964  17.296  0.00  0.00    +0.000 HD
ENDBRANCH   3  12
TORSDOF 2
ENDMDL
MODEL 2
REMARK VINA RESULT:      -5.5      3.456      4.343
REMARK  Name = 
REMARK  3 active torsions:
REMARK  status: ('A' for Active; 'I' for Inactive)
REMARK    1  A    between atoms: C_1  and  C_2
REMARK    2  A    between atoms: C_2  and  C_3
REMARK    3  A    between atoms: C_5  and  O_6
REMARK                            x       y       z     vdW  Elec       q    Type
REMARK                         _______ _______ _______ _____ _____    ______ ____
ROOT
ATOM      1  C   UNL     1       5.186   5.032  19.032  0.00  0.00    +0.000 A 
ATOM      2  N   UNL     1       5.537   3.733  19.150  0.00  0.00    +0.000 NA
ATOM      3  C   UNL     1       4.640   2.902  19.692  0.00  0.00    +0.000 A 
ATOM      4  C   UNL     1       3.382   3.334  20.097  0.00  0.00    +0.000 A 
ATOM      5  C   UNL     1       2.234   2.685  20.657  0.00  0.00    +0.000 A 
ATOM      6  C   UNL     1       1.193   3.565  20.879  0.00  0.00    +0.000 A 
ATOM      7  S   UNL     1       1.605   5.167  20.437  0.00  0.00    +0.000 S 
ATOM      8  C   UNL     1       3.159   4.687  19.929  0.00  0.00    +0.000 A 
ATOM      9  N   UNL     1       4.020   5.578  19.413  0.00  0.00    +0.000 NA
ENDROOT
BRANCH   1  11
ATOM     10  C   UNL     1       7.604   5.512  18.592  0.00  0.00    +0.000 C 
ATOM     11  C   UNL     1       6.168   5.963  18.367  0.00  0.00    +0.000 C 
ENDBRANCH   1  11
BRANCH   3  12
ATOM     12  O   UNL     1       5.043   1.603  19.802  0.00  0.00    +0.000 OA
ATOM     13  H   UNL     1       4.455   1.291  20.514  0.00  0.00    +0.000 HD
ENDBRANCH   3  12
TORSDOF 2
ENDMDL
MODEL 3
REMARK VINA RESULT:      -5.5      2.638      3.670
REMARK  Name = 
REMARK  3 active torsions:
REMARK  status: ('A' for Active; 'I' for Inactive)
REMARK    1  A    between atoms: C_1  and  C_2
REMARK    2  A    between atoms: C_2  and  C_3
REMARK    3  A    between atoms: C_5  and  O_6
REMARK                            x       y       z     vdW  Elec       q    Type
REMARK                         _______ _______ _______ _____ _____    ______ ____
ROOT
ATOM      1  C   UNL     1       7.368   6.480  17.892  0.00  0.00    +0.000 A 
ATOM      2  N   UNL     1       7.353   6.381  16.545  0.00  0.00    +0.000 NA
ATOM      3  C   UNL     1       6.508   5.497  16.005  0.00  0.00    +0.000 A 
ATOM      4  C   UNL     1       5.653   4.722  16.780  0.00  0.00    +0.000 A 
ATOM      5  C   UNL     1       4.643   3.749  16.486  0.00  0.00    +0.000 A 
ATOM      6  C   UNL     1       4.044   3.257  17.629  0.00  0.00    +0.000 A 
ATOM      7  S   UNL     1       4.711   3.945  19.048  0.00  0.00    +0.000 S 
ATOM      8  C   UNL     1       5.780   4.915  18.142  0.00  0.00    +0.000 A 
ATOM      9  N   UNL     1       6.620   5.768  18.750  0.00  0.00    +0.000 NA
ENDROOT
BRANCH   1  11
ATOM     10  C   UNL     1       8.080   8.880  17.859  0.00  0.00    +0.000 C 
ATOM     11  C   UNL     1       8.274   7.517  18.506  0.00  0.00    +0.000 C 
ENDBRANCH   1  11
BRANCH   3  12
ATOM     12  O   UNL     1       6.536   5.424  14.642  0.00  0.00    +0.000 OA
ATOM     13  H   UNL     1       6.553   6.371  14.412  0.00  0.00    +0.000 HD
ENDBRANCH   3  12
TORSDOF 2
ENDMDL
MODEL 4
REMARK VINA RESULT:      -5.5      1.322      1.327
REMARK  Name = 
REMARK  3 active torsions:
REMARK  status: ('A' for Active; 'I' for Inactive)
REMARK    1  A    between atoms: C_1  and  C_2
REMARK    2  A    between atoms: C_2  and  C_3
REMARK    3  A    between atoms: C_5  and  O_6
REMARK                            x       y       z     vdW  Elec       q    Type
REMARK                         _______ _______ _______ _____ _____    ______ ____
ROOT
ATOM      1  C   UNL     1       6.672   4.916  15.309  0.00  0.00    +0.000 A 
ATOM      2  N   UNL     1       7.407   5.777  16.045  0.00  0.00    +0.000 NA
ATOM      3  C   UNL     1       7.073   5.925  17.332  0.00  0.00    +0.000 A 
ATOM      4  C   UNL     1       6.032   5.208  17.912  0.00  0.00    +0.000 A 
ATOM      5  C   UNL     1       5.487   5.131  19.235  0.00  0.00    +0.000 A 
ATOM      6  C   UNL     1       4.436   4.238  19.315  0.00  0.00    +0.000 A 
ATOM      7  S   UNL     1       4.095   3.515  17.801  0.00  0.00    +0.000 S 
ATOM      8  C   UNL     1       5.358   4.372  17.043  0.00  0.00    +0.000 A 
ATOM      9  N   UNL     1       5.626   4.193  15.741  0.00  0.00    +0.000 NA
ENDROOT
BRANCH   1  11
ATOM     10  C   UNL     1       6.151   3.720  13.172  0.00  0.00    +0.000 C 
ATOM     11  C   UNL     1       7.081   4.699  13.874  0.00  0.00    +0.000 C 
ENDBRANCH   1  11
BRANCH   3  12
ATOM     12  O   UNL     1       7.835   6.813  18.032  0.00  0.00    +0.000 OA
ATOM     13  H   UNL     1       8.334   7.233  17.307  0.00  0.00    +0.000 HD
ENDBRANCH   3  12
TORSDOF 2
ENDMDL
MODEL 5
REMARK VINA RESULT:      -5.4      3.234      5.283
REMARK  Name = 
REMARK  3 active torsions:
REMARK  status: ('A' for Active; 'I' for Inactive)
REMARK    1  A    between atoms: C_1  and  C_2
REMARK    2  A    between atoms: C_2  and  C_3
REMARK    3  A    between atoms: C_5  and  O_6
REMARK                            x       y       z     vdW  Elec       q    Type
REMARK                         _______ _______ _______ _____ _____    ______ ____
ROOT
ATOM      1  C   UNL     1       2.548   4.059  19.653  0.00  0.00    +0.000 A 
ATOM      2  N   UNL     1       2.921   2.829  19.239  0.00  0.00    +0.000 NA
ATOM      3  C   UNL     1       3.744   2.760  18.186  0.00  0.00    +0.000 A 
ATOM      4  C   UNL     1       4.228   3.897  17.550  0.00  0.00    +0.000 A 
ATOM      5  C   UNL     1       5.126   4.126  16.457  0.00  0.00    +0.000 A 
ATOM      6  C   UNL     1       5.306   5.471  16.202  0.00  0.00    +0.000 A 
ATOM      7  S   UNL     1       4.381   6.451  17.258  0.00  0.00    +0.000 S 
ATOM      8  C   UNL     1       3.758   5.088  18.069  0.00  0.00    +0.000 A 
ATOM      9  N   UNL     1       2.917   5.229  19.106  0.00  0.00    +0.000 NA
ENDROOT
BRANCH   1  11
ATOM     10  C   UNL     1       1.538   2.799  21.566  0.00  0.00    +0.000 C 
ATOM     11  C   UNL     1       1.670   4.148  20.875  0.00  0.00    +0.000 C 
ENDBRANCH   1  11
BRANCH   3  12
ATOM     12  O   UNL     1       4.084   1.497  17.797  0.00  0.00    +0.000 OA
ATOM     13  H   UNL     1       3.292   1.247  17.286  0.00  0.00    +0.000 HD
ENDBRANCH   3  12
TORSDOF 2
ENDMDL
MODEL 6
REMARK VINA RESULT:      -5.4      2.725      4.037
REMARK  Name = 
REMARK  3 active torsions:
REMARK  status: ('A' for Active; 'I' for Inactive)
REMARK    1  A    between atoms: C_1  and  C_2
REMARK    2  A    between atoms: C_2  and  C_3
REMARK    3  A    between atoms: C_5  and  O_6
REMARK                            x       y       z     vdW  Elec       q    Type
REMARK                         _______ _______ _______ _____ _____    ______ ____
ROOT
ATOM      1  C   UNL     1       7.508   6.521  17.893  0.00  0.00    +0.000 A 
ATOM      2  N   UNL     1       6.881   5.633  18.694  0.00  0.00    +0.000 NA
ATOM      3  C   UNL     1       6.257   4.608  18.103  0.00  0.00    +0.000 A 
ATOM      4  C   UNL     1       6.266   4.433  16.724  0.00  0.00    +0.000 A 
ATOM      5  C   UNL     1       5.734   3.439  15.839  0.00  0.00    +0.000 A 
ATOM      6  C   UNL     1       6.028   3.707  14.517  0.00  0.00    +0.000 A 
ATOM      7  S   UNL     1       6.919   5.159  14.341  0.00  0.00    +0.000 S 
ATOM      8  C   UNL     1       6.934   5.419  16.025  0.00  0.00    +0.000 A 
ATOM      9  N   UNL     1       7.562   6.482  16.551  0.00  0.00    +0.000 NA
ENDROOT
BRANCH   1  11
ATOM     10  C   UNL     1       8.054   8.964  17.824  0.00  0.00    +0.000 C 
ATOM     11  C   UNL     1       8.265   7.645  18.554  0.00  0.00    +0.000 C 
ENDBRANCH   1  11
BRANCH   3  12
ATOM     12  O   UNL     1       5.628   3.744  18.952  0.00  0.00    +0.000 OA
ATOM     13  H   UNL     1       5.744   4.209  19.801  0.00  0.00    +0.000 HD
ENDBRANCH   3  12
TORSDOF 2
ENDMDL
MODEL 7
REMARK VINA RESULT:      -5.4      2.737      3.778
REMARK  Name = 
REMARK  3 active torsions:
REMARK  status: ('A' for Active; 'I' for Inactive)
REMARK    1  A    between atoms: C_1  and  C_2
REMARK    2  A    between atoms: C_2  and  C_3
REMARK    3  A    between atoms: C_5  and  O_6
REMARK                            x       y       z     vdW  Elec       q    Type
REMARK                         _______ _______ _______ _____ _____    ______ ____
ROOT
ATOM      1  C   UNL     1       6.588   4.957  18.338  0.00  0.00    +0.000 A 
ATOM      2  N   UNL     1       6.379   4.906  17.005  0.00  0.00    +0.000 NA
ATOM      3  C   UNL     1       5.289   4.258  16.579  0.00  0.00    +0.000 A 
ATOM      4  C   UNL     1       4.382   3.679  17.458  0.00  0.00    +0.000 A 
ATOM      5  C   UNL     1       3.144   2.975  17.298  0.00  0.00    +0.000 A 
ATOM      6  C   UNL     1       2.597   2.601  18.510  0.00  0.00    +0.000 A 
ATOM      7  S   UNL     1       3.580   3.073  19.829  0.00  0.00    +0.000 S 
ATOM      8  C   UNL     1       4.723   3.796  18.792  0.00  0.00    +0.000 A 
ATOM      9  N   UNL     1       5.808   4.412  19.286  0.00  0.00    +0.000 NA
ENDROOT
BRANCH   1  11
ATOM     10  C   UNL     1       7.858   7.109  18.175  0.00  0.00    +0.000 C 
ATOM     11  C   UNL     1       7.780   5.737  18.830  0.00  0.00    +0.000 C 
ENDBRANCH   1  11
BRANCH   3  12
ATOM     12  O   UNL     1       5.128   4.223  15.224  0.00  0.00    +0.000 OA
ATOM     13  H   UNL     1       4.156   4.258  15.157  0.00  0.00    +0.000 HD
ENDBRANCH   3  12
TORSDOF 2
ENDMDL
MODEL 8
REMARK VINA RESULT:      -5.4      3.058      4.043
REMARK  Name = 
REMARK  3 active torsions:
REMARK  status: ('A' for Active; 'I' for Inactive)
REMARK    1  A    between atoms: C_1  and  C_2
REMARK    2  A    between atoms: C_2  and  C_3
REMARK    3  A    between atoms: C_5  and  O_6
REMARK                            x       y       z     vdW  Elec       q    Type
REMARK                         _______ _______ _______ _____ _____    ______ ____
ROOT
ATOM      1  C   UNL     1       5.255   4.625  18.532  0.00  0.00    +0.000 A 
ATOM      2  N   UNL     1       5.560   3.631  19.394  0.00  0.00    +0.000 NA
ATOM      3  C   UNL     1       4.572   2.804  19.752  0.00  0.00    +0.000 A 
ATOM      4  C   UNL     1       3.283   2.931  19.246  0.00  0.00    +0.000 A 
ATOM      5  C   UNL     1       2.066   2.192  19.413  0.00  0.00    +0.000 A 
ATOM      6  C   UNL     1       1.030   2.718  18.667  0.00  0.00    +0.000 A 
ATOM      7  S   UNL     1       1.514   4.107  17.791  0.00  0.00    +0.000 S 
ATOM      8  C   UNL     1       3.107   3.995  18.384  0.00  0.00    +0.000 A 
ATOM      9  N   UNL     1       4.048   4.873  18.000  0.00  0.00    +0.000 NA
ENDROOT
BRANCH   1  11
ATOM     10  C   UNL     1       7.583   4.718  17.614  0.00  0.00    +0.000 C 
ATOM     11  C   UNL     1       6.377   5.523  18.077  0.00  0.00    +0.000 C 
ENDBRANCH   1  11
BRANCH   3  12
ATOM     12  O   UNL     1       4.925   1.824  20.632  0.00  0.00    +0.000 OA
ATOM     13  H   UNL     1       5.622   1.368  20.126  0.00  0.00    +0.000 HD
ENDBRANCH   3  12
TORSDOF 2
ENDMDL
MODEL 9
REMARK VINA RESULT:      -5.3      1.795      1.998
REMARK  Name = 
REMARK  3 active torsions:
REMARK  status: ('A' for Active; 'I' for Inactive)
REMARK    1  A    between atoms: C_1  and  C_2
REMARK    2  A    between atoms: C_2  and  C_3
REMARK    3  A    between atoms: C_5  and  O_6
REMARK                            x       y       z     vdW  Elec       q    Type
REMARK                         _______ _______ _______ _____ _____    ______ ____
ROOT
ATOM      1  C   UNL     1       6.120   4.531  16.329  0.00  0.00    +0.000 A 
ATOM      2  N   UNL     1       6.723   4.891  17.481  0.00  0.00    +0.000 NA
ATOM      3  C   UNL     1       6.019   4.757  18.611  0.00  0.00    +0.000 A 
ATOM      4  C   UNL     1       4.727   4.244  18.620  0.00  0.00    +0.000 A 
ATOM      5  C   UNL     1       3.773   3.958  19.649  0.00  0.00    +0.000 A 
ATOM      6  C   UNL     1       2.602   3.429  19.143  0.00  0.00    +0.000 A 
ATOM      7  S   UNL     1       2.644   3.300  17.436  0.00  0.00    +0.000 S 
ATOM      8  C   UNL     1       4.228   3.926  17.372  0.00  0.00    +0.000 A 
ATOM      9  N   UNL     1       4.870   4.055  16.200  0.00  0.00    +0.000 NA
ENDROOT
BRANCH   1  11
ATOM     10  C   UNL     1       6.208   3.961  13.892  0.00  0.00    +0.000 C 
ATOM     11  C   UNL     1       6.928   4.621  15.059  0.00  0.00    +0.000 C 
ENDBRANCH   1  11
BRANCH   3  12
ATOM     12  O   UNL     1       6.666   5.145  19.748  0.00  0.00    +0.000 OA
ATOM     13  H   UNL     1       7.573   4.847  19.550  0.00  0.00    +0.000 HD
ENDBRANCH   3  12
TORSDOF 2
ENDMDL
