MODEL 1
REMARK VINA RESULT:      -7.1      0.000      0.000
REMARK  Name = 
REMARK  6 active torsions:
REMARK  status: ('A' for Active; 'I' for Inactive)
REMARK    1  A    between atoms: C_1  and  C_2
REMARK    2  A    between atoms: C_5  and  C_6
REMARK    3  A    between atoms: C_6  and  O_7
REMARK    4  A    between atoms: O_7  and  C_8
REMARK    5  A    between atoms: C_13  and  C_14
REMARK    6  A    between atoms: C_15  and  C_16
REMARK                            x       y       z     vdW  Elec       q    Type
REMARK                         _______ _______ _______ _____ _____    ______ ____
ROOT
ATOM      1  C   UNL     1       2.315   3.408  18.400  0.00  0.00    +0.000 A 
ATOM      2  C   UNL     1       2.087   2.278  19.200  0.00  0.00    +0.000 A 
ATOM      3  C   UNL     1       1.545   2.402  20.478  0.00  0.00    +0.000 A 
ATOM      4  C   UNL     1       1.253   3.660  20.985  0.00  0.00    +0.000 A 
ATOM      5  C   UNL     1       1.508   4.796  20.212  0.00  0.00    +0.000 A 
ATOM      6  C   UNL     1       2.050   4.693  18.917  0.00  0.00    +0.000 A 
ENDROOT
BRANCH   6   7
ATOM      7  C   UNL     1       2.189   5.955  18.160  0.00  0.00    +0.000 C 
ATOM      8  C   UNL     1       2.742   7.083  18.630  0.00  0.00    +0.000 C 
BRANCH   8   9
ATOM      9  C   UNL     1       2.871   8.259  17.748  0.00  0.00    +0.000 C 
ATOM     10  O   UNL     1       1.903   8.943  17.446  0.00  0.00    +0.000 OA
ENDBRANCH   8   9
ENDBRANCH   6   7
BRANCH   1  11
ATOM     11  O   UNL     1       2.824   3.310  17.126  0.00  0.00    +0.000 OA
BRANCH  11  12
ATOM     12  C   UNL     1       4.213   2.976  17.055  0.00  0.00    +0.000 C 
BRANCH  12  17
ATOM     13  C   UNL     1       7.499   7.757  17.596  0.00  0.00    +0.000 C 
ATOM     14  C   UNL     1       6.667   6.519  17.456  0.00  0.00    +0.000 A 
ATOM     15  C   UNL     1       5.951   6.268  16.282  0.00  0.00    +0.000 A 
ATOM     16  C   UNL     1       5.172   5.117  16.168  0.00  0.00    +0.000 A 
ATOM     17  C   UNL     1       5.100   4.189  17.219  0.00  0.00    +0.000 A 
ATOM     18  C   UNL     1       5.808   4.449  18.397  0.00  0.00    +0.000 A 
ATOM     19  C   UNL     1       6.590   5.601  18.510  0.00  0.00    +0.000 A 
ENDBRANCH  12  17
ENDBRANCH  11  12
ENDBRANCH   1  11
TORSDOF 5
ENDMDL
MODEL 2
REMARK VINA RESULT:      -6.5      2.205      5.937
REMARK  Name = 
REMARK  6 active torsions:
REMARK  status: ('A' for Active; 'I' for Inactive)
REMARK    1  A    between atoms: C_1  and  C_2
REMARK    2  A    between atoms: C_5  and  C_6
REMARK    3  A    between atoms: C_6  and  O_7
REMARK    4  A    between atoms: O_7  and  C_8
REMARK    5  A    between atoms: C_13  and  C_14
REMARK    6  A    between atoms: C_15  and  C_16
REMARK                            x       y       z     vdW  Elec       q    Type
REMARK                         _______ _______ _______ _____ _____    ______ ____
ROOT
ATOM      1  C   UNL     1       5.484   6.021  16.916  0.00  0.00    +0.000 A 
ATOM      2  C   UNL     1       6.069   6.265  18.169  0.00  0.00    +0.000 A 
ATOM      3  C   UNL     1       7.232   5.603  18.558  0.00  0.00    +0.000 A 
ATOM      4  C   UNL     1       7.807   4.666  17.713  0.00  0.00    +0.000 A 
ATOM      5  C   UNL     1       7.217   4.388  16.478  0.00  0.00    +0.000 A 
ATOM      6  C   UNL     1       6.045   5.050  16.063  0.00  0.00    +0.000 A 
ENDROOT
BRANCH   6   7
ATOM      7  C   UNL     1       5.564   4.742  14.699  0.00  0.00    +0.000 C 
ATOM      8  C   UNL     1       6.100   3.828  13.877  0.00  0.00    +0.000 C 
BRANCH   8   9
ATOM      9  C   UNL     1       5.486   3.578  12.558  0.00  0.00    +0.000 C 
ATOM     10  O   UNL     1       5.808   2.617  11.873  0.00  0.00    +0.000 OA
ENDBRANCH   8   9
ENDBRANCH   6   7
BRANCH   1  11
ATOM     11  O   UNL     1       4.351   6.681  16.498  0.00  0.00    +0.000 OA
BRANCH  11  12
ATOM     12  C   UNL     1       3.580   7.278  17.544  0.00  0.00    +0.000 C 
BRANCH  12  17
ATOM     13  C   UNL     1       0.790   3.169  20.590  0.00  0.00    +0.000 C 
ATOM     14  C   UNL     1       1.495   4.234  19.809  0.00  0.00    +0.000 A 
ATOM     15  C   UNL     1       1.672   4.110  18.428  0.00  0.00    +0.000 A 
ATOM     16  C   UNL     1       2.339   5.105  17.713  0.00  0.00    +0.000 A 
ATOM     17  C   UNL     1       2.834   6.248  18.361  0.00  0.00    +0.000 A 
ATOM     18  C   UNL     1       2.667   6.363  19.745  0.00  0.00    +0.000 A 
ATOM     19  C   UNL     1       1.996   5.368  20.460  0.00  0.00    +0.000 A 
ENDBRANCH  12  17
ENDBRANCH  11  12
ENDBRANCH   1  11
TORSDOF 5
ENDMDL
MODEL 3
REMARK VINA RESULT:      -6.5      2.397      5.269
REMARK  Name = 
REMARK  6 active torsions:
REMARK  status: ('A' for Active; 'I' for Inactive)
REMARK    1  A    between atoms: C_1  and  C_2
REMARK    2  A    between atoms: C_5  and  C_6
REMARK    3  A    between atoms: C_6  and  O_7
REMARK    4  A    between atoms: O_7  and  C_8
REMARK    5  A    between atoms: C_13  and  C_14
REMARK    6  A    between atoms: C_15  and  C_16
REMARK                            x       y       z     vdW  Elec       q    Type
REMARK                         _______ _______ _______ _____ _____    ______ ____
ROOT
ATOM      1  C   UNL     1       2.835   4.690  17.793  0.00  0.00    +0.000 A 
ATOM      2  C   UNL     1       1.614   4.219  18.300  0.00  0.00    +0.000 A 
ATOM      3  C   UNL     1       1.375   2.853  18.440  0.00  0.00    +0.000 A 
ATOM      4  C   UNL     1       2.341   1.940  18.046  0.00  0.00    +0.000 A 
ATOM      5  C   UNL     1       3.547   2.394  17.506  0.00  0.00    +0.000 A 
ATOM      6  C   UNL     1       3.811   3.769  17.362  0.00  0.00    +0.000 A 
ENDROOT
BRANCH   6   7
ATOM      7  C   UNL     1       5.156   4.131  16.866  0.00  0.00    +0.000 C 
ATOM      8  C   UNL     1       5.504   4.238  15.576  0.00  0.00    +0.000 C 
BRANCH   8   9
ATOM      9  C   UNL     1       6.870   4.664  15.217  0.00  0.00    +0.000 C 
ATOM     10  O   UNL     1       7.383   5.659  15.712  0.00  0.00    +0.000 OA
ENDBRANCH   8   9
ENDBRANCH   6   7
BRANCH   1  11
ATOM     11  O   UNL     1       3.105   6.033  17.670  0.00  0.00    +0.000 OA
BRANCH  11  12
ATOM     12  C   UNL     1       3.211   6.744  18.906  0.00  0.00    +0.000 C 
BRANCH  12  17
ATOM     13  C   UNL     1      -0.621  11.096  19.474  0.00  0.00    +0.000 C 
ATOM     14  C   UNL     1       0.353   9.969  19.321  0.00  0.00    +0.000 A 
ATOM     15  C   UNL     1       0.745   9.207  20.425  0.00  0.00    +0.000 A 
ATOM     16  C   UNL     1       1.661   8.167  20.271  0.00  0.00    +0.000 A 
ATOM     17  C   UNL     1       2.195   7.859  19.010  0.00  0.00    +0.000 A 
ATOM     18  C   UNL     1       1.812   8.631  17.909  0.00  0.00    +0.000 A 
ATOM     19  C   UNL     1       0.892   9.672  18.063  0.00  0.00    +0.000 A 
ENDBRANCH  12  17
ENDBRANCH  11  12
ENDBRANCH   1  11
TORSDOF 5
ENDMDL
MODEL 4
REMARK VINA RESULT:      -6.4      2.157      5.439
REMARK  Name = 
REMARK  6 active torsions:
REMARK  status: ('A' for Active; 'I' for Inactive)
REMARK    1  A    between atoms: C_1  and  C_2
REMARK    2  A    between atoms: C_5  and  C_6
REMARK    3  A    between atoms: C_6  and  O_7
REMARK    4  A    between atoms: O_7  and  C_8
REMARK    5  A    between atoms: C_13  and  C_14
REMARK    6  A    between atoms: C_15  and  C_16
REMARK                            x       y       z     vdW  Elec       q    Type
REMARK                         _______ _______ _______ _____ _____    ______ ____
ROOT
ATOM      1  C   UNL     1       5.300   4.202  17.873  0.00  0.00    +0.000 A 
ATOM      2  C   UNL     1       5.737   4.728  19.098  0.00  0.00    +0.000 A 
ATOM      3  C   UNL     1       6.844   5.571  19.163  0.00  0.00    +0.000 A 
ATOM      4  C   UNL     1       7.549   5.874  18.007  0.00  0.00    +0.000 A 
ATOM      5  C   UNL     1       7.146   5.329  16.785  0.00  0.00    +0.000 A 
ATOM      6  C   UNL     1       6.026   4.480  16.697  0.00  0.00    +0.000 A 
ENDROOT
BRANCH   6   7
ATOM      7  C   UNL     1       5.641   4.039  15.340  0.00  0.00    +0.000 C 
ATOM      8  C   UNL     1       6.393   4.175  14.238  0.00  0.00    +0.000 C 
BRANCH   8   9
ATOM      9  C   UNL     1       5.912   3.639  12.950  0.00  0.00    +0.000 C 
ATOM     10  O   UNL     1       6.688   3.265  12.081  0.00  0.00    +0.000 OA
ENDBRANCH   8   9
ENDBRANCH   6   7
BRANCH   1  11
ATOM     11  O   UNL     1       4.194   3.389  17.779  0.00  0.00    +0.000 OA
BRANCH  11  12
ATOM     12  C   UNL     1       2.981   4.058  17.424  0.00  0.00    +0.000 C 
BRANCH  12  17
ATOM     13  C   UNL     1       1.401   8.211  21.193  0.00  0.00    +0.000 C 
ATOM     14  C   UNL     1       1.819   7.141  20.233  0.00  0.00    +0.000 A 
ATOM     15  C   UNL     1       2.290   7.469  18.958  0.00  0.00    +0.000 A 
ATOM     16  C   UNL     1       2.667   6.462  18.070  0.00  0.00    +0.000 A 
ATOM     17  C   UNL     1       2.593   5.110  18.439  0.00  0.00    +0.000 A 
ATOM     18  C   UNL     1       2.109   4.785  19.711  0.00  0.00    +0.000 A 
ATOM     19  C   UNL     1       1.734   5.793  20.602  0.00  0.00    +0.000 A 
ENDBRANCH  12  17
ENDBRANCH  11  12
ENDBRANCH   1  11
TORSDOF 5
ENDMDL
MODEL 5
REMARK VINA RESULT:      -6.4      1.015      1.836
REMARK  Name = 
REMARK  6 active torsions:
REMARK  status: ('A' for Active; 'I' for Inactive)
REMARK    1  A    between atoms: C_1  and  C_2
REMARK    2  A    between atoms: C_5  and  C_6
REMARK    3  A    between atoms: C_6  and  O_7
REMARK    4  A    between atoms: O_7  and  C_8
REMARK    5  A    between atoms: C_13  and  C_14
REMARK    6  A    between atoms: C_15  and  C_16
REMARK                            x       y       z     vdW  Elec       q    Type
REMARK                         _______ _______ _______ _____ _____    ______ ____
ROOT
ATOM      1  C   UNL     1       3.312   3.782  17.932  0.00  0.00    +0.000 A 
ATOM      2  C   UNL     1       3.307   2.424  18.288  0.00  0.00    +0.000 A 
ATOM      3  C   UNL     1       2.313   1.903  19.113  0.00  0.00    +0.000 A 
ATOM      4  C   UNL     1       1.328   2.739  19.620  0.00  0.00    +0.000 A 
ATOM      5  C   UNL     1       1.342   4.100  19.302  0.00  0.00    +0.000 A 
ATOM      6  C   UNL     1       2.334   4.645  18.465  0.00  0.00    +0.000 A 
ENDROOT
BRANCH   6   7
ATOM      7  C   UNL     1       2.192   6.077  18.124  0.00  0.00    +0.000 C 
ATOM      8  C   UNL     1       2.663   7.097  18.855  0.00  0.00    +0.000 C 
BRANCH   8   9
ATOM      9  C   UNL     1       2.502   8.482  18.371  0.00  0.00    +0.000 C 
ATOM     10  O   UNL     1       2.314   8.730  17.187  0.00  0.00    +0.000 OA
ENDBRANCH   8   9
ENDBRANCH   6   7
BRANCH   1  11
ATOM     11  O   UNL     1       4.267   4.314  17.097  0.00  0.00    +0.000 OA
BRANCH  11  12
ATOM     12  C   UNL     1       5.614   4.172  17.554  0.00  0.00    +0.000 C 
BRANCH  12  17
ATOM     13  C   UNL     1       8.468   9.223  18.105  0.00  0.00    +0.000 C 
ATOM     14  C   UNL     1       7.722   7.930  17.971  0.00  0.00    +0.000 A 
ATOM     15  C   UNL     1       8.123   6.797  18.685  0.00  0.00    +0.000 A 
ATOM     16  C   UNL     1       7.426   5.597  18.543  0.00  0.00    +0.000 A 
ATOM     17  C   UNL     1       6.311   5.507  17.696  0.00  0.00    +0.000 A 
ATOM     18  C   UNL     1       5.920   6.639  16.974  0.00  0.00    +0.000 A 
ATOM     19  C   UNL     1       6.616   7.842  17.118  0.00  0.00    +0.000 A 
ENDBRANCH  12  17
ENDBRANCH  11  12
ENDBRANCH   1  11
TORSDOF 5
ENDMDL
MODEL 6
REMARK VINA RESULT:      -6.4      2.362      5.044
REMARK  Name = 
REMARK  6 active torsions:
REMARK  status: ('A' for Active; 'I' for Inactive)
REMARK    1  A    between atoms: C_1  and  C_2
REMARK    2  A    between atoms: C_5  and  C_6
REMARK    3  A    between atoms: C_6  and  O_7
REMARK    4  A    between atoms: O_7  and  C_8
REMARK    5  A    between atoms: C_13  and  C_14
REMARK    6  A    between atoms: C_15  and  C_16
REMARK                            x       y       z     vdW  Elec       q    Type
REMARK                         _______ _______ _______ _____ _____    ______ ____
ROOT
ATOM      1  C   UNL     1       2.597   4.483  17.953  0.00  0.00    +0.000 A 
ATOM      2  C   UNL     1       1.652   3.929  18.830  0.00  0.00    +0.000 A 
ATOM      3  C   UNL     1       1.696   2.579  19.172  0.00  0.00    +0.000 A 
ATOM      4  C   UNL     1       2.668   1.758  18.617  0.00  0.00    +0.000 A 
ATOM      5  C   UNL     1       3.594   2.289  17.716  0.00  0.00    +0.000 A 
ATOM      6  C   UNL     1       3.570   3.652  17.361  0.00  0.00    +0.000 A 
ENDROOT
BRANCH   6   7
ATOM      7  C   UNL     1       4.655   4.119  16.472  0.00  0.00    +0.000 C 
ATOM      8  C   UNL     1       5.938   4.271  16.830  0.00  0.00    +0.000 C 
BRANCH   8   9
ATOM      9  C   UNL     1       6.934   4.691  15.826  0.00  0.00    +0.000 C 
ATOM     10  O   UNL     1       7.421   5.814  15.836  0.00  0.00    +0.000 OA
ENDBRANCH   8   9
ENDBRANCH   6   7
BRANCH   1  11
ATOM     11  O   UNL     1       2.590   5.818  17.620  0.00  0.00    +0.000 OA
BRANCH  11  12
ATOM     12  C   UNL     1       3.150   6.689  18.606  0.00  0.00    +0.000 C 
BRANCH  12  17
ATOM     13  C   UNL     1      -0.535  11.044  19.792  0.00  0.00    +0.000 C 
ATOM     14  C   UNL     1       0.423   9.932  19.495  0.00  0.00    +0.000 A 
ATOM     15  C   UNL     1       0.913   9.737  18.200  0.00  0.00    +0.000 A 
ATOM     16  C   UNL     1       1.797   8.691  17.935  0.00  0.00    +0.000 A 
ATOM     17  C   UNL     1       2.218   7.827  18.957  0.00  0.00    +0.000 A 
ATOM     18  C   UNL     1       1.717   8.016  20.249  0.00  0.00    +0.000 A 
ATOM     19  C   UNL     1       0.834   9.065  20.515  0.00  0.00    +0.000 A 
ENDBRANCH  12  17
ENDBRANCH  11  12
ENDBRANCH   1  11
TORSDOF 5
ENDMDL
MODEL 7
REMARK VINA RESULT:      -6.3      2.507      5.921
REMARK  Name = 
REMARK  6 active torsions:
REMARK  status: ('A' for Active; 'I' for Inactive)
REMARK    1  A    between atoms: C_1  and  C_2
REMARK    2  A    between atoms: C_5  and  C_6
REMARK    3  A    between atoms: C_6  and  O_7
REMARK    4  A    between atoms: O_7  and  C_8
REMARK    5  A    between atoms: C_13  and  C_14
REMARK    6  A    between atoms: C_15  and  C_16
REMARK                            x       y       z     vdW  Elec       q    Type
REMARK                         _______ _______ _______ _____ _____    ______ ____
ROOT
ATOM      1  C   UNL     1       4.316   6.238  17.305  0.00  0.00    +0.000 A 
ATOM      2  C   UNL     1       5.111   6.531  16.187  0.00  0.00    +0.000 A 
ATOM      3  C   UNL     1       5.518   5.525  15.313  0.00  0.00    +0.000 A 
ATOM      4  C   UNL     1       5.162   4.208  15.564  0.00  0.00    +0.000 A 
ATOM      5  C   UNL     1       4.401   3.897  16.693  0.00  0.00    +0.000 A 
ATOM      6  C   UNL     1       3.974   4.899  17.586  0.00  0.00    +0.000 A 
ENDROOT
BRANCH   6   7
ATOM      7  C   UNL     1       3.096   4.464  18.692  0.00  0.00    +0.000 C 
ATOM      8  C   UNL     1       1.781   4.228  18.591  0.00  0.00    +0.000 C 
BRANCH   8   9
ATOM      9  C   UNL     1       1.030   3.741  19.764  0.00  0.00    +0.000 C 
ATOM     10  O   UNL     1       1.341   4.061  20.903  0.00  0.00    +0.000 OA
ENDBRANCH   8   9
ENDBRANCH   6   7
BRANCH   1  11
ATOM     11  O   UNL     1       3.879   7.217  18.168  0.00  0.00    +0.000 OA
BRANCH  11  12
ATOM     12  C   UNL     1       2.713   7.924  17.738  0.00  0.00    +0.000 C 
BRANCH  12  17
ATOM     13  C   UNL     1      -0.403   9.667  22.343  0.00  0.00    +0.000 C 
ATOM     14  C   UNL     1       0.386   9.215  21.152  0.00  0.00    +0.000 A 
ATOM     15  C   UNL     1       1.170   8.060  21.211  0.00  0.00    +0.000 A 
ATOM     16  C   UNL     1       1.907   7.655  20.098  0.00  0.00    +0.000 A 
ATOM     17  C   UNL     1       1.867   8.388  18.902  0.00  0.00    +0.000 A 
ATOM     18  C   UNL     1       1.091   9.551  18.850  0.00  0.00    +0.000 A 
ATOM     19  C   UNL     1       0.351   9.955  19.964  0.00  0.00    +0.000 A 
ENDBRANCH  12  17
ENDBRANCH  11  12
ENDBRANCH   1  11
TORSDOF 5
ENDMDL
MODEL 8
REMARK VINA RESULT:      -6.2      1.713      2.450
REMARK  Name = 
REMARK  6 active torsions:
REMARK  status: ('A' for Active; 'I' for Inactive)
REMARK    1  A    between atoms: C_1  and  C_2
REMARK    2  A    between atoms: C_5  and  C_6
REMARK    3  A    between atoms: C_6  and  O_7
REMARK    4  A    between atoms: O_7  and  C_8
REMARK    5  A    between atoms: C_13  and  C_14
REMARK    6  A    between atoms: C_15  and  C_16
REMARK                            x       y       z     vdW  Elec       q    Type
REMARK                         _______ _______ _______ _____ _____    ______ ____
ROOT
ATOM      1  C   UNL     1       3.554   4.879  19.770  0.00  0.00    +0.000 A 
ATOM      2  C   UNL     1       3.547   3.508  20.072  0.00  0.00    +0.000 A 
ATOM      3  C   UNL     1       2.394   2.884  20.545  0.00  0.00    +0.000 A 
ATOM      4  C   UNL     1       1.243   3.629  20.753  0.00  0.00    +0.000 A 
ATOM      5  C   UNL     1       1.246   5.001  20.491  0.00  0.00    +0.000 A 
ATOM      6  C   UNL     1       2.398   5.650  20.007  0.00  0.00    +0.000 A 
ENDROOT
BRANCH   6   7
ATOM      7  C   UNL     1       2.255   7.084  19.678  0.00  0.00    +0.000 C 
ATOM      8  C   UNL     1       1.913   7.573  18.477  0.00  0.00    +0.000 C 
BRANCH   8   9
ATOM      9  C   UNL     1       1.749   9.029  18.297  0.00  0.00    +0.000 C 
ATOM     10  O   UNL     1       2.300   9.628  17.383  0.00  0.00    +0.000 OA
ENDBRANCH   8   9
ENDBRANCH   6   7
BRANCH   1  11
ATOM     11  O   UNL     1       4.671   5.512  19.277  0.00  0.00    +0.000 OA
BRANCH  11  12
ATOM     12  C   UNL     1       5.776   4.651  18.991  0.00  0.00    +0.000 C 
BRANCH  12  17
ATOM     13  C   UNL     1       6.458   4.081  13.232  0.00  0.00    +0.000 C 
ATOM     14  C   UNL     1       6.292   4.216  14.715  0.00  0.00    +0.000 A 
ATOM     15  C   UNL     1       5.093   3.855  15.335  0.00  0.00    +0.000 A 
ATOM     16  C   UNL     1       4.948   3.995  16.716  0.00  0.00    +0.000 A 
ATOM     17  C   UNL     1       6.000   4.487  17.504  0.00  0.00    +0.000 A 
ATOM     18  C   UNL     1       7.194   4.859  16.879  0.00  0.00    +0.000 A 
ATOM     19  C   UNL     1       7.341   4.716  15.497  0.00  0.00    +0.000 A 
ENDBRANCH  12  17
ENDBRANCH  11  12
ENDBRANCH   1  11
TORSDOF 5
ENDMDL
MODEL 9
REMARK VINA RESULT:      -6.2      2.132      4.342
REMARK  Name = 
REMARK  6 active torsions:
REMARK  status: ('A' for Active; 'I' for Inactive)
REMARK    1  A    between atoms: C_1  and  C_2
REMARK    2  A    between atoms: C_5  and  C_6
REMARK    3  A    between atoms: C_6  and  O_7
REMARK    4  A    between atoms: O_7  and  C_8
REMARK    5  A    between atoms: C_13  and  C_14
REMARK    6  A    between atoms: C_15  and  C_16
REMARK                            x       y       z     vdW  Elec       q    Type
REMARK                         _______ _______ _______ _____ _____    ______ ____
ROOT
ATOM      1  C   UNL     1       3.223   6.138  18.533  0.00  0.00    +0.000 A 
ATOM      2  C   UNL     1       3.241   7.315  17.769  0.00  0.00    +0.000 A 
ATOM      3  C   UNL     1       2.549   8.451  18.184  0.00  0.00    +0.000 A 
ATOM      4  C   UNL     1       1.802   8.414  19.353  0.00  0.00    +0.000 A 
ATOM      5  C   UNL     1       1.747   7.239  20.105  0.00  0.00    +0.000 A 
ATOM      6  C   UNL     1       2.444   6.082  19.706  0.00  0.00    +0.000 A 
ENDROOT
BRANCH   6   7
ATOM      7  C   UNL     1       2.386   4.929  20.629  0.00  0.00    +0.000 C 
ATOM      8  C   UNL     1       1.459   3.960  20.601  0.00  0.00    +0.000 C 
BRANCH   8   9
ATOM      9  C   UNL     1       1.549   2.831  21.547  0.00  0.00    +0.000 C 
ATOM     10  O   UNL     1       2.572   2.603  22.179  0.00  0.00    +0.000 OA
ENDBRANCH   8   9
ENDBRANCH   6   7
BRANCH   1  11
ATOM     11  O   UNL     1       3.920   5.013  18.158  0.00  0.00    +0.000 OA
BRANCH  11  12
ATOM     12  C   UNL     1       5.312   5.221  17.907  0.00  0.00    +0.000 C 
BRANCH  12  17
ATOM     13  C   UNL     1       6.922   4.005  12.440  0.00  0.00    +0.000 C 
ATOM     14  C   UNL     1       6.498   4.328  13.840  0.00  0.00    +0.000 A 
ATOM     15  C   UNL     1       7.360   5.002  14.710  0.00  0.00    +0.000 A 
ATOM     16  C   UNL     1       6.957   5.288  16.014  0.00  0.00    +0.000 A 
ATOM     17  C   UNL     1       5.683   4.917  16.473  0.00  0.00    +0.000 A 
ATOM     18  C   UNL     1       4.828   4.231  15.604  0.00  0.00    +0.000 A 
ATOM     19  C   UNL     1       5.230   3.947  14.297  0.00  0.00    +0.000 A 
ENDBRANCH  12  17
ENDBRANCH  11  12
ENDBRANCH   1  11
TORSDOF 5
ENDMDL
