MODEL 1
REMARK VINA RESULT:      -8.2      0.000      0.000
REMARK  Name = 
REMARK  5 active torsions:
REMARK  status: ('A' for Active; 'I' for Inactive)
REMARK    1  A    between atoms: C_1  and  C_2
REMARK    2  A    between atoms: C_2  and  O_3
REMARK    3  A    between atoms: O_3  and  C_4
REMARK    4  A    between atoms: C_4  and  C_6
REMARK    5  A    between atoms: C_6  and  C_7
REMARK                            x       y       z     vdW  Elec       q    Type
REMARK                         _______ _______ _______ _____ _____    ______ ____
ROOT
ATOM      1  C   UNL     1       6.627   5.705  16.401  0.00  0.00    +0.000 C 
ATOM      2  C   UNL     1       6.532   4.829  17.657  0.00  0.00    +0.000 C 
ATOM      3  C   UNL     1       5.171   4.925  18.278  0.00  0.00    +0.000 C 
ATOM      4  C   UNL     1       4.383   5.985  18.043  0.00  0.00    +0.000 C 
ATOM      5  C   UNL     1       4.819   7.132  17.172  0.00  0.00    +0.000 C 
ATOM      6  O   UNL     1       6.194   7.035  16.751  0.00  0.00    +0.000 OA
ATOM      7  C   UNL     1       3.014   6.065  18.605  0.00  0.00    +0.000 C 
ATOM      8  O   UNL     1       2.294   7.030  18.380  0.00  0.00    +0.000 OA
ATOM      9  C   UNL     1       2.538   4.934  19.429  0.00  0.00    +0.000 A 
ATOM     10  C   UNL     1       1.243   4.958  19.962  0.00  0.00    +0.000 A 
ATOM     11  C   UNL     1       0.783   3.884  20.730  0.00  0.00    +0.000 A 
ATOM     12  C   UNL     1       1.611   2.786  20.965  0.00  0.00    +0.000 A 
ATOM     13  C   UNL     1       2.899   2.761  20.436  0.00  0.00    +0.000 A 
ATOM     14  C   UNL     1       3.364   3.837  19.668  0.00  0.00    +0.000 A 
ATOM     15  C   UNL     1       4.727   3.789  19.116  0.00  0.00    +0.000 C 
ATOM     16  O   UNL     1       5.464   2.838  19.335  0.00  0.00    +0.000 OA
ENDROOT
BRANCH   1  17
ATOM     17  C   UNL     1       5.861   5.188  15.176  0.00  0.00    +0.000 C 
BRANCH  17  18
ATOM     18  C   UNL     1       6.700   4.710  14.022  0.00  0.00    +0.000 C 
ATOM     19  O   UNL     1       7.634   5.368  13.580  0.00  0.00    +0.000 OA
BRANCH  18  20
ATOM     20  O   UNL     1       6.342   3.476  13.582  0.00  0.00    +0.000 OA
BRANCH  20  22
ATOM     21  C   UNL     1       4.729   3.285  11.768  0.00  0.00    +0.000 C 
ATOM     22  C   UNL     1       6.196   3.360  12.156  0.00  0.00    +0.000 C 
ENDBRANCH  20  22
ENDBRANCH  18  20
ENDBRANCH  17  18
ENDBRANCH   1  17
TORSDOF 4
ENDMDL
MODEL 2
REMARK VINA RESULT:      -7.9      1.885      4.171
REMARK  Name = 
REMARK  5 active torsions:
REMARK  status: ('A' for Active; 'I' for Inactive)
REMARK    1  A    between atoms: C_1  and  C_2
REMARK    2  A    between atoms: C_2  and  O_3
REMARK    3  A    between atoms: O_3  and  C_4
REMARK    4  A    between atoms: C_4  and  C_6
REMARK    5  A    between atoms: C_6  and  C_7
REMARK                            x       y       z     vdW  Elec       q    Type
REMARK                         _______ _______ _______ _____ _____    ______ ____
ROOT
ATOM      1  C   UNL     1       6.081   5.793  15.725  0.00  0.00    +0.000 C 
ATOM      2  C   UNL     1       4.819   6.357  16.390  0.00  0.00    +0.000 C 
ATOM      3  C   UNL     1       4.108   5.299  17.179  0.00  0.00    +0.000 C 
ATOM      4  C   UNL     1       4.293   3.999  16.906  0.00  0.00    +0.000 C 
ATOM      5  C   UNL     1       5.194   3.532  15.796  0.00  0.00    +0.000 C 
ATOM      6  O   UNL     1       5.706   4.611  14.988  0.00  0.00    +0.000 OA
ATOM      7  C   UNL     1       3.640   2.943  17.716  0.00  0.00    +0.000 C 
ATOM      8  O   UNL     1       3.820   1.757  17.470  0.00  0.00    +0.000 OA
ATOM      9  C   UNL     1       2.783   3.367  18.844  0.00  0.00    +0.000 A 
ATOM     10  C   UNL     1       2.164   2.403  19.648  0.00  0.00    +0.000 A 
ATOM     11  C   UNL     1       1.364   2.798  20.724  0.00  0.00    +0.000 A 
ATOM     12  C   UNL     1       1.182   4.153  21.000  0.00  0.00    +0.000 A 
ATOM     13  C   UNL     1       1.797   5.115  20.200  0.00  0.00    +0.000 A 
ATOM     14  C   UNL     1       2.596   4.720  19.119  0.00  0.00    +0.000 A 
ATOM     15  C   UNL     1       3.238   5.752  18.289  0.00  0.00    +0.000 C 
ATOM     16  O   UNL     1       3.067   6.942  18.514  0.00  0.00    +0.000 OA
ENDROOT
BRANCH   1  17
ATOM     17  C   UNL     1       7.250   5.496  16.672  0.00  0.00    +0.000 C 
BRANCH  17  18
ATOM     18  C   UNL     1       7.580   6.567  17.676  0.00  0.00    +0.000 C 
ATOM     19  O   UNL     1       7.524   6.365  18.884  0.00  0.00    +0.000 OA
BRANCH  18  20
ATOM     20  O   UNL     1       7.989   7.726  17.100  0.00  0.00    +0.000 OA
BRANCH  20  22
ATOM     21  C   UNL     1       8.743   9.658  18.374  0.00  0.00    +0.000 C 
ATOM     22  C   UNL     1       7.558   8.922  17.774  0.00  0.00    +0.000 C 
ENDBRANCH  20  22
ENDBRANCH  18  20
ENDBRANCH  17  18
ENDBRANCH   1  17
TORSDOF 4
ENDMDL
MODEL 3
REMARK VINA RESULT:      -7.6      1.834      3.966
REMARK  Name = 
REMARK  5 active torsions:
REMARK  status: ('A' for Active; 'I' for Inactive)
REMARK    1  A    between atoms: C_1  and  C_2
REMARK    2  A    between atoms: C_2  and  O_3
REMARK    3  A    between atoms: O_3  and  C_4
REMARK    4  A    between atoms: C_4  and  C_6
REMARK    5  A    between atoms: C_6  and  C_7
REMARK                            x       y       z     vdW  Elec       q    Type
REMARK                         _______ _______ _______ _____ _____    ______ ____
ROOT
ATOM      1  C   UNL     1       6.020   6.221  15.791  0.00  0.00    +0.000 C 
ATOM      2  C   UNL     1       4.694   6.658  16.426  0.00  0.00    +0.000 C 
ATOM      3  C   UNL     1       4.053   5.525  17.170  0.00  0.00    +0.000 C 
ATOM      4  C   UNL     1       4.358   4.253  16.875  0.00  0.00    +0.000 C 
ATOM      5  C   UNL     1       5.330   3.892  15.784  0.00  0.00    +0.000 C 
ATOM      6  O   UNL     1       5.771   5.029  15.017  0.00  0.00    +0.000 OA
ATOM      7  C   UNL     1       3.775   3.125  17.641  0.00  0.00    +0.000 C 
ATOM      8  O   UNL     1       4.064   1.965  17.375  0.00  0.00    +0.000 OA
ATOM      9  C   UNL     1       2.851   3.447  18.749  0.00  0.00    +0.000 A 
ATOM     10  C   UNL     1       2.294   2.414  19.512  0.00  0.00    +0.000 A 
ATOM     11  C   UNL     1       1.431   2.713  20.570  0.00  0.00    +0.000 A 
ATOM     12  C   UNL     1       1.124   4.040  20.869  0.00  0.00    +0.000 A 
ATOM     13  C   UNL     1       1.677   5.070  20.110  0.00  0.00    +0.000 A 
ATOM     14  C   UNL     1       2.540   4.772  19.047  0.00  0.00    +0.000 A 
ATOM     15  C   UNL     1       3.115   5.874  18.261  0.00  0.00    +0.000 C 
ATOM     16  O   UNL     1       2.835   7.040  18.505  0.00  0.00    +0.000 OA
ENDROOT
BRANCH   1  17
ATOM     17  C   UNL     1       7.181   6.002  16.768  0.00  0.00    +0.000 C 
BRANCH  17  18
ATOM     18  C   UNL     1       7.636   7.211  17.540  0.00  0.00    +0.000 C 
ATOM     19  O   UNL     1       7.517   8.348  17.097  0.00  0.00    +0.000 OA
BRANCH  18  20
ATOM     20  O   UNL     1       8.125   6.903  18.768  0.00  0.00    +0.000 OA
BRANCH  20  22
ATOM     21  C   UNL     1       6.524   5.291  19.642  0.00  0.00    +0.000 C 
ATOM     22  C   UNL     1       7.946   5.533  19.166  0.00  0.00    +0.000 C 
ENDBRANCH  20  22
ENDBRANCH  18  20
ENDBRANCH  17  18
ENDBRANCH   1  17
TORSDOF 4
ENDMDL
MODEL 4
REMARK VINA RESULT:      -7.5      2.705      4.749
REMARK  Name = 
REMARK  5 active torsions:
REMARK  status: ('A' for Active; 'I' for Inactive)
REMARK    1  A    between atoms: C_1  and  C_2
REMARK    2  A    between atoms: C_2  and  O_3
REMARK    3  A    between atoms: O_3  and  C_4
REMARK    4  A    between atoms: C_4  and  C_6
REMARK    5  A    between atoms: C_6  and  C_7
REMARK                            x       y       z     vdW  Elec       q    Type
REMARK                         _______ _______ _______ _____ _____    ______ ____
ROOT
ATOM      1  C   UNL     1       5.035   4.573  17.514  0.00  0.00    +0.000 C 
ATOM      2  C   UNL     1       4.148   5.728  17.034  0.00  0.00    +0.000 C 
ATOM      3  C   UNL     1       3.262   6.222  18.138  0.00  0.00    +0.000 C 
ATOM      4  C   UNL     1       2.966   5.435  19.183  0.00  0.00    +0.000 C 
ATOM      5  C   UNL     1       3.479   4.025  19.298  0.00  0.00    +0.000 C 
ATOM      6  O   UNL     1       4.183   3.579  18.122  0.00  0.00    +0.000 OA
ATOM      7  C   UNL     1       2.139   5.931  20.309  0.00  0.00    +0.000 C 
ATOM      8  O   UNL     1       1.879   5.212  21.266  0.00  0.00    +0.000 OA
ATOM      9  C   UNL     1       1.656   7.327  20.249  0.00  0.00    +0.000 A 
ATOM     10  C   UNL     1       0.889   7.843  21.301  0.00  0.00    +0.000 A 
ATOM     11  C   UNL     1       0.441   9.166  21.256  0.00  0.00    +0.000 A 
ATOM     12  C   UNL     1       0.759   9.976  20.166  0.00  0.00    +0.000 A 
ATOM     13  C   UNL     1       1.521   9.464  19.118  0.00  0.00    +0.000 A 
ATOM     14  C   UNL     1       1.968   8.137  19.159  0.00  0.00    +0.000 A 
ATOM     15  C   UNL     1       2.774   7.617  18.044  0.00  0.00    +0.000 C 
ATOM     16  O   UNL     1       3.040   8.315  17.075  0.00  0.00    +0.000 OA
ENDROOT
BRANCH   1  17
ATOM     17  C   UNL     1       6.175   4.965  18.462  0.00  0.00    +0.000 C 
BRANCH  17  18
ATOM     18  C   UNL     1       7.538   5.107  17.839  0.00  0.00    +0.000 C 
ATOM     19  O   UNL     1       8.030   4.225  17.145  0.00  0.00    +0.000 OA
BRANCH  18  20
ATOM     20  O   UNL     1       8.110   6.313  18.085  0.00  0.00    +0.000 OA
BRANCH  20  22
ATOM     21  C   UNL     1       8.089   8.741  17.910  0.00  0.00    +0.000 C 
ATOM     22  C   UNL     1       7.438   7.436  17.487  0.00  0.00    +0.000 C 
ENDBRANCH  20  22
ENDBRANCH  18  20
ENDBRANCH  17  18
ENDBRANCH   1  17
TORSDOF 4
ENDMDL
MODEL 5
REMARK VINA RESULT:      -7.2      1.288      1.547
REMARK  Name = 
REMARK  5 active torsions:
REMARK  status: ('A' for Active; 'I' for Inactive)
REMARK    1  A    between atoms: C_1  and  C_2
REMARK    2  A    between atoms: C_2  and  O_3
REMARK    3  A    between atoms: O_3  and  C_4
REMARK    4  A    between atoms: C_4  and  C_6
REMARK    5  A    between atoms: C_6  and  C_7
REMARK                            x       y       z     vdW  Elec       q    Type
REMARK                         _______ _______ _______ _____ _____    ______ ____
ROOT
ATOM      1  C   UNL     1       6.709   4.513  15.457  0.00  0.00    +0.000 C 
ATOM      2  C   UNL     1       6.652   4.152  16.947  0.00  0.00    +0.000 C 
ATOM      3  C   UNL     1       5.497   4.830  17.621  0.00  0.00    +0.000 C 
ATOM      4  C   UNL     1       4.953   5.939  17.097  0.00  0.00    +0.000 C 
ATOM      5  C   UNL     1       5.473   6.569  15.835  0.00  0.00    +0.000 C 
ATOM      6  O   UNL     1       6.679   5.950  15.345  0.00  0.00    +0.000 OA
ATOM      7  C   UNL     1       3.775   6.586  17.723  0.00  0.00    +0.000 C 
ATOM      8  O   UNL     1       3.274   7.592  17.237  0.00  0.00    +0.000 OA
ATOM      9  C   UNL     1       3.211   5.965  18.941  0.00  0.00    +0.000 A 
ATOM     10  C   UNL     1       2.085   6.531  19.553  0.00  0.00    +0.000 A 
ATOM     11  C   UNL     1       1.540   5.941  20.696  0.00  0.00    +0.000 A 
ATOM     12  C   UNL     1       2.113   4.786  21.230  0.00  0.00    +0.000 A 
ATOM     13  C   UNL     1       3.234   4.222  20.623  0.00  0.00    +0.000 A 
ATOM     14  C   UNL     1       3.784   4.814  19.478  0.00  0.00    +0.000 A 
ATOM     15  C   UNL     1       4.965   4.201  18.851  0.00  0.00    +0.000 C 
ATOM     16  O   UNL     1       5.485   3.200  19.325  0.00  0.00    +0.000 OA
ENDROOT
BRANCH   1  17
ATOM     17  C   UNL     1       5.624   3.875  14.581  0.00  0.00    +0.000 C 
BRANCH  17  18
ATOM     18  C   UNL     1       5.868   3.902  13.097  0.00  0.00    +0.000 C 
ATOM     19  O   UNL     1       6.995   3.818  12.622  0.00  0.00    +0.000 OA
BRANCH  18  20
ATOM     20  O   UNL     1       4.723   3.970  12.372  0.00  0.00    +0.000 OA
BRANCH  20  22
ATOM     21  C   UNL     1       3.404   3.239  10.460  0.00  0.00    +0.000 C 
ATOM     22  C   UNL     1       4.561   2.928  11.393  0.00  0.00    +0.000 C 
ENDBRANCH  20  22
ENDBRANCH  18  20
ENDBRANCH  17  18
ENDBRANCH   1  17
TORSDOF 4
ENDMDL
MODEL 6
REMARK VINA RESULT:      -7.2      2.808      4.994
REMARK  Name = 
REMARK  5 active torsions:
REMARK  status: ('A' for Active; 'I' for Inactive)
REMARK    1  A    between atoms: C_1  and  C_2
REMARK    2  A    between atoms: C_2  and  O_3
REMARK    3  A    between atoms: O_3  and  C_4
REMARK    4  A    between atoms: C_4  and  C_6
REMARK    5  A    between atoms: C_6  and  C_7
REMARK                            x       y       z     vdW  Elec       q    Type
REMARK                         _______ _______ _______ _____ _____    ______ ____
ROOT
ATOM      1  C   UNL     1       4.513   4.490  17.811  0.00  0.00    +0.000 C 
ATOM      2  C   UNL     1       4.116   4.945  19.221  0.00  0.00    +0.000 C 
ATOM      3  C   UNL     1       3.315   6.212  19.172  0.00  0.00    +0.000 C 
ATOM      4  C   UNL     1       3.397   7.034  18.115  0.00  0.00    +0.000 C 
ATOM      5  C   UNL     1       4.297   6.749  16.944  0.00  0.00    +0.000 C 
ATOM      6  O   UNL     1       5.146   5.602  17.146  0.00  0.00    +0.000 OA
ATOM      7  C   UNL     1       2.568   8.260  18.030  0.00  0.00    +0.000 C 
ATOM      8  O   UNL     1       2.637   9.003  17.058  0.00  0.00    +0.000 OA
ATOM      9  C   UNL     1       1.639   8.546  19.144  0.00  0.00    +0.000 A 
ATOM     10  C   UNL     1       0.822   9.682  19.095  0.00  0.00    +0.000 A 
ATOM     11  C   UNL     1      -0.068   9.950  20.139  0.00  0.00    +0.000 A 
ATOM     12  C   UNL     1      -0.145   9.085  21.231  0.00  0.00    +0.000 A 
ATOM     13  C   UNL     1       0.668   7.955  21.283  0.00  0.00    +0.000 A 
ATOM     14  C   UNL     1       1.562   7.686  20.238  0.00  0.00    +0.000 A 
ATOM     15  C   UNL     1       2.410   6.486  20.311  0.00  0.00    +0.000 C 
ATOM     16  O   UNL     1       2.361   5.734  21.275  0.00  0.00    +0.000 OA
ENDROOT
BRANCH   1  17
ATOM     17  C   UNL     1       3.375   3.920  16.955  0.00  0.00    +0.000 C 
BRANCH  17  18
ATOM     18  C   UNL     1       2.561   2.820  17.580  0.00  0.00    +0.000 C 
ATOM     19  O   UNL     1       3.042   1.723  17.840  0.00  0.00    +0.000 OA
BRANCH  18  20
ATOM     20  O   UNL     1       1.288   3.197  17.863  0.00  0.00    +0.000 OA
BRANCH  20  22
ATOM     21  C   UNL     1       0.898   3.022  20.260  0.00  0.00    +0.000 C 
ATOM     22  C   UNL     1       0.640   2.423  18.888  0.00  0.00    +0.000 C 
ENDBRANCH  20  22
ENDBRANCH  18  20
ENDBRANCH  17  18
ENDBRANCH   1  17
TORSDOF 4
ENDMDL
MODEL 7
REMARK VINA RESULT:      -7.1      2.561      4.999
REMARK  Name = 
REMARK  5 active torsions:
REMARK  status: ('A' for Active; 'I' for Inactive)
REMARK    1  A    between atoms: C_1  and  C_2
REMARK    2  A    between atoms: C_2  and  O_3
REMARK    3  A    between atoms: O_3  and  C_4
REMARK    4  A    between atoms: C_4  and  C_6
REMARK    5  A    between atoms: C_6  and  C_7
REMARK                            x       y       z     vdW  Elec       q    Type
REMARK                         _______ _______ _______ _____ _____    ______ ____
ROOT
ATOM      1  C   UNL     1       7.165   6.726  16.838  0.00  0.00    +0.000 C 
ATOM      2  C   UNL     1       5.643   6.901  16.774  0.00  0.00    +0.000 C 
ATOM      3  C   UNL     1       4.953   5.962  17.717  0.00  0.00    +0.000 C 
ATOM      4  C   UNL     1       5.561   4.842  18.136  0.00  0.00    +0.000 C 
ATOM      5  C   UNL     1       6.941   4.457  17.676  0.00  0.00    +0.000 C 
ATOM      6  O   UNL     1       7.461   5.327  16.651  0.00  0.00    +0.000 OA
ATOM      7  C   UNL     1       4.912   3.934  19.112  0.00  0.00    +0.000 C 
ATOM      8  O   UNL     1       5.475   2.918  19.500  0.00  0.00    +0.000 OA
ATOM      9  C   UNL     1       3.574   4.307  19.619  0.00  0.00    +0.000 A 
ATOM     10  C   UNL     1       2.934   3.489  20.558  0.00  0.00    +0.000 A 
ATOM     11  C   UNL     1       1.675   3.843  21.051  0.00  0.00    +0.000 A 
ATOM     12  C   UNL     1       1.054   5.012  20.610  0.00  0.00    +0.000 A 
ATOM     13  C   UNL     1       1.689   5.827  19.675  0.00  0.00    +0.000 A 
ATOM     14  C   UNL     1       2.950   5.472  19.177  0.00  0.00    +0.000 A 
ATOM     15  C   UNL     1       3.604   6.347  18.192  0.00  0.00    +0.000 C 
ATOM     16  O   UNL     1       3.057   7.363  17.787  0.00  0.00    +0.000 OA
ENDROOT
BRANCH   1  17
ATOM     17  C   UNL     1       7.839   7.260  18.108  0.00  0.00    +0.000 C 
BRANCH  17  18
ATOM     18  C   UNL     1       8.203   8.721  18.103  0.00  0.00    +0.000 C 
ATOM     19  O   UNL     1       7.740   9.503  17.282  0.00  0.00    +0.000 OA
BRANCH  18  20
ATOM     20  O   UNL     1       9.035   9.063  19.120  0.00  0.00    +0.000 OA
BRANCH  20  22
ATOM     21  C   UNL     1       9.376  10.967  20.598  0.00  0.00    +0.000 C 
ATOM     22  C   UNL     1       9.391  10.456  19.168  0.00  0.00    +0.000 C 
ENDBRANCH  20  22
ENDBRANCH  18  20
ENDBRANCH  17  18
ENDBRANCH   1  17
TORSDOF 4
ENDMDL
MODEL 8
REMARK VINA RESULT:      -7.1      3.013      6.207
REMARK  Name = 
REMARK  5 active torsions:
REMARK  status: ('A' for Active; 'I' for Inactive)
REMARK    1  A    between atoms: C_1  and  C_2
REMARK    2  A    between atoms: C_2  and  O_3
REMARK    3  A    between atoms: O_3  and  C_4
REMARK    4  A    between atoms: C_4  and  C_6
REMARK    5  A    between atoms: C_6  and  C_7
REMARK                            x       y       z     vdW  Elec       q    Type
REMARK                         _______ _______ _______ _____ _____    ______ ____
ROOT
ATOM      1  C   UNL     1       1.303   2.730  19.151  0.00  0.00    +0.000 C 
ATOM      2  C   UNL     1       2.803   2.409  19.123  0.00  0.00    +0.000 C 
ATOM      3  C   UNL     1       3.598   3.590  18.654  0.00  0.00    +0.000 C 
ATOM      4  C   UNL     1       3.024   4.553  17.917  0.00  0.00    +0.000 C 
ATOM      5  C   UNL     1       1.578   4.496  17.506  0.00  0.00    +0.000 C 
ATOM      6  O   UNL     1       0.935   3.255  17.859  0.00  0.00    +0.000 OA
ATOM      7  C   UNL     1       3.784   5.754  17.496  0.00  0.00    +0.000 C 
ATOM      8  O   UNL     1       3.254   6.636  16.831  0.00  0.00    +0.000 OA
ATOM      9  C   UNL     1       5.196   5.863  17.921  0.00  0.00    +0.000 A 
ATOM     10  C   UNL     1       5.945   6.991  17.563  0.00  0.00    +0.000 A 
ATOM     11  C   UNL     1       7.276   7.106  17.974  0.00  0.00    +0.000 A 
ATOM     12  C   UNL     1       7.860   6.099  18.743  0.00  0.00    +0.000 A 
ATOM     13  C   UNL     1       7.117   4.976  19.100  0.00  0.00    +0.000 A 
ATOM     14  C   UNL     1       5.783   4.857  18.686  0.00  0.00    +0.000 A 
ATOM     15  C   UNL     1       5.015   3.665  19.076  0.00  0.00    +0.000 C 
ATOM     16  O   UNL     1       5.527   2.769  19.733  0.00  0.00    +0.000 OA
ENDROOT
BRANCH   1  17
ATOM     17  C   UNL     1       0.850   3.674  20.271  0.00  0.00    +0.000 C 
BRANCH  17  18
ATOM     18  C   UNL     1       1.872   3.986  21.331  0.00  0.00    +0.000 C 
ATOM     19  O   UNL     1       2.235   3.149  22.150  0.00  0.00    +0.000 OA
BRANCH  18  20
ATOM     20  O   UNL     1       2.367   5.246  21.236  0.00  0.00    +0.000 OA
BRANCH  20  22
ATOM     21  C   UNL     1       2.085   7.400  20.137  0.00  0.00    +0.000 C 
ATOM     22  C   UNL     1       1.407   6.248  20.858  0.00  0.00    +0.000 C 
ENDBRANCH  20  22
ENDBRANCH  18  20
ENDBRANCH  17  18
ENDBRANCH   1  17
TORSDOF 4
ENDMDL
MODEL 9
REMARK VINA RESULT:      -7.1      1.547      1.938
REMARK  Name = 
REMARK  5 active torsions:
REMARK  status: ('A' for Active; 'I' for Inactive)
REMARK    1  A    between atoms: C_1  and  C_2
REMARK    2  A    between atoms: C_2  and  O_3
REMARK    3  A    between atoms: O_3  and  C_4
REMARK    4  A    between atoms: C_4  and  C_6
REMARK    5  A    between atoms: C_6  and  C_7
REMARK                            x       y       z     vdW  Elec       q    Type
REMARK                         _______ _______ _______ _____ _____    ______ ____
ROOT
ATOM      1  C   UNL     1       6.311   4.150  14.859  0.00  0.00    +0.000 C 
ATOM      2  C   UNL     1       5.902   3.269  16.047  0.00  0.00    +0.000 C 
ATOM      3  C   UNL     1       4.988   4.009  16.977  0.00  0.00    +0.000 C 
ATOM      4  C   UNL     1       4.971   5.350  16.999  0.00  0.00    +0.000 C 
ATOM      5  C   UNL     1       5.869   6.179  16.121  0.00  0.00    +0.000 C 
ATOM      6  O   UNL     1       6.825   5.392  15.382  0.00  0.00    +0.000 OA
ATOM      7  C   UNL     1       4.031   6.092  17.872  0.00  0.00    +0.000 C 
ATOM      8  O   UNL     1       4.012   7.317  17.882  0.00  0.00    +0.000 OA
ATOM      9  C   UNL     1       3.104   5.308  18.714  0.00  0.00    +0.000 A 
ATOM     10  C   UNL     1       2.185   5.968  19.539  0.00  0.00    +0.000 A 
ATOM     11  C   UNL     1       1.297   5.232  20.327  0.00  0.00    +0.000 A 
ATOM     12  C   UNL     1       1.322   3.837  20.293  0.00  0.00    +0.000 A 
ATOM     13  C   UNL     1       2.236   3.178  19.474  0.00  0.00    +0.000 A 
ATOM     14  C   UNL     1       3.130   3.915  18.685  0.00  0.00    +0.000 A 
ATOM     15  C   UNL     1       4.085   3.199  17.825  0.00  0.00    +0.000 C 
ATOM     16  O   UNL     1       4.125   1.976  17.806  0.00  0.00    +0.000 OA
ENDROOT
BRANCH   1  17
ATOM     17  C   UNL     1       5.212   4.410  13.821  0.00  0.00    +0.000 C 
BRANCH  17  18
ATOM     18  C   UNL     1       5.300   3.613  12.547  0.00  0.00    +0.000 C 
ATOM     19  O   UNL     1       6.371   3.218  12.101  0.00  0.00    +0.000 OA
BRANCH  18  20
ATOM     20  O   UNL     1       4.085   3.347  12.003  0.00  0.00    +0.000 OA
BRANCH  20  22
ATOM     21  C   UNL     1       2.958   4.007   9.949  0.00  0.00    +0.000 C 
ATOM     22  C   UNL     1       4.082   3.197  10.573  0.00  0.00    +0.000 C 
ENDBRANCH  20  22
ENDBRANCH  18  20
ENDBRANCH  17  18
ENDBRANCH   1  17
TORSDOF 4
ENDMDL
