MODEL 1
REMARK VINA RESULT:      -7.5      0.000      0.000
REMARK  Name = 
REMARK  6 active torsions:
REMARK  status: ('A' for Active; 'I' for Inactive)
REMARK    1  A    between atoms: C_1  and  N_2
REMARK    2  A    between atoms: C_7  and  C_8
REMARK    3  A    between atoms: C_10  and  O_11
REMARK    4  A    between atoms: O_11  and  C_12
REMARK    5  A    between atoms: C_12  and  C_13
REMARK    6  A    between atoms: C_18  and  O_19
REMARK                            x       y       z     vdW  Elec       q    Type
REMARK                         _______ _______ _______ _____ _____    ______ ____
ROOT
ATOM      1  C   UNL     1       3.331   5.918  18.636  0.00  0.00    +0.000 A 
ATOM      2  C   UNL     1       4.598   5.978  19.239  0.00  0.00    +0.000 A 
ATOM      3  C   UNL     1       5.314   4.809  19.522  0.00  0.00    +0.000 A 
ATOM      4  C   UNL     1       4.688   3.578  19.306  0.00  0.00    +0.000 A 
ATOM      5  C   UNL     1       3.406   3.495  18.773  0.00  0.00    +0.000 A 
ATOM      6  C   UNL     1       2.737   4.666  18.414  0.00  0.00    +0.000 A 
ATOM      7 BR   UNL     1       1.038   4.498  17.579  0.00  0.00    +0.000 Br
ENDROOT
BRANCH   1  14
ATOM      8  C   UNL     1       0.596  11.411  19.332  0.00  0.00    +0.000 C 
ATOM      9  N   UNL     1       1.033  10.044  19.498  0.00  0.00    +0.000 N 
ATOM     10  C   UNL     1       0.834   9.361  20.666  0.00  0.00    +0.000 C 
ATOM     11  O   UNL     1       0.209   9.731  21.647  0.00  0.00    +0.000 OA
ATOM     12  S   UNL     1       1.599   7.786  20.571  0.00  0.00    +0.000 S 
ATOM     13  C   UNL     1       2.045   8.011  18.921  0.00  0.00    +0.000 C 
ATOM     14  C   UNL     1       2.732   7.166  18.139  0.00  0.00    +0.000 C 
ATOM     15  C   UNL     1       1.610   9.355  18.459  0.00  0.00    +0.000 C 
ATOM     16  O   UNL     1       1.762   9.765  17.316  0.00  0.00    +0.000 OA
ENDBRANCH   1  14
BRANCH   4  17
ATOM     17  O   UNL     1       5.332   2.401  19.574  0.00  0.00    +0.000 OA
ATOM     18  H   UNL     1       5.670   2.486  20.479  0.00  0.00    +0.000 HD
ENDBRANCH   4  17
BRANCH   3  19
ATOM     19  O   UNL     1       6.627   4.781  19.952  0.00  0.00    +0.000 OA
BRANCH  19  20
ATOM     20  C   UNL     1       7.465   5.720  19.264  0.00  0.00    +0.000 C 
BRANCH  20  21
ATOM     21  C   UNL     1       7.364   5.526  17.803  0.00  0.00    +0.000 A 
ATOM     22  C   UNL     1       7.161   6.456  16.803  0.00  0.00    +0.000 A 
ATOM     23  N   UNL     1       7.221   5.870  15.569  0.00  0.00    +0.000 NA
ATOM     24  C   UNL     1       7.459   4.603  15.801  0.00  0.00    +0.000 A 
ATOM     25  N   UNL     1       7.551   4.341  17.140  0.00  0.00    +0.000 N 
ATOM     26  H   UNL     1       7.740   3.440  17.559  0.00  0.00    +0.000 HD
ENDBRANCH  20  21
ENDBRANCH  19  20
ENDBRANCH   3  19
TORSDOF 5
ENDMDL
MODEL 2
REMARK VINA RESULT:      -7.4      1.686      2.471
REMARK  Name = 
REMARK  6 active torsions:
REMARK  status: ('A' for Active; 'I' for Inactive)
REMARK    1  A    between atoms: C_1  and  N_2
REMARK    2  A    between atoms: C_7  and  C_8
REMARK    3  A    between atoms: C_10  and  O_11
REMARK    4  A    between atoms: O_11  and  C_12
REMARK    5  A    between atoms: C_12  and  C_13
REMARK    6  A    between atoms: C_18  and  O_19
REMARK                            x       y       z     vdW  Elec       q    Type
REMARK                         _______ _______ _______ _____ _____    ______ ____
ROOT
ATOM      1  C   UNL     1       3.107   5.030  19.747  0.00  0.00    +0.000 A 
ATOM      2  C   UNL     1       4.402   5.169  19.221  0.00  0.00    +0.000 A 
ATOM      3  C   UNL     1       4.934   4.203  18.361  0.00  0.00    +0.000 A 
ATOM      4  C   UNL     1       4.198   3.036  18.137  0.00  0.00    +0.000 A 
ATOM      5  C   UNL     1       2.941   2.845  18.701  0.00  0.00    +0.000 A 
ATOM      6  C   UNL     1       2.385   3.855  19.487  0.00  0.00    +0.000 A 
ATOM      7 BR   UNL     1       0.617   3.601  20.138  0.00  0.00    +0.000 Br
ENDROOT
BRANCH   1  14
ATOM      8  C   UNL     1       0.318  10.536  19.949  0.00  0.00    +0.000 C 
ATOM      9  N   UNL     1       1.134   9.404  19.578  0.00  0.00    +0.000 N 
ATOM     10  C   UNL     1       1.717   9.309  18.345  0.00  0.00    +0.000 C 
ATOM     11  O   UNL     1       1.730  10.152  17.461  0.00  0.00    +0.000 OA
ATOM     12  S   UNL     1       2.521   7.759  18.185  0.00  0.00    +0.000 S 
ATOM     13  C   UNL     1       2.189   7.325  19.820  0.00  0.00    +0.000 C 
ATOM     14  C   UNL     1       2.505   6.179  20.440  0.00  0.00    +0.000 C 
ATOM     15  C   UNL     1       1.409   8.405  20.481  0.00  0.00    +0.000 C 
ATOM     16  O   UNL     1       1.070   8.379  21.656  0.00  0.00    +0.000 OA
ENDBRANCH   1  14
BRANCH   4  17
ATOM     17  O   UNL     1       4.671   2.049  17.314  0.00  0.00    +0.000 OA
ATOM     18  H   UNL     1       5.180   1.452  17.884  0.00  0.00    +0.000 HD
ENDBRANCH   4  17
BRANCH   3  19
ATOM     19  O   UNL     1       6.122   4.341  17.668  0.00  0.00    +0.000 OA
BRANCH  19  20
ATOM     20  C   UNL     1       6.108   5.437  16.742  0.00  0.00    +0.000 C 
BRANCH  20  21
ATOM     21  C   UNL     1       6.456   4.969  15.385  0.00  0.00    +0.000 A 
ATOM     22  C   UNL     1       5.801   4.067  14.569  0.00  0.00    +0.000 A 
ATOM     23  N   UNL     1       6.409   3.979  13.348  0.00  0.00    +0.000 NA
ATOM     24  C   UNL     1       7.419   4.812  13.406  0.00  0.00    +0.000 A 
ATOM     25  N   UNL     1       7.494   5.434  14.621  0.00  0.00    +0.000 N 
ATOM     26  H   UNL     1       8.181   6.125  14.895  0.00  0.00    +0.000 HD
ENDBRANCH  20  21
ENDBRANCH  19  20
ENDBRANCH   3  19
TORSDOF 5
ENDMDL
MODEL 3
REMARK VINA RESULT:      -7.4      1.750      2.547
REMARK  Name = 
REMARK  6 active torsions:
REMARK  status: ('A' for Active; 'I' for Inactive)
REMARK    1  A    between atoms: C_1  and  N_2
REMARK    2  A    between atoms: C_7  and  C_8
REMARK    3  A    between atoms: C_10  and  O_11
REMARK    4  A    between atoms: O_11  and  C_12
REMARK    5  A    between atoms: C_12  and  C_13
REMARK    6  A    between atoms: C_18  and  O_19
REMARK                            x       y       z     vdW  Elec       q    Type
REMARK                         _______ _______ _______ _____ _____    ______ ____
ROOT
ATOM      1  C   UNL     1       3.024   4.857  19.745  0.00  0.00    +0.000 A 
ATOM      2  C   UNL     1       4.310   4.967  19.192  0.00  0.00    +0.000 A 
ATOM      3  C   UNL     1       4.810   3.980  18.335  0.00  0.00    +0.000 A 
ATOM      4  C   UNL     1       4.050   2.822  18.142  0.00  0.00    +0.000 A 
ATOM      5  C   UNL     1       2.802   2.661  18.734  0.00  0.00    +0.000 A 
ATOM      6  C   UNL     1       2.278   3.691  19.516  0.00  0.00    +0.000 A 
ATOM      7 BR   UNL     1       0.520   3.477  20.205  0.00  0.00    +0.000 Br
ENDROOT
BRANCH   1  14
ATOM      8  C   UNL     1       0.431  10.459  19.923  0.00  0.00    +0.000 C 
ATOM      9  N   UNL     1       1.211   9.299  19.560  0.00  0.00    +0.000 N 
ATOM     10  C   UNL     1       1.806   9.186  18.334  0.00  0.00    +0.000 C 
ATOM     11  O   UNL     1       1.859  10.028  17.452  0.00  0.00    +0.000 OA
ATOM     12  S   UNL     1       2.556   7.609  18.181  0.00  0.00    +0.000 S 
ATOM     13  C   UNL     1       2.188   7.183  19.810  0.00  0.00    +0.000 C 
ATOM     14  C   UNL     1       2.455   6.026  20.433  0.00  0.00    +0.000 C 
ATOM     15  C   UNL     1       1.440   8.290  20.464  0.00  0.00    +0.000 C 
ATOM     16  O   UNL     1       1.085   8.274  21.635  0.00  0.00    +0.000 OA
ENDBRANCH   1  14
BRANCH   4  17
ATOM     17  O   UNL     1       4.490   1.817  17.325  0.00  0.00    +0.000 OA
ATOM     18  H   UNL     1       4.901   2.256  16.564  0.00  0.00    +0.000 HD
ENDBRANCH   4  17
BRANCH   3  19
ATOM     19  O   UNL     1       5.985   4.089  17.617  0.00  0.00    +0.000 OA
BRANCH  19  20
ATOM     20  C   UNL     1       6.014   5.235  16.755  0.00  0.00    +0.000 C 
BRANCH  20  21
ATOM     21  C   UNL     1       6.833   6.310  17.352  0.00  0.00    +0.000 A 
ATOM     22  C   UNL     1       7.692   6.265  18.432  0.00  0.00    +0.000 A 
ATOM     23  N   UNL     1       8.327   7.464  18.604  0.00  0.00    +0.000 NA
ATOM     24  C   UNL     1       7.870   8.234  17.647  0.00  0.00    +0.000 A 
ATOM     25  N   UNL     1       6.959   7.584  16.863  0.00  0.00    +0.000 N 
ATOM     26  H   UNL     1       6.482   7.970  16.058  0.00  0.00    +0.000 HD
ENDBRANCH  20  21
ENDBRANCH  19  20
ENDBRANCH   3  19
TORSDOF 5
ENDMDL
MODEL 4
REMARK VINA RESULT:      -7.4      1.145      1.413
REMARK  Name = 
REMARK  6 active torsions:
REMARK  status: ('A' for Active; 'I' for Inactive)
REMARK    1  A    between atoms: C_1  and  N_2
REMARK    2  A    between atoms: C_7  and  C_8
REMARK    3  A    between atoms: C_10  and  O_11
REMARK    4  A    between atoms: O_11  and  C_12
REMARK    5  A    between atoms: C_12  and  C_13
REMARK    6  A    between atoms: C_18  and  O_19
REMARK                            x       y       z     vdW  Elec       q    Type
REMARK                         _______ _______ _______ _____ _____    ______ ____
ROOT
ATOM      1  C   UNL     1       3.153   5.671  19.074  0.00  0.00    +0.000 A 
ATOM      2  C   UNL     1       4.527   5.627  18.789  0.00  0.00    +0.000 A 
ATOM      3  C   UNL     1       5.259   4.448  18.967  0.00  0.00    +0.000 A 
ATOM      4  C   UNL     1       4.620   3.351  19.551  0.00  0.00    +0.000 A 
ATOM      5  C   UNL     1       3.275   3.393  19.904  0.00  0.00    +0.000 A 
ATOM      6  C   UNL     1       2.535   4.547  19.642  0.00  0.00    +0.000 A 
ATOM      7 BR   UNL     1       0.674   4.516  20.031  0.00  0.00    +0.000 Br
ENDROOT
BRANCH   1  14
ATOM      8  C   UNL     1       0.483  11.169  19.954  0.00  0.00    +0.000 C 
ATOM      9  N   UNL     1       1.007   9.835  20.127  0.00  0.00    +0.000 N 
ATOM     10  C   UNL     1       1.172   9.281  21.367  0.00  0.00    +0.000 C 
ATOM     11  O   UNL     1       0.828   9.747  22.441  0.00  0.00    +0.000 OA
ATOM     12  S   UNL     1       1.948   7.716  21.219  0.00  0.00    +0.000 S 
ATOM     13  C   UNL     1       1.907   7.765  19.497  0.00  0.00    +0.000 C 
ATOM     14  C   UNL     1       2.385   6.849  18.642  0.00  0.00    +0.000 C 
ATOM     15  C   UNL     1       1.302   9.045  19.042  0.00  0.00    +0.000 C 
ATOM     16  O   UNL     1       1.112   9.330  17.868  0.00  0.00    +0.000 OA
ENDBRANCH   1  14
BRANCH   4  17
ATOM     17  O   UNL     1       5.285   2.174  19.761  0.00  0.00    +0.000 OA
ATOM     18  H   UNL     1       5.535   2.176  20.698  0.00  0.00    +0.000 HD
ENDBRANCH   4  17
BRANCH   3  19
ATOM     19  O   UNL     1       6.566   4.269  18.553  0.00  0.00    +0.000 OA
BRANCH  19  20
ATOM     20  C   UNL     1       7.019   5.295  17.659  0.00  0.00    +0.000 C 
BRANCH  20  21
ATOM     21  C   UNL     1       6.889   4.850  16.256  0.00  0.00    +0.000 A 
ATOM     22  C   UNL     1       6.092   3.860  15.716  0.00  0.00    +0.000 A 
ATOM     23  N   UNL     1       6.205   3.828  14.354  0.00  0.00    +0.000 NA
ATOM     24  C   UNL     1       7.055   4.780  14.058  0.00  0.00    +0.000 A 
ATOM     25  N   UNL     1       7.502   5.428  15.175  0.00  0.00    +0.000 N 
ATOM     26  H   UNL     1       8.152   6.203  15.195  0.00  0.00    +0.000 HD
ENDBRANCH  20  21
ENDBRANCH  19  20
ENDBRANCH   3  19
TORSDOF 5
ENDMDL
MODEL 5
REMARK VINA RESULT:      -7.0      2.020      2.746
REMARK  Name = 
REMARK  6 active torsions:
REMARK  status: ('A' for Active; 'I' for Inactive)
REMARK    1  A    between atoms: C_1  and  N_2
REMARK    2  A    between atoms: C_7  and  C_8
REMARK    3  A    between atoms: C_10  and  O_11
REMARK    4  A    between atoms: O_11  and  C_12
REMARK    5  A    between atoms: C_12  and  C_13
REMARK    6  A    between atoms: C_18  and  O_19
REMARK                            x       y       z     vdW  Elec       q    Type
REMARK                         _______ _______ _______ _____ _____    ______ ____
ROOT
ATOM      1  C   UNL     1       3.568   5.062  19.093  0.00  0.00    +0.000 A 
ATOM      2  C   UNL     1       4.934   5.318  18.885  0.00  0.00    +0.000 A 
ATOM      3  C   UNL     1       5.645   4.649  17.884  0.00  0.00    +0.000 A 
ATOM      4  C   UNL     1       4.998   3.629  17.179  0.00  0.00    +0.000 A 
ATOM      5  C   UNL     1       3.665   3.311  17.414  0.00  0.00    +0.000 A 
ATOM      6  C   UNL     1       2.942   4.046  18.355  0.00  0.00    +0.000 A 
ATOM      7 BR   UNL     1       1.093   3.656  18.557  0.00  0.00    +0.000 Br
ENDROOT
BRANCH   1  14
ATOM      8  C   UNL     1       0.083  10.014  20.303  0.00  0.00    +0.000 C 
ATOM      9  N   UNL     1       1.044   9.095  19.741  0.00  0.00    +0.000 N 
ATOM     10  C   UNL     1       1.647   9.330  18.537  0.00  0.00    +0.000 C 
ATOM     11  O   UNL     1       1.559  10.331  17.843  0.00  0.00    +0.000 OA
ATOM     12  S   UNL     1       2.649   7.959  18.096  0.00  0.00    +0.000 S 
ATOM     13  C   UNL     1       2.358   7.159  19.595  0.00  0.00    +0.000 C 
ATOM     14  C   UNL     1       2.815   5.959  19.982  0.00  0.00    +0.000 C 
ATOM     15  C   UNL     1       1.438   7.974  20.432  0.00  0.00    +0.000 C 
ATOM     16  O   UNL     1       1.093   7.665  21.564  0.00  0.00    +0.000 OA
ENDBRANCH   1  14
BRANCH   4  17
ATOM     17  O   UNL     1       5.644   2.931  16.196  0.00  0.00    +0.000 OA
ATOM     18  H   UNL     1       5.235   2.052  16.184  0.00  0.00    +0.000 HD
ENDBRANCH   4  17
BRANCH   3  19
ATOM     19  O   UNL     1       6.936   4.959  17.500  0.00  0.00    +0.000 OA
BRANCH  19  20
ATOM     20  C   UNL     1       7.012   6.140  16.689  0.00  0.00    +0.000 C 
BRANCH  20  21
ATOM     21  C   UNL     1       7.578   7.263  17.465  0.00  0.00    +0.000 A 
ATOM     22  C   UNL     1       8.306   7.245  18.637  0.00  0.00    +0.000 A 
ATOM     23  N   UNL     1       8.718   8.503  18.979  0.00  0.00    +0.000 NA
ATOM     24  C   UNL     1       8.254   9.284  18.035  0.00  0.00    +0.000 A 
ATOM     25  N   UNL     1       7.553   8.582  17.094  0.00  0.00    +0.000 N 
ATOM     26  H   UNL     1       7.113   8.968  16.268  0.00  0.00    +0.000 HD
ENDBRANCH  20  21
ENDBRANCH  19  20
ENDBRANCH   3  19
TORSDOF 5
ENDMDL
MODEL 6
REMARK VINA RESULT:      -6.9      1.357      1.686
REMARK  Name = 
REMARK  6 active torsions:
REMARK  status: ('A' for Active; 'I' for Inactive)
REMARK    1  A    between atoms: C_1  and  N_2
REMARK    2  A    between atoms: C_7  and  C_8
REMARK    3  A    between atoms: C_10  and  O_11
REMARK    4  A    between atoms: O_11  and  C_12
REMARK    5  A    between atoms: C_12  and  C_13
REMARK    6  A    between atoms: C_18  and  O_19
REMARK                            x       y       z     vdW  Elec       q    Type
REMARK                         _______ _______ _______ _____ _____    ______ ____
ROOT
ATOM      1  C   UNL     1       3.139   5.534  19.126  0.00  0.00    +0.000 A 
ATOM      2  C   UNL     1       4.528   5.509  18.920  0.00  0.00    +0.000 A 
ATOM      3  C   UNL     1       5.262   4.335  19.119  0.00  0.00    +0.000 A 
ATOM      4  C   UNL     1       4.603   3.222  19.648  0.00  0.00    +0.000 A 
ATOM      5  C   UNL     1       3.240   3.244  19.924  0.00  0.00    +0.000 A 
ATOM      6  C   UNL     1       2.502   4.394  19.639  0.00  0.00    +0.000 A 
ATOM      7 BR   UNL     1       0.623   4.337  19.920  0.00  0.00    +0.000 Br
ENDROOT
BRANCH   1  14
ATOM      8  C   UNL     1       0.530  11.078  19.894  0.00  0.00    +0.000 C 
ATOM      9  N   UNL     1       1.040   9.742  20.094  0.00  0.00    +0.000 N 
ATOM     10  C   UNL     1       1.199   9.212  21.344  0.00  0.00    +0.000 C 
ATOM     11  O   UNL     1       0.862   9.704  22.410  0.00  0.00    +0.000 OA
ATOM     12  S   UNL     1       1.958   7.636  21.229  0.00  0.00    +0.000 S 
ATOM     13  C   UNL     1       1.916   7.650  19.506  0.00  0.00    +0.000 C 
ATOM     14  C   UNL     1       2.384   6.711  18.670  0.00  0.00    +0.000 C 
ATOM     15  C   UNL     1       1.324   8.927  19.026  0.00  0.00    +0.000 C 
ATOM     16  O   UNL     1       1.137   9.189  17.846  0.00  0.00    +0.000 OA
ENDBRANCH   1  14
BRANCH   4  17
ATOM     17  O   UNL     1       5.269   2.049  19.876  0.00  0.00    +0.000 OA
ATOM     18  H   UNL     1       4.591   1.409  20.144  0.00  0.00    +0.000 HD
ENDBRANCH   4  17
BRANCH   3  19
ATOM     19  O   UNL     1       6.592   4.177  18.779  0.00  0.00    +0.000 OA
BRANCH  19  20
ATOM     20  C   UNL     1       6.934   4.808  17.537  0.00  0.00    +0.000 C 
BRANCH  20  21
ATOM     21  C   UNL     1       7.372   6.200  17.770  0.00  0.00    +0.000 A 
ATOM     22  C   UNL     1       8.165   6.717  18.775  0.00  0.00    +0.000 A 
ATOM     23  N   UNL     1       8.406   8.048  18.575  0.00  0.00    +0.000 NA
ATOM     24  C   UNL     1       7.776   8.347  17.465  0.00  0.00    +0.000 A 
ATOM     25  N   UNL     1       7.131   7.263  16.939  0.00  0.00    +0.000 N 
ATOM     26  H   UNL     1       6.590   7.249  16.084  0.00  0.00    +0.000 HD
ENDBRANCH  20  21
ENDBRANCH  19  20
ENDBRANCH   3  19
TORSDOF 5
ENDMDL
MODEL 7
REMARK VINA RESULT:      -6.9      2.229      2.848
REMARK  Name = 
REMARK  6 active torsions:
REMARK  status: ('A' for Active; 'I' for Inactive)
REMARK    1  A    between atoms: C_1  and  N_2
REMARK    2  A    between atoms: C_7  and  C_8
REMARK    3  A    between atoms: C_10  and  O_11
REMARK    4  A    between atoms: O_11  and  C_12
REMARK    5  A    between atoms: C_12  and  C_13
REMARK    6  A    between atoms: C_18  and  O_19
REMARK                            x       y       z     vdW  Elec       q    Type
REMARK                         _______ _______ _______ _____ _____    ______ ____
ROOT
ATOM      1  C   UNL     1       2.983   4.480  19.861  0.00  0.00    +0.000 A 
ATOM      2  C   UNL     1       3.808   4.610  18.732  0.00  0.00    +0.000 A 
ATOM      3  C   UNL     1       4.143   3.495  17.956  0.00  0.00    +0.000 A 
ATOM      4  C   UNL     1       3.742   2.232  18.400  0.00  0.00    +0.000 A 
ATOM      5  C   UNL     1       2.980   2.072  19.553  0.00  0.00    +0.000 A 
ATOM      6  C   UNL     1       2.579   3.200  20.270  0.00  0.00    +0.000 A 
ATOM      7 BR   UNL     1       1.440   2.941  21.770  0.00  0.00    +0.000 Br
ENDROOT
BRANCH   1  14
ATOM      8  C   UNL     1       0.629  10.188  19.776  0.00  0.00    +0.000 C 
ATOM      9  N   UNL     1       1.360   8.981  19.469  0.00  0.00    +0.000 N 
ATOM     10  C   UNL     1       1.950   8.787  18.251  0.00  0.00    +0.000 C 
ATOM     11  O   UNL     1       2.040   9.586  17.332  0.00  0.00    +0.000 OA
ATOM     12  S   UNL     1       2.633   7.174  18.172  0.00  0.00    +0.000 S 
ATOM     13  C   UNL     1       2.246   6.840  19.818  0.00  0.00    +0.000 C 
ATOM     14  C   UNL     1       2.463   5.702  20.493  0.00  0.00    +0.000 C 
ATOM     15  C   UNL     1       1.544   8.006  20.418  0.00  0.00    +0.000 C 
ATOM     16  O   UNL     1       1.188   8.059  21.588  0.00  0.00    +0.000 OA
ENDBRANCH   1  14
BRANCH   4  17
ATOM     17  O   UNL     1       4.048   1.103  17.691  0.00  0.00    +0.000 OA
ATOM     18  H   UNL     1       4.141   1.388  16.769  0.00  0.00    +0.000 HD
ENDBRANCH   4  17
BRANCH   3  19
ATOM     19  O   UNL     1       4.803   3.556  16.743  0.00  0.00    +0.000 OA
BRANCH  19  20
ATOM     20  C   UNL     1       5.145   4.894  16.356  0.00  0.00    +0.000 C 
BRANCH  20  21
ATOM     21  C   UNL     1       6.013   4.878  15.160  0.00  0.00    +0.000 A 
ATOM     22  C   UNL     1       7.195   5.549  14.920  0.00  0.00    +0.000 A 
ATOM     23  N   UNL     1       7.729   5.187  13.715  0.00  0.00    +0.000 NA
ATOM     24  C   UNL     1       6.894   4.307  13.220  0.00  0.00    +0.000 A 
ATOM     25  N   UNL     1       5.835   4.086  14.055  0.00  0.00    +0.000 N 
ATOM     26  H   UNL     1       5.072   3.443  13.891  0.00  0.00    +0.000 HD
ENDBRANCH  20  21
ENDBRANCH  19  20
ENDBRANCH   3  19
TORSDOF 5
ENDMDL
MODEL 8
REMARK VINA RESULT:      -6.8      2.798      6.700
REMARK  Name = 
REMARK  6 active torsions:
REMARK  status: ('A' for Active; 'I' for Inactive)
REMARK    1  A    between atoms: C_1  and  N_2
REMARK    2  A    between atoms: C_7  and  C_8
REMARK    3  A    between atoms: C_10  and  O_11
REMARK    4  A    between atoms: O_11  and  C_12
REMARK    5  A    between atoms: C_12  and  C_13
REMARK    6  A    between atoms: C_18  and  O_19
REMARK                            x       y       z     vdW  Elec       q    Type
REMARK                         _______ _______ _______ _____ _____    ______ ____
ROOT
ATOM      1  C   UNL     1       3.061   3.832  18.218  0.00  0.00    +0.000 A 
ATOM      2  C   UNL     1       2.437   4.957  18.780  0.00  0.00    +0.000 A 
ATOM      3  C   UNL     1       2.102   4.989  20.138  0.00  0.00    +0.000 A 
ATOM      4  C   UNL     1       2.288   3.828  20.895  0.00  0.00    +0.000 A 
ATOM      5  C   UNL     1       2.842   2.678  20.343  0.00  0.00    +0.000 A 
ATOM      6  C   UNL     1       3.253   2.689  19.009  0.00  0.00    +0.000 A 
ATOM      7 BR   UNL     1       4.114   1.135  18.332  0.00  0.00    +0.000 Br
ENDROOT
BRANCH   1  14
ATOM      8  C   UNL     1       7.464   5.233  14.121  0.00  0.00    +0.000 C 
ATOM      9  N   UNL     1       6.596   5.207  15.275  0.00  0.00    +0.000 N 
ATOM     10  C   UNL     1       6.899   5.892  16.419  0.00  0.00    +0.000 C 
ATOM     11  O   UNL     1       7.828   6.663  16.601  0.00  0.00    +0.000 OA
ATOM     12  S   UNL     1       5.708   5.538  17.656  0.00  0.00    +0.000 S 
ATOM     13  C   UNL     1       4.747   4.597  16.579  0.00  0.00    +0.000 C 
ATOM     14  C   UNL     1       3.611   3.941  16.858  0.00  0.00    +0.000 C 
ATOM     15  C   UNL     1       5.395   4.542  15.241  0.00  0.00    +0.000 C 
ATOM     16  O   UNL     1       4.910   3.974  14.272  0.00  0.00    +0.000 OA
ENDBRANCH   1  14
BRANCH   4  17
ATOM     17  O   UNL     1       1.970   3.794  22.225  0.00  0.00    +0.000 OA
ATOM     18  H   UNL     1       1.212   3.193  22.299  0.00  0.00    +0.000 HD
ENDBRANCH   4  17
BRANCH   3  19
ATOM     19  O   UNL     1       1.646   6.110  20.805  0.00  0.00    +0.000 OA
BRANCH  19  20
ATOM     20  C   UNL     1       2.005   7.337  20.155  0.00  0.00    +0.000 C 
BRANCH  20  21
ATOM     21  C   UNL     1       1.330   8.480  20.802  0.00  0.00    +0.000 A 
ATOM     22  C   UNL     1       1.366   8.894  22.119  0.00  0.00    +0.000 A 
ATOM     23  N   UNL     1       0.667  10.057  22.288  0.00  0.00    +0.000 NA
ATOM     24  C   UNL     1       0.210  10.358  21.097  0.00  0.00    +0.000 A 
ATOM     25  N   UNL     1       0.580   9.432  20.162  0.00  0.00    +0.000 N 
ATOM     26  H   UNL     1       0.355   9.459  19.176  0.00  0.00    +0.000 HD
ENDBRANCH  20  21
ENDBRANCH  19  20
ENDBRANCH   3  19
TORSDOF 5
ENDMDL
MODEL 9
REMARK VINA RESULT:      -6.8      2.033      2.725
REMARK  Name = 
REMARK  6 active torsions:
REMARK  status: ('A' for Active; 'I' for Inactive)
REMARK    1  A    between atoms: C_1  and  N_2
REMARK    2  A    between atoms: C_7  and  C_8
REMARK    3  A    between atoms: C_10  and  O_11
REMARK    4  A    between atoms: O_11  and  C_12
REMARK    5  A    between atoms: C_12  and  C_13
REMARK    6  A    between atoms: C_18  and  O_19
REMARK                            x       y       z     vdW  Elec       q    Type
REMARK                         _______ _______ _______ _____ _____    ______ ____
ROOT
ATOM      1  C   UNL     1       2.951   5.695  19.186  0.00  0.00    +0.000 A 
ATOM      2  C   UNL     1       3.996   6.126  18.352  0.00  0.00    +0.000 A 
ATOM      3  C   UNL     1       4.404   5.357  17.257  0.00  0.00    +0.000 A 
ATOM      4  C   UNL     1       3.833   4.093  17.084  0.00  0.00    +0.000 A 
ATOM      5  C   UNL     1       2.844   3.616  17.938  0.00  0.00    +0.000 A 
ATOM      6  C   UNL     1       2.385   4.429  18.975  0.00  0.00    +0.000 A 
ATOM      7 BR   UNL     1       0.950   3.784  20.041  0.00  0.00    +0.000 Br
ENDROOT
BRANCH   1  14
ATOM      8  C   UNL     1      -0.159  10.767  20.840  0.00  0.00    +0.000 C 
ATOM      9  N   UNL     1       0.659   9.805  20.141  0.00  0.00    +0.000 N 
ATOM     10  C   UNL     1       1.016   9.978  18.832  0.00  0.00    +0.000 C 
ATOM     11  O   UNL     1       0.806  10.952  18.126  0.00  0.00    +0.000 OA
ATOM     12  S   UNL     1       1.892   8.569  18.263  0.00  0.00    +0.000 S 
ATOM     13  C   UNL     1       1.893   7.837  19.824  0.00  0.00    +0.000 C 
ATOM     14  C   UNL     1       2.400   6.644  20.166  0.00  0.00    +0.000 C 
ATOM     15  C   UNL     1       1.167   8.705  20.789  0.00  0.00    +0.000 C 
ATOM     16  O   UNL     1       1.048   8.449  21.980  0.00  0.00    +0.000 OA
ENDBRANCH   1  14
BRANCH   4  17
ATOM     17  O   UNL     1       4.199   3.289  16.039  0.00  0.00    +0.000 OA
ATOM     18  H   UNL     1       3.371   3.013  15.617  0.00  0.00    +0.000 HD
ENDBRANCH   4  17
BRANCH   3  19
ATOM     19  O   UNL     1       5.298   5.781  16.293  0.00  0.00    +0.000 OA
BRANCH  19  20
ATOM     20  C   UNL     1       6.662   5.480  16.620  0.00  0.00    +0.000 C 
BRANCH  20  21
ATOM     21  C   UNL     1       7.278   6.608  17.350  0.00  0.00    +0.000 A 
ATOM     22  C   UNL     1       8.001   6.607  18.526  0.00  0.00    +0.000 A 
ATOM     23  N   UNL     1       8.472   7.857  18.814  0.00  0.00    +0.000 NA
ATOM     24  C   UNL     1       8.050   8.617  17.834  0.00  0.00    +0.000 A 
ATOM     25  N   UNL     1       7.319   7.909  16.921  0.00  0.00    +0.000 N 
ATOM     26  H   UNL     1       6.901   8.279  16.076  0.00  0.00    +0.000 HD
ENDBRANCH  20  21
ENDBRANCH  19  20
ENDBRANCH   3  19
TORSDOF 5
ENDMDL
