MODEL 1
REMARK VINA RESULT:      -7.7      0.000      0.000
REMARK  Name = 
REMARK  7 active torsions:
REMARK  status: ('A' for Active; 'I' for Inactive)
REMARK    1  A    between atoms: C_1  and  C_2
REMARK    2  A    between atoms: C_2  and  O_3
REMARK    3  A    between atoms: O_3  and  C_4
REMARK    4  A    between atoms: C_10  and  C_12
REMARK    5  A    between atoms: C_15  and  C_16
REMARK    6  A    between atoms: N_19  and  C_20
REMARK    7  A    between atoms: C_21  and  N_22
REMARK                            x       y       z     vdW  Elec       q    Type
REMARK                         _______ _______ _______ _____ _____    ______ ____
ROOT
ATOM      1  C   UNL     1       7.377   7.210  17.371  0.00  0.00    +0.000 A 
ATOM      2  C   UNL     1       7.149   8.542  17.026  0.00  0.00    +0.000 A 
ATOM      3  C   UNL     1       7.826   9.572  17.685  0.00  0.00    +0.000 A 
ATOM      4  C   UNL     1       8.679   9.295  18.768  0.00  0.00    +0.000 A 
ATOM      5  C   UNL     1       8.797   7.968  19.192  0.00  0.00    +0.000 A 
ATOM      6  C   UNL     1       8.171   6.929  18.490  0.00  0.00    +0.000 A 
ENDROOT
BRANCH   1  13
ATOM      7  C   UNL     1       2.309   3.510  18.694  0.00  0.00    +0.000 C 
ATOM      8  O   UNL     1       1.873   2.468  18.224  0.00  0.00    +0.000 OA
ATOM      9  N   UNL     1       3.517   4.072  18.343  0.00  0.00    +0.000 N 
ATOM     10  C   UNL     1       4.371   3.419  17.347  0.00  0.00    +0.000 C 
ATOM     11  C   UNL     1       4.949   4.420  16.326  0.00  0.00    +0.000 C 
ATOM     12  N   UNL     1       5.487   5.617  16.991  0.00  0.00    +0.000 N 
ATOM     13  C   UNL     1       6.750   6.074  16.641  0.00  0.00    +0.000 C 
ATOM     14  O   UNL     1       7.406   5.571  15.725  0.00  0.00    +0.000 OA
ATOM     15  C   UNL     1       4.507   6.276  17.863  0.00  0.00    +0.000 C 
ATOM     16  C   UNL     1       4.045   5.298  18.948  0.00  0.00    +0.000 C 
BRANCH   7  17
ATOM     17  O   UNL     1       1.620   4.295  19.564  0.00  0.00    +0.000 OA
BRANCH  17  19
ATOM     18  C   UNL     1       2.118   3.142  21.602  0.00  0.00    +0.000 C 
ATOM     19  C   UNL     1       1.014   3.616  20.667  0.00  0.00    +0.000 C 
ENDBRANCH  17  19
ENDBRANCH   7  17
ENDBRANCH   1  13
BRANCH   4  20
ATOM     20  C   UNL     1       9.389  10.390  19.422  0.00  0.00    +0.000 A 
ATOM     21  C   UNL     1       9.252  10.864  20.752  0.00  0.00    +0.000 A 
ATOM     22  N   UNL     1      10.019  11.921  21.016  0.00  0.00    +0.000 NA
ATOM     23  N   UNL     1      10.666  12.131  19.853  0.00  0.00    +0.000 N 
ATOM     24  C   UNL     1      11.584  13.240  19.755  0.00  0.00    +0.000 C 
ATOM     25  C   UNL     1      10.320  11.244  18.855  0.00  0.00    +0.000 A 
BRANCH  25  26
ATOM     26  N   UNL     1      10.847  11.322  17.610  0.00  0.00    +0.000 N 
ATOM     27  H   UNL     1      10.544  12.002  16.918  0.00  0.00    +0.000 HD
ATOM     28  H   UNL     1      11.334  10.527  17.201  0.00  0.00    +0.000 HD
ENDBRANCH  25  26
ENDBRANCH   4  20
TORSDOF 5
ENDMDL
MODEL 2
REMARK VINA RESULT:      -7.0      0.823      1.311
REMARK  Name = 
REMARK  7 active torsions:
REMARK  status: ('A' for Active; 'I' for Inactive)
REMARK    1  A    between atoms: C_1  and  C_2
REMARK    2  A    between atoms: C_2  and  O_3
REMARK    3  A    between atoms: O_3  and  C_4
REMARK    4  A    between atoms: C_10  and  C_12
REMARK    5  A    between atoms: C_15  and  C_16
REMARK    6  A    between atoms: N_19  and  C_20
REMARK    7  A    between atoms: C_21  and  N_22
REMARK                            x       y       z     vdW  Elec       q    Type
REMARK                         _______ _______ _______ _____ _____    ______ ____
ROOT
ATOM      1  C   UNL     1       7.047   7.201  17.352  0.00  0.00    +0.000 A 
ATOM      2  C   UNL     1       7.989   6.873  18.327  0.00  0.00    +0.000 A 
ATOM      3  C   UNL     1       8.700   7.875  18.993  0.00  0.00    +0.000 A 
ATOM      4  C   UNL     1       8.549   9.225  18.633  0.00  0.00    +0.000 A 
ATOM      5  C   UNL     1       7.703   9.532  17.563  0.00  0.00    +0.000 A 
ATOM      6  C   UNL     1       6.940   8.535  16.939  0.00  0.00    +0.000 A 
ENDROOT
BRANCH   1  13
ATOM      7  C   UNL     1       3.216   2.596  19.640  0.00  0.00    +0.000 C 
ATOM      8  O   UNL     1       2.652   1.633  19.138  0.00  0.00    +0.000 OA
ATOM      9  N   UNL     1       4.124   3.394  18.979  0.00  0.00    +0.000 N 
ATOM     10  C   UNL     1       4.470   3.114  17.582  0.00  0.00    +0.000 C 
ATOM     11  C   UNL     1       4.503   4.392  16.720  0.00  0.00    +0.000 C 
ATOM     12  N   UNL     1       5.239   5.474  17.390  0.00  0.00    +0.000 N 
ATOM     13  C   UNL     1       6.200   6.179  16.678  0.00  0.00    +0.000 C 
ATOM     14  O   UNL     1       6.399   5.996  15.474  0.00  0.00    +0.000 OA
ATOM     15  C   UNL     1       4.725   5.771  18.733  0.00  0.00    +0.000 C 
ATOM     16  C   UNL     1       4.825   4.517  19.609  0.00  0.00    +0.000 C 
BRANCH   7  17
ATOM     17  O   UNL     1       2.958   3.056  20.893  0.00  0.00    +0.000 OA
BRANCH  17  19
ATOM     18  C   UNL     1       1.066   4.473  20.510  0.00  0.00    +0.000 C 
ATOM     19  C   UNL     1       1.576   3.226  21.219  0.00  0.00    +0.000 C 
ENDBRANCH  17  19
ENDBRANCH   7  17
ENDBRANCH   1  13
BRANCH   4  20
ATOM     20  C   UNL     1       9.290  10.251  19.361  0.00  0.00    +0.000 A 
ATOM     21  C   UNL     1       9.163  10.637  20.721  0.00  0.00    +0.000 A 
ATOM     22  N   UNL     1       9.961  11.649  21.057  0.00  0.00    +0.000 NA
ATOM     23  N   UNL     1      10.616  11.920  19.912  0.00  0.00    +0.000 N 
ATOM     24  C   UNL     1      11.567  13.005  19.891  0.00  0.00    +0.000 C 
ATOM     25  C   UNL     1      10.246  11.114  18.855  0.00  0.00    +0.000 A 
BRANCH  25  26
ATOM     26  N   UNL     1      10.779  11.262  17.618  0.00  0.00    +0.000 N 
ATOM     27  H   UNL     1      11.725  10.977  17.381  0.00  0.00    +0.000 HD
ATOM     28  H   UNL     1      10.390  11.935  16.962  0.00  0.00    +0.000 HD
ENDBRANCH  25  26
ENDBRANCH   4  20
TORSDOF 5
ENDMDL
MODEL 3
REMARK VINA RESULT:      -6.9      6.497      9.958
REMARK  Name = 
REMARK  7 active torsions:
REMARK  status: ('A' for Active; 'I' for Inactive)
REMARK    1  A    between atoms: C_1  and  C_2
REMARK    2  A    between atoms: C_2  and  O_3
REMARK    3  A    between atoms: O_3  and  C_4
REMARK    4  A    between atoms: C_10  and  C_12
REMARK    5  A    between atoms: C_15  and  C_16
REMARK    6  A    between atoms: N_19  and  C_20
REMARK    7  A    between atoms: C_21  and  N_22
REMARK                            x       y       z     vdW  Elec       q    Type
REMARK                         _______ _______ _______ _____ _____    ______ ____
ROOT
ATOM      1  C   UNL     1       0.798   9.474  18.951  0.00  0.00    +0.000 A 
ATOM      2  C   UNL     1       1.482   8.943  17.858  0.00  0.00    +0.000 A 
ATOM      3  C   UNL     1       2.244   7.779  17.994  0.00  0.00    +0.000 A 
ATOM      4  C   UNL     1       2.411   7.171  19.251  0.00  0.00    +0.000 A 
ATOM      5  C   UNL     1       1.831   7.787  20.363  0.00  0.00    +0.000 A 
ATOM      6  C   UNL     1       1.013   8.915  20.218  0.00  0.00    +0.000 A 
ENDROOT
BRANCH   1  13
ATOM      7  C   UNL     1       1.805  15.740  19.867  0.00  0.00    +0.000 C 
ATOM      8  O   UNL     1       1.070  16.713  19.961  0.00  0.00    +0.000 OA
ATOM      9  N   UNL     1       1.362  14.437  19.810  0.00  0.00    +0.000 N 
ATOM     10  C   UNL     1      -0.073  14.144  19.861  0.00  0.00    +0.000 C 
ATOM     11  C   UNL     1      -0.493  13.091  18.817  0.00  0.00    +0.000 C 
ATOM     12  N   UNL     1       0.426  11.942  18.811  0.00  0.00    +0.000 N 
ATOM     13  C   UNL     1      -0.098  10.657  18.839  0.00  0.00    +0.000 C 
ATOM     14  O   UNL     1      -1.310  10.435  18.774  0.00  0.00    +0.000 OA
ATOM     15  C   UNL     1       1.828  12.332  18.616  0.00  0.00    +0.000 C 
ATOM     16  C   UNL     1       2.258  13.279  19.742  0.00  0.00    +0.000 C 
BRANCH   7  17
ATOM     17  O   UNL     1       3.154  15.822  19.721  0.00  0.00    +0.000 OA
BRANCH  17  19
ATOM     18  C   UNL     1       3.715  15.679  17.398  0.00  0.00    +0.000 C 
ATOM     19  C   UNL     1       3.613  16.595  18.610  0.00  0.00    +0.000 C 
ENDBRANCH  17  19
ENDBRANCH   7  17
ENDBRANCH   1  13
BRANCH   4  20
ATOM     20  C   UNL     1       3.195   5.944  19.358  0.00  0.00    +0.000 A 
ATOM     21  C   UNL     1       4.555   5.730  19.014  0.00  0.00    +0.000 A 
ATOM     22  N   UNL     1       4.950   4.469  19.190  0.00  0.00    +0.000 NA
ATOM     23  N   UNL     1       3.842   3.861  19.655  0.00  0.00    +0.000 N 
ATOM     24  C   UNL     1       3.888   2.447  19.937  0.00  0.00    +0.000 C 
ATOM     25  C   UNL     1       2.752   4.699  19.770  0.00  0.00    +0.000 A 
BRANCH  25  26
ATOM     26  N   UNL     1       1.545   4.254  20.194  0.00  0.00    +0.000 N 
ATOM     27  H   UNL     1       1.005   4.716  20.920  0.00  0.00    +0.000 HD
ATOM     28  H   UNL     1       1.265   3.288  20.042  0.00  0.00    +0.000 HD
ENDBRANCH  25  26
ENDBRANCH   4  20
TORSDOF 5
ENDMDL
MODEL 4
REMARK VINA RESULT:      -6.7      6.416      9.213
REMARK  Name = 
REMARK  7 active torsions:
REMARK  status: ('A' for Active; 'I' for Inactive)
REMARK    1  A    between atoms: C_1  and  C_2
REMARK    2  A    between atoms: C_2  and  O_3
REMARK    3  A    between atoms: O_3  and  C_4
REMARK    4  A    between atoms: C_10  and  C_12
REMARK    5  A    between atoms: C_15  and  C_16
REMARK    6  A    between atoms: N_19  and  C_20
REMARK    7  A    between atoms: C_21  and  N_22
REMARK                            x       y       z     vdW  Elec       q    Type
REMARK                         _______ _______ _______ _____ _____    ______ ____
ROOT
ATOM      1  C   UNL     1       1.527   9.287  18.789  0.00  0.00    +0.000 A 
ATOM      2  C   UNL     1       1.455   8.546  19.968  0.00  0.00    +0.000 A 
ATOM      3  C   UNL     1       2.097   7.308  20.070  0.00  0.00    +0.000 A 
ATOM      4  C   UNL     1       2.750   6.743  18.960  0.00  0.00    +0.000 A 
ATOM      5  C   UNL     1       2.701   7.433  17.745  0.00  0.00    +0.000 A 
ATOM      6  C   UNL     1       2.116   8.703  17.660  0.00  0.00    +0.000 A 
ENDROOT
BRANCH   1  13
ATOM      7  C   UNL     1      -4.474  11.304  17.766  0.00  0.00    +0.000 C 
ATOM      8  O   UNL     1      -4.968  12.385  17.477  0.00  0.00    +0.000 OA
ATOM      9  N   UNL     1      -3.119  11.057  17.802  0.00  0.00    +0.000 N 
ATOM     10  C   UNL     1      -2.167  12.125  17.483  0.00  0.00    +0.000 C 
ATOM     11  C   UNL     1      -0.989  12.175  18.477  0.00  0.00    +0.000 C 
ATOM     12  N   UNL     1      -0.436  10.834  18.724  0.00  0.00    +0.000 N 
ATOM     13  C   UNL     1       0.938  10.648  18.660  0.00  0.00    +0.000 C 
ATOM     14  O   UNL     1       1.726  11.583  18.496  0.00  0.00    +0.000 OA
ATOM     15  C   UNL     1      -1.450   9.871  19.172  0.00  0.00    +0.000 C 
ATOM     16  C   UNL     1      -2.543   9.743  18.106  0.00  0.00    +0.000 C 
BRANCH   7  17
ATOM     17  O   UNL     1      -5.195  10.225  18.171  0.00  0.00    +0.000 OA
BRANCH  17  19
ATOM     18  C   UNL     1      -6.980   9.231  19.419  0.00  0.00    +0.000 C 
ATOM     19  C   UNL     1      -6.446  10.516  18.800  0.00  0.00    +0.000 C 
ENDBRANCH  17  19
ENDBRANCH   7  17
ENDBRANCH   1  13
BRANCH   4  20
ATOM     20  C   UNL     1       3.430   5.459  19.102  0.00  0.00    +0.000 A 
ATOM     21  C   UNL     1       4.802   5.208  19.361  0.00  0.00    +0.000 A 
ATOM     22  N   UNL     1       5.104   3.911  19.380  0.00  0.00    +0.000 NA
ATOM     23  N   UNL     1       3.922   3.314  19.140  0.00  0.00    +0.000 N 
ATOM     24  C   UNL     1       3.869   1.874  19.058  0.00  0.00    +0.000 C 
ATOM     25  C   UNL     1       2.878   4.198  18.956  0.00  0.00    +0.000 A 
BRANCH  25  26
ATOM     26  N   UNL     1       1.622   3.778  18.675  0.00  0.00    +0.000 N 
ATOM     27  H   UNL     1       1.372   2.798  18.572  0.00  0.00    +0.000 HD
ATOM     28  H   UNL     1       0.946   4.408  18.248  0.00  0.00    +0.000 HD
ENDBRANCH  25  26
ENDBRANCH   4  20
TORSDOF 5
ENDMDL
MODEL 5
REMARK VINA RESULT:      -6.7      0.832      1.329
REMARK  Name = 
REMARK  7 active torsions:
REMARK  status: ('A' for Active; 'I' for Inactive)
REMARK    1  A    between atoms: C_1  and  C_2
REMARK    2  A    between atoms: C_2  and  O_3
REMARK    3  A    between atoms: O_3  and  C_4
REMARK    4  A    between atoms: C_10  and  C_12
REMARK    5  A    between atoms: C_15  and  C_16
REMARK    6  A    between atoms: N_19  and  C_20
REMARK    7  A    between atoms: C_21  and  N_22
REMARK                            x       y       z     vdW  Elec       q    Type
REMARK                         _______ _______ _______ _____ _____    ______ ____
ROOT
ATOM      1  C   UNL     1       7.390   6.744  17.505  0.00  0.00    +0.000 A 
ATOM      2  C   UNL     1       7.039   7.962  16.924  0.00  0.00    +0.000 A 
ATOM      3  C   UNL     1       7.615   9.154  17.372  0.00  0.00    +0.000 A 
ATOM      4  C   UNL     1       8.490   9.162  18.474  0.00  0.00    +0.000 A 
ATOM      5  C   UNL     1       8.730   7.953  19.132  0.00  0.00    +0.000 A 
ATOM      6  C   UNL     1       8.205   6.748  18.643  0.00  0.00    +0.000 A 
ENDROOT
BRANCH   1  13
ATOM      7  C   UNL     1       2.096   3.396  18.880  0.00  0.00    +0.000 C 
ATOM      8  O   UNL     1       1.725   2.256  18.635  0.00  0.00    +0.000 OA
ATOM      9  N   UNL     1       3.357   3.876  18.603  0.00  0.00    +0.000 N 
ATOM     10  C   UNL     1       4.355   3.006  17.974  0.00  0.00    +0.000 C 
ATOM     11  C   UNL     1       5.119   3.716  16.839  0.00  0.00    +0.000 C 
ATOM     12  N   UNL     1       5.560   5.059  17.245  0.00  0.00    +0.000 N 
ATOM     13  C   UNL     1       6.873   5.440  17.006  0.00  0.00    +0.000 C 
ATOM     14  O   UNL     1       7.665   4.730  16.379  0.00  0.00    +0.000 OA
ATOM     15  C   UNL     1       4.460   5.901  17.732  0.00  0.00    +0.000 C 
ATOM     16  C   UNL     1       3.800   5.232  18.943  0.00  0.00    +0.000 C 
BRANCH   7  17
ATOM     17  O   UNL     1       1.285   4.365  19.382  0.00  0.00    +0.000 OA
BRANCH  17  19
ATOM     18  C   UNL     1       1.380   3.128  21.429  0.00  0.00    +0.000 C 
ATOM     19  C   UNL     1       1.301   4.514  20.804  0.00  0.00    +0.000 C 
ENDBRANCH  17  19
ENDBRANCH   7  17
ENDBRANCH   1  13
BRANCH   4  20
ATOM     20  C   UNL     1       9.093  10.419  18.904  0.00  0.00    +0.000 A 
ATOM     21  C   UNL     1       9.658  11.448  18.108  0.00  0.00    +0.000 A 
ATOM     22  N   UNL     1      10.172  12.447  18.826  0.00  0.00    +0.000 NA
ATOM     23  N   UNL     1       9.934  12.068  20.096  0.00  0.00    +0.000 N 
ATOM     24  C   UNL     1      10.389  12.913  21.173  0.00  0.00    +0.000 C 
ATOM     25  C   UNL     1       9.293  10.851  20.204  0.00  0.00    +0.000 A 
BRANCH  25  26
ATOM     26  N   UNL     1       9.000  10.298  21.406  0.00  0.00    +0.000 N 
ATOM     27  H   UNL     1       9.136  10.781  22.290  0.00  0.00    +0.000 HD
ATOM     28  H   UNL     1       8.931   9.288  21.510  0.00  0.00    +0.000 HD
ENDBRANCH  25  26
ENDBRANCH   4  20
TORSDOF 5
ENDMDL
MODEL 6
REMARK VINA RESULT:      -6.7      6.712      9.246
REMARK  Name = 
REMARK  7 active torsions:
REMARK  status: ('A' for Active; 'I' for Inactive)
REMARK    1  A    between atoms: C_1  and  C_2
REMARK    2  A    between atoms: C_2  and  O_3
REMARK    3  A    between atoms: O_3  and  C_4
REMARK    4  A    between atoms: C_10  and  C_12
REMARK    5  A    between atoms: C_15  and  C_16
REMARK    6  A    between atoms: N_19  and  C_20
REMARK    7  A    between atoms: C_21  and  N_22
REMARK                            x       y       z     vdW  Elec       q    Type
REMARK                         _______ _______ _______ _____ _____    ______ ____
ROOT
ATOM      1  C   UNL     1       1.274   9.392  19.712  0.00  0.00    +0.000 A 
ATOM      2  C   UNL     1       1.696   9.449  18.384  0.00  0.00    +0.000 A 
ATOM      3  C   UNL     1       2.288   8.337  17.778  0.00  0.00    +0.000 A 
ATOM      4  C   UNL     1       2.553   7.171  18.519  0.00  0.00    +0.000 A 
ATOM      5  C   UNL     1       2.249   7.172  19.883  0.00  0.00    +0.000 A 
ATOM      6  C   UNL     1       1.594   8.262  20.474  0.00  0.00    +0.000 A 
ENDROOT
BRANCH   1  13
ATOM      7  C   UNL     1      -4.461  12.061  18.659  0.00  0.00    +0.000 C 
ATOM      8  O   UNL     1      -5.006  13.084  19.051  0.00  0.00    +0.000 OA
ATOM      9  N   UNL     1      -3.144  11.743  18.905  0.00  0.00    +0.000 N 
ATOM     10  C   UNL     1      -2.298  12.654  19.682  0.00  0.00    +0.000 C 
ATOM     11  C   UNL     1      -1.445  11.911  20.728  0.00  0.00    +0.000 C 
ATOM     12  N   UNL     1      -0.797  10.724  20.150  0.00  0.00    +0.000 N 
ATOM     13  C   UNL     1       0.557  10.516  20.374  0.00  0.00    +0.000 C 
ATOM     14  O   UNL     1       1.224  11.240  21.119  0.00  0.00    +0.000 OA
ATOM     15  C   UNL     1      -1.749   9.805  19.514  0.00  0.00    +0.000 C 
ATOM     16  C   UNL     1      -2.493  10.534  18.390  0.00  0.00    +0.000 C 
BRANCH   7  17
ATOM     17  O   UNL     1      -5.108  11.063  18.000  0.00  0.00    +0.000 OA
BRANCH  17  19
ATOM     18  C   UNL     1      -6.836   9.958  19.234  0.00  0.00    +0.000 C 
ATOM     19  C   UNL     1      -6.525  11.015  18.183  0.00  0.00    +0.000 C 
ENDBRANCH  17  19
ENDBRANCH   7  17
ENDBRANCH   1  13
BRANCH   4  20
ATOM     20  C   UNL     1       3.153   6.018  17.854  0.00  0.00    +0.000 A 
ATOM     21  C   UNL     1       2.639   4.702  17.728  0.00  0.00    +0.000 A 
ATOM     22  N   UNL     1       3.469   3.870  17.099  0.00  0.00    +0.000 NA
ATOM     23  N   UNL     1       4.527   4.651  16.808  0.00  0.00    +0.000 N 
ATOM     24  C   UNL     1       5.661   4.068  16.135  0.00  0.00    +0.000 C 
ATOM     25  C   UNL     1       4.395   5.953  17.245  0.00  0.00    +0.000 A 
BRANCH  25  26
ATOM     26  N   UNL     1       5.373   6.873  17.067  0.00  0.00    +0.000 N 
ATOM     27  H   UNL     1       6.359   6.675  17.217  0.00  0.00    +0.000 HD
ATOM     28  H   UNL     1       5.161   7.868  17.083  0.00  0.00    +0.000 HD
ENDBRANCH  25  26
ENDBRANCH   4  20
TORSDOF 5
ENDMDL
MODEL 7
REMARK VINA RESULT:      -6.5      6.278      9.999
REMARK  Name = 
REMARK  7 active torsions:
REMARK  status: ('A' for Active; 'I' for Inactive)
REMARK    1  A    between atoms: C_1  and  C_2
REMARK    2  A    between atoms: C_2  and  O_3
REMARK    3  A    between atoms: O_3  and  C_4
REMARK    4  A    between atoms: C_10  and  C_12
REMARK    5  A    between atoms: C_15  and  C_16
REMARK    6  A    between atoms: N_19  and  C_20
REMARK    7  A    between atoms: C_21  and  N_22
REMARK                            x       y       z     vdW  Elec       q    Type
REMARK                         _______ _______ _______ _____ _____    ______ ____
ROOT
ATOM      1  C   UNL     1       0.936   9.666  18.990  0.00  0.00    +0.000 A 
ATOM      2  C   UNL     1       1.612   9.254  17.841  0.00  0.00    +0.000 A 
ATOM      3  C   UNL     1       2.298   8.037  17.820  0.00  0.00    +0.000 A 
ATOM      4  C   UNL     1       2.400   7.247  18.978  0.00  0.00    +0.000 A 
ATOM      5  C   UNL     1       1.833   7.733  20.160  0.00  0.00    +0.000 A 
ATOM      6  C   UNL     1       1.088   8.921  20.166  0.00  0.00    +0.000 A 
ENDROOT
BRANCH   1  13
ATOM      7  C   UNL     1       2.532  15.874  19.180  0.00  0.00    +0.000 C 
ATOM      8  O   UNL     1       1.909  16.904  19.398  0.00  0.00    +0.000 OA
ATOM      9  N   UNL     1       2.010  14.608  19.330  0.00  0.00    +0.000 N 
ATOM     10  C   UNL     1       0.626  14.429  19.776  0.00  0.00    +0.000 C 
ATOM     11  C   UNL     1      -0.121  13.360  18.953  0.00  0.00    +0.000 C 
ATOM     12  N   UNL     1       0.692  12.146  18.784  0.00  0.00    +0.000 N 
ATOM     13  C   UNL     1       0.117  10.908  19.036  0.00  0.00    +0.000 C 
ATOM     14  O   UNL     1      -1.080  10.776  19.307  0.00  0.00    +0.000 OA
ATOM     15  C   UNL     1       2.012  12.417  18.202  0.00  0.00    +0.000 C 
ATOM     16  C   UNL     1       2.784  13.382  19.108  0.00  0.00    +0.000 C 
BRANCH   7  17
ATOM     17  O   UNL     1       3.796  15.845  18.680  0.00  0.00    +0.000 OA
BRANCH  17  19
ATOM     18  C   UNL     1       6.013  15.815  19.584  0.00  0.00    +0.000 C 
ATOM     19  C   UNL     1       4.756  16.648  19.371  0.00  0.00    +0.000 C 
ENDBRANCH  17  19
ENDBRANCH   7  17
ENDBRANCH   1  13
BRANCH   4  20
ATOM     20  C   UNL     1       3.105   5.970  18.919  0.00  0.00    +0.000 A 
ATOM     21  C   UNL     1       4.432   5.672  19.325  0.00  0.00    +0.000 A 
ATOM     22  N   UNL     1       4.784   4.409  19.084  0.00  0.00    +0.000 NA
ATOM     23  N   UNL     1       3.679   3.881  18.525  0.00  0.00    +0.000 N 
ATOM     24  C   UNL     1       3.702   2.504  18.098  0.00  0.00    +0.000 C 
ATOM     25  C   UNL     1       2.638   4.777  18.393  0.00  0.00    +0.000 A 
BRANCH  25  26
ATOM     26  N   UNL     1       1.459   4.431  17.825  0.00  0.00    +0.000 N 
ATOM     27  H   UNL     1       1.391   3.852  16.992  0.00  0.00    +0.000 HD
ATOM     28  H   UNL     1       0.617   4.973  18.002  0.00  0.00    +0.000 HD
ENDBRANCH  25  26
ENDBRANCH   4  20
TORSDOF 5
ENDMDL
MODEL 8
REMARK VINA RESULT:      -6.5      6.600     10.021
REMARK  Name = 
REMARK  7 active torsions:
REMARK  status: ('A' for Active; 'I' for Inactive)
REMARK    1  A    between atoms: C_1  and  C_2
REMARK    2  A    between atoms: C_2  and  O_3
REMARK    3  A    between atoms: O_3  and  C_4
REMARK    4  A    between atoms: C_10  and  C_12
REMARK    5  A    between atoms: C_15  and  C_16
REMARK    6  A    between atoms: N_19  and  C_20
REMARK    7  A    between atoms: C_21  and  N_22
REMARK                            x       y       z     vdW  Elec       q    Type
REMARK                         _______ _______ _______ _____ _____    ______ ____
ROOT
ATOM      1  C   UNL     1       0.707   9.788  19.193  0.00  0.00    +0.000 A 
ATOM      2  C   UNL     1       0.999   9.010  20.313  0.00  0.00    +0.000 A 
ATOM      3  C   UNL     1       1.835   7.894  20.204  0.00  0.00    +0.000 A 
ATOM      4  C   UNL     1       2.323   7.481  18.952  0.00  0.00    +0.000 A 
ATOM      5  C   UNL     1       1.915   8.189  17.818  0.00  0.00    +0.000 A 
ATOM      6  C   UNL     1       1.132   9.346  17.934  0.00  0.00    +0.000 A 
ENDROOT
BRANCH   1  13
ATOM      7  C   UNL     1       2.318  15.912  20.208  0.00  0.00    +0.000 C 
ATOM      8  O   UNL     1       1.682  16.927  20.457  0.00  0.00    +0.000 OA
ATOM      9  N   UNL     1       1.773  14.647  20.164  0.00  0.00    +0.000 N 
ATOM     10  C   UNL     1       0.344  14.452  20.426  0.00  0.00    +0.000 C 
ATOM     11  C   UNL     1      -0.309  13.488  19.416  0.00  0.00    +0.000 C 
ATOM     12  N   UNL     1       0.508  12.281  19.218  0.00  0.00    +0.000 N 
ATOM     13  C   UNL     1      -0.102  11.035  19.272  0.00  0.00    +0.000 C 
ATOM     14  O   UNL     1      -1.323  10.901  19.388  0.00  0.00    +0.000 OA
ATOM     15  C   UNL     1       1.890  12.583  18.823  0.00  0.00    +0.000 C 
ATOM     16  C   UNL     1       2.558  13.435  19.908  0.00  0.00    +0.000 C 
BRANCH   7  17
ATOM     17  O   UNL     1       3.632  15.908  19.857  0.00  0.00    +0.000 OA
BRANCH  17  19
ATOM     18  C   UNL     1       3.497  16.110  17.475  0.00  0.00    +0.000 C 
ATOM     19  C   UNL     1       3.985  16.759  18.763  0.00  0.00    +0.000 C 
ENDBRANCH  17  19
ENDBRANCH   7  17
ENDBRANCH   1  13
BRANCH   4  20
ATOM     20  C   UNL     1       3.211   6.324  18.873  0.00  0.00    +0.000 A 
ATOM     21  C   UNL     1       4.203   6.035  17.901  0.00  0.00    +0.000 A 
ATOM     22  N   UNL     1       4.804   4.862  18.096  0.00  0.00    +0.000 NA
ATOM     23  N   UNL     1       4.204   4.388  19.204  0.00  0.00    +0.000 N 
ATOM     24  C   UNL     1       4.590   3.092  19.708  0.00  0.00    +0.000 C 
ATOM     25  C   UNL     1       3.230   5.223  19.712  0.00  0.00    +0.000 A 
BRANCH  25  26
ATOM     26  N   UNL     1       2.501   4.896  20.806  0.00  0.00    +0.000 N 
ATOM     27  H   UNL     1       2.904   4.791  21.733  0.00  0.00    +0.000 HD
ATOM     28  H   UNL     1       1.598   4.438  20.710  0.00  0.00    +0.000 HD
ENDBRANCH  25  26
ENDBRANCH   4  20
TORSDOF 5
ENDMDL
MODEL 9
REMARK VINA RESULT:      -6.5      6.540      9.704
REMARK  Name = 
REMARK  7 active torsions:
REMARK  status: ('A' for Active; 'I' for Inactive)
REMARK    1  A    between atoms: C_1  and  C_2
REMARK    2  A    between atoms: C_2  and  O_3
REMARK    3  A    between atoms: O_3  and  C_4
REMARK    4  A    between atoms: C_10  and  C_12
REMARK    5  A    between atoms: C_15  and  C_16
REMARK    6  A    between atoms: N_19  and  C_20
REMARK    7  A    between atoms: C_21  and  N_22
REMARK                            x       y       z     vdW  Elec       q    Type
REMARK                         _______ _______ _______ _____ _____    ______ ____
ROOT
ATOM      1  C   UNL     1       0.750   9.697  19.146  0.00  0.00    +0.000 A 
ATOM      2  C   UNL     1       1.042   8.913  20.262  0.00  0.00    +0.000 A 
ATOM      3  C   UNL     1       1.911   7.823  20.156  0.00  0.00    +0.000 A 
ATOM      4  C   UNL     1       2.436   7.440  18.909  0.00  0.00    +0.000 A 
ATOM      5  C   UNL     1       2.031   8.151  17.776  0.00  0.00    +0.000 A 
ATOM      6  C   UNL     1       1.213   9.284  17.890  0.00  0.00    +0.000 A 
ENDROOT
BRANCH   1  13
ATOM      7  C   UNL     1       2.183  15.875  20.095  0.00  0.00    +0.000 C 
ATOM      8  O   UNL     1       1.519  16.872  20.344  0.00  0.00    +0.000 OA
ATOM      9  N   UNL     1       1.677  14.595  20.068  0.00  0.00    +0.000 N 
ATOM     10  C   UNL     1       0.257  14.357  20.347  0.00  0.00    +0.000 C 
ATOM     11  C   UNL     1      -0.377  13.366  19.351  0.00  0.00    +0.000 C 
ATOM     12  N   UNL     1       0.475  12.183  19.154  0.00  0.00    +0.000 N 
ATOM     13  C   UNL     1      -0.096  10.920  19.224  0.00  0.00    +0.000 C 
ATOM     14  O   UNL     1      -1.311  10.748  19.354  0.00  0.00    +0.000 OA
ATOM     15  C   UNL     1       1.842  12.524  18.742  0.00  0.00    +0.000 C 
ATOM     16  C   UNL     1       2.495  13.405  19.812  0.00  0.00    +0.000 C 
BRANCH   7  17
ATOM     17  O   UNL     1       3.492  15.909  19.730  0.00  0.00    +0.000 OA
BRANCH  17  19
ATOM     18  C   UNL     1       3.575  15.821  17.339  0.00  0.00    +0.000 C 
ATOM     19  C   UNL     1       3.794  16.690  18.570  0.00  0.00    +0.000 C 
ENDBRANCH  17  19
ENDBRANCH   7  17
ENDBRANCH   1  13
BRANCH   4  20
ATOM     20  C   UNL     1       3.359   6.311  18.834  0.00  0.00    +0.000 A 
ATOM     21  C   UNL     1       3.416   5.158  19.659  0.00  0.00    +0.000 A 
ATOM     22  N   UNL     1       4.419   4.338  19.348  0.00  0.00    +0.000 NA
ATOM     23  N   UNL     1       5.014   4.957  18.311  0.00  0.00    +0.000 N 
ATOM     24  C   UNL     1       6.185   4.358  17.718  0.00  0.00    +0.000 C 
ATOM     25  C   UNL     1       4.423   6.154  17.962  0.00  0.00    +0.000 A 
BRANCH  25  26
ATOM     26  N   UNL     1       4.905   6.929  16.961  0.00  0.00    +0.000 N 
ATOM     27  H   UNL     1       5.887   7.174  16.870  0.00  0.00    +0.000 HD
ATOM     28  H   UNL     1       4.289   7.552  16.444  0.00  0.00    +0.000 HD
ENDBRANCH  25  26
ENDBRANCH   4  20
TORSDOF 5
ENDMDL
