MODEL 1
REMARK VINA RESULT:      -7.3      0.000      0.000
REMARK  Name = 
REMARK  6 active torsions:
REMARK  status: ('A' for Active; 'I' for Inactive)
REMARK    1  A    between atoms: C_1  and  C_2
REMARK    2  A    between atoms: C_2  and  O_3
REMARK    3  A    between atoms: C_2  and  C_19
REMARK    4  A    between atoms: O_3  and  C_4
REMARK    5  A    between atoms: C_7  and  N_8
REMARK    6  A    between atoms: C_19  and  O_21
REMARK                            x       y       z     vdW  Elec       q    Type
REMARK                         _______ _______ _______ _____ _____    ______ ____
ROOT
ATOM      1  C   UNL     1       4.288   5.717  17.717  0.00  0.00    +0.000 A 
ATOM      2  C   UNL     1       3.983   7.004  17.282  0.00  0.00    +0.000 A 
ATOM      3  C   UNL     1       3.086   7.791  18.013  0.00  0.00    +0.000 A 
ATOM      4  C   UNL     1       2.485   7.296  19.183  0.00  0.00    +0.000 A 
ATOM      5  C   UNL     1       2.768   5.990  19.599  0.00  0.00    +0.000 A 
ATOM      6  C   UNL     1       3.659   5.209  18.859  0.00  0.00    +0.000 A 
ENDROOT
BRANCH   4   7
ATOM      7  N   UNL     1       1.622   8.131  19.944  0.00  0.00    +0.000 N 
ATOM      8  N   UNL     1       1.116   9.266  19.407  0.00  0.00    +0.000 NA
ATOM      9  C   UNL     1       0.479   9.830  20.439  0.00  0.00    +0.000 A 
ATOM     10  C   UNL     1      -0.199  11.059  20.485  0.00  0.00    +0.000 A 
ATOM     11  C   UNL     1      -0.743  11.377  21.742  0.00  0.00    +0.000 A 
ATOM     12  C   UNL     1      -0.636  10.523  22.872  0.00  0.00    +0.000 A 
ATOM     13  C   UNL     1       0.027   9.278  22.843  0.00  0.00    +0.000 A 
ATOM     14  C   UNL     1       0.595   8.948  21.597  0.00  0.00    +0.000 A 
ATOM     15  N   UNL     1       1.305   7.866  21.236  0.00  0.00    +0.000 NA
ENDBRANCH   4   7
BRANCH   1  16
ATOM     16  O   UNL     1       5.152   4.848  17.124  0.00  0.00    +0.000 OA
BRANCH  16  18
ATOM     17  C   UNL     1       7.513   4.736  17.774  0.00  0.00    +0.000 C 
ATOM     18  C   UNL     1       6.483   5.281  16.791  0.00  0.00    +0.000 C 
BRANCH  18  19
ATOM     19  C   UNL     1       6.768   4.689  15.405  0.00  0.00    +0.000 C 
ATOM     20  O   UNL     1       6.247   3.676  14.961  0.00  0.00    +0.000 OA
BRANCH  19  21
ATOM     21  O   UNL     1       7.678   5.405  14.695  0.00  0.00    +0.000 OA
ATOM     22  H   UNL     1       7.273   6.257  14.421  0.00  0.00    +0.000 HD
ENDBRANCH  19  21
ENDBRANCH  18  19
ENDBRANCH  16  18
ENDBRANCH   1  16
TORSDOF 5
ENDMDL
MODEL 2
REMARK VINA RESULT:      -7.3      0.415      1.322
REMARK  Name = 
REMARK  6 active torsions:
REMARK  status: ('A' for Active; 'I' for Inactive)
REMARK    1  A    between atoms: C_1  and  C_2
REMARK    2  A    between atoms: C_2  and  O_3
REMARK    3  A    between atoms: C_2  and  C_19
REMARK    4  A    between atoms: O_3  and  C_4
REMARK    5  A    between atoms: C_7  and  N_8
REMARK    6  A    between atoms: C_19  and  O_21
REMARK                            x       y       z     vdW  Elec       q    Type
REMARK                         _______ _______ _______ _____ _____    ______ ____
ROOT
ATOM      1  C   UNL     1       4.308   5.519  17.337  0.00  0.00    +0.000 A 
ATOM      2  C   UNL     1       3.583   4.980  18.396  0.00  0.00    +0.000 A 
ATOM      3  C   UNL     1       2.767   5.809  19.174  0.00  0.00    +0.000 A 
ATOM      4  C   UNL     1       2.671   7.184  18.900  0.00  0.00    +0.000 A 
ATOM      5  C   UNL     1       3.428   7.728  17.855  0.00  0.00    +0.000 A 
ATOM      6  C   UNL     1       4.245   6.895  17.089  0.00  0.00    +0.000 A 
ENDROOT
BRANCH   4   7
ATOM      7  N   UNL     1       1.792   7.998  19.664  0.00  0.00    +0.000 N 
ATOM      8  N   UNL     1       1.300   9.149  19.149  0.00  0.00    +0.000 NA
ATOM      9  C   UNL     1       0.639   9.684  20.181  0.00  0.00    +0.000 A 
ATOM     10  C   UNL     1      -0.039  10.912  20.247  0.00  0.00    +0.000 A 
ATOM     11  C   UNL     1      -0.612  11.194  21.500  0.00  0.00    +0.000 A 
ATOM     12  C   UNL     1      -0.531  10.308  22.607  0.00  0.00    +0.000 A 
ATOM     13  C   UNL     1       0.131   9.063  22.557  0.00  0.00    +0.000 A 
ATOM     14  C   UNL     1       0.727   8.769  21.316  0.00  0.00    +0.000 A 
ATOM     15  N   UNL     1       1.445   7.697  20.941  0.00  0.00    +0.000 NA
ENDBRANCH   4   7
BRANCH   1  16
ATOM     16  O   UNL     1       5.123   4.837  16.485  0.00  0.00    +0.000 OA
BRANCH  16  18
ATOM     17  C   UNL     1       7.392   4.597  17.378  0.00  0.00    +0.000 C 
ATOM     18  C   UNL     1       6.493   5.244  16.330  0.00  0.00    +0.000 C 
BRANCH  18  19
ATOM     19  C   UNL     1       6.914   4.738  14.945  0.00  0.00    +0.000 C 
ATOM     20  O   UNL     1       7.668   5.330  14.187  0.00  0.00    +0.000 OA
BRANCH  19  21
ATOM     21  O   UNL     1       6.356   3.542  14.621  0.00  0.00    +0.000 OA
ATOM     22  H   UNL     1       6.206   3.025  15.443  0.00  0.00    +0.000 HD
ENDBRANCH  19  21
ENDBRANCH  18  19
ENDBRANCH  16  18
ENDBRANCH   1  16
TORSDOF 5
ENDMDL
MODEL 3
REMARK VINA RESULT:      -7.1      0.785      1.313
REMARK  Name = 
REMARK  6 active torsions:
REMARK  status: ('A' for Active; 'I' for Inactive)
REMARK    1  A    between atoms: C_1  and  C_2
REMARK    2  A    between atoms: C_2  and  O_3
REMARK    3  A    between atoms: C_2  and  C_19
REMARK    4  A    between atoms: O_3  and  C_4
REMARK    5  A    between atoms: C_7  and  N_8
REMARK    6  A    between atoms: C_19  and  O_21
REMARK                            x       y       z     vdW  Elec       q    Type
REMARK                         _______ _______ _______ _____ _____    ______ ____
ROOT
ATOM      1  C   UNL     1       3.989   5.914  17.917  0.00  0.00    +0.000 A 
ATOM      2  C   UNL     1       3.514   5.495  19.156  0.00  0.00    +0.000 A 
ATOM      3  C   UNL     1       2.667   6.329  19.895  0.00  0.00    +0.000 A 
ATOM      4  C   UNL     1       2.292   7.590  19.401  0.00  0.00    +0.000 A 
ATOM      5  C   UNL     1       2.799   8.022  18.169  0.00  0.00    +0.000 A 
ATOM      6  C   UNL     1       3.650   7.186  17.443  0.00  0.00    +0.000 A 
ENDROOT
BRANCH   4   7
ATOM      7  N   UNL     1       1.385   8.398  20.138  0.00  0.00    +0.000 N 
ATOM      8  N   UNL     1       0.820   9.490  19.571  0.00  0.00    +0.000 NA
ATOM      9  C   UNL     1       0.151  10.046  20.587  0.00  0.00    +0.000 A 
ATOM     10  C   UNL     1      -0.592  11.238  20.600  0.00  0.00    +0.000 A 
ATOM     11  C   UNL     1      -1.154  11.559  21.848  0.00  0.00    +0.000 A 
ATOM     12  C   UNL     1      -1.003  10.743  23.001  0.00  0.00    +0.000 A 
ATOM     13  C   UNL     1      -0.275   9.535  23.005  0.00  0.00    +0.000 A 
ATOM     14  C   UNL     1       0.312   9.203  21.769  0.00  0.00    +0.000 A 
ATOM     15  N   UNL     1       1.080   8.151  21.438  0.00  0.00    +0.000 NA
ENDBRANCH   4   7
BRANCH   1  16
ATOM     16  O   UNL     1       4.799   5.207  17.081  0.00  0.00    +0.000 OA
BRANCH  16  18
ATOM     17  C   UNL     1       6.856   6.125  18.047  0.00  0.00    +0.000 C 
ATOM     18  C   UNL     1       6.118   5.696  16.783  0.00  0.00    +0.000 C 
BRANCH  18  19
ATOM     19  C   UNL     1       6.862   4.508  16.161  0.00  0.00    +0.000 C 
ATOM     20  O   UNL     1       6.526   3.938  15.133  0.00  0.00    +0.000 OA
BRANCH  19  21
ATOM     21  O   UNL     1       7.955   4.128  16.874  0.00  0.00    +0.000 OA
ATOM     22  H   UNL     1       8.289   3.276  16.519  0.00  0.00    +0.000 HD
ENDBRANCH  19  21
ENDBRANCH  18  19
ENDBRANCH  16  18
ENDBRANCH   1  16
TORSDOF 5
ENDMDL
MODEL 4
REMARK VINA RESULT:      -7.0      0.471      1.544
REMARK  Name = 
REMARK  6 active torsions:
REMARK  status: ('A' for Active; 'I' for Inactive)
REMARK    1  A    between atoms: C_1  and  C_2
REMARK    2  A    between atoms: C_2  and  O_3
REMARK    3  A    between atoms: C_2  and  C_19
REMARK    4  A    between atoms: O_3  and  C_4
REMARK    5  A    between atoms: C_7  and  N_8
REMARK    6  A    between atoms: C_19  and  O_21
REMARK                            x       y       z     vdW  Elec       q    Type
REMARK                         _______ _______ _______ _____ _____    ______ ____
ROOT
ATOM      1  C   UNL     1       3.991   6.005  17.660  0.00  0.00    +0.000 A 
ATOM      2  C   UNL     1       3.642   7.275  17.209  0.00  0.00    +0.000 A 
ATOM      3  C   UNL     1       2.828   8.095  18.000  0.00  0.00    +0.000 A 
ATOM      4  C   UNL     1       2.355   7.649  19.245  0.00  0.00    +0.000 A 
ATOM      5  C   UNL     1       2.681   6.359  19.681  0.00  0.00    +0.000 A 
ATOM      6  C   UNL     1       3.487   5.545  18.882  0.00  0.00    +0.000 A 
ENDROOT
BRANCH   4   7
ATOM      7  N   UNL     1       1.579   8.518  20.060  0.00  0.00    +0.000 N 
ATOM      8  N   UNL     1       1.366   8.228  21.364  0.00  0.00    +0.000 NA
ATOM      9  C   UNL     1       0.509   9.180  21.749  0.00  0.00    +0.000 A 
ATOM     10  C   UNL     1      -0.104   9.356  23.001  0.00  0.00    +0.000 A 
ATOM     11  C   UNL     1      -0.982  10.452  23.070  0.00  0.00    +0.000 A 
ATOM     12  C   UNL     1      -1.221  11.325  21.976  0.00  0.00    +0.000 A 
ATOM     13  C   UNL     1      -0.604  11.176  20.716  0.00  0.00    +0.000 A 
ATOM     14  C   UNL     1       0.266  10.074  20.619  0.00  0.00    +0.000 A 
ATOM     15  N   UNL     1       0.984   9.636  19.572  0.00  0.00    +0.000 NA
ENDBRANCH   4   7
BRANCH   1  16
ATOM     16  O   UNL     1       4.787   5.109  17.013  0.00  0.00    +0.000 OA
BRANCH  16  18
ATOM     17  C   UNL     1       7.108   4.634  17.641  0.00  0.00    +0.000 C 
ATOM     18  C   UNL     1       6.163   5.436  16.753  0.00  0.00    +0.000 C 
BRANCH  18  19
ATOM     19  C   UNL     1       6.406   5.034  15.292  0.00  0.00    +0.000 C 
ATOM     20  O   UNL     1       7.433   5.261  14.670  0.00  0.00    +0.000 OA
BRANCH  19  21
ATOM     21  O   UNL     1       5.349   4.389  14.732  0.00  0.00    +0.000 OA
ATOM     22  H   UNL     1       4.535   4.613  15.233  0.00  0.00    +0.000 HD
ENDBRANCH  19  21
ENDBRANCH  18  19
ENDBRANCH  16  18
ENDBRANCH   1  16
TORSDOF 5
ENDMDL
MODEL 5
REMARK VINA RESULT:      -7.0      2.414      3.107
REMARK  Name = 
REMARK  6 active torsions:
REMARK  status: ('A' for Active; 'I' for Inactive)
REMARK    1  A    between atoms: C_1  and  C_2
REMARK    2  A    between atoms: C_2  and  O_3
REMARK    3  A    between atoms: C_2  and  C_19
REMARK    4  A    between atoms: O_3  and  C_4
REMARK    5  A    between atoms: C_7  and  N_8
REMARK    6  A    between atoms: C_19  and  O_21
REMARK                            x       y       z     vdW  Elec       q    Type
REMARK                         _______ _______ _______ _____ _____    ______ ____
ROOT
ATOM      1  C   UNL     1       2.912   5.584  18.814  0.00  0.00    +0.000 A 
ATOM      2  C   UNL     1       2.911   6.821  18.175  0.00  0.00    +0.000 A 
ATOM      3  C   UNL     1       2.270   7.912  18.774  0.00  0.00    +0.000 A 
ATOM      4  C   UNL     1       1.622   7.772  20.013  0.00  0.00    +0.000 A 
ATOM      5  C   UNL     1       1.596   6.519  20.635  0.00  0.00    +0.000 A 
ATOM      6  C   UNL     1       2.233   5.435  20.028  0.00  0.00    +0.000 A 
ENDROOT
BRANCH   4   7
ATOM      7  N   UNL     1       1.027   8.905  20.632  0.00  0.00    +0.000 N 
ATOM      8  N   UNL     1       0.424   8.791  21.838  0.00  0.00    +0.000 NA
ATOM      9  C   UNL     1      -0.114  10.002  22.023  0.00  0.00    +0.000 A 
ATOM     10  C   UNL     1      -0.904  10.456  23.091  0.00  0.00    +0.000 A 
ATOM     11  C   UNL     1      -1.338  11.789  22.968  0.00  0.00    +0.000 A 
ATOM     12  C   UNL     1      -0.994  12.618  21.867  0.00  0.00    +0.000 A 
ATOM     13  C   UNL     1      -0.188  12.186  20.793  0.00  0.00    +0.000 A 
ATOM     14  C   UNL     1       0.242  10.849  20.887  0.00  0.00    +0.000 A 
ATOM     15  N   UNL     1       0.989  10.125  20.038  0.00  0.00    +0.000 NA
ENDBRANCH   4   7
BRANCH   1  16
ATOM     16  O   UNL     1       3.509   4.445  18.366  0.00  0.00    +0.000 OA
BRANCH  16  18
ATOM     17  C   UNL     1       2.769   2.118  18.159  0.00  0.00    +0.000 C 
ATOM     18  C   UNL     1       3.311   3.210  19.075  0.00  0.00    +0.000 C 
BRANCH  18  19
ATOM     19  C   UNL     1       4.704   2.793  19.562  0.00  0.00    +0.000 C 
ATOM     20  O   UNL     1       4.919   1.923  20.394  0.00  0.00    +0.000 OA
BRANCH  19  21
ATOM     21  O   UNL     1       5.708   3.496  18.976  0.00  0.00    +0.000 OA
ATOM     22  H   UNL     1       5.474   4.450  18.976  0.00  0.00    +0.000 HD
ENDBRANCH  19  21
ENDBRANCH  18  19
ENDBRANCH  16  18
ENDBRANCH   1  16
TORSDOF 5
ENDMDL
MODEL 6
REMARK VINA RESULT:      -7.0      2.429      3.304
REMARK  Name = 
REMARK  6 active torsions:
REMARK  status: ('A' for Active; 'I' for Inactive)
REMARK    1  A    between atoms: C_1  and  C_2
REMARK    2  A    between atoms: C_2  and  O_3
REMARK    3  A    between atoms: C_2  and  C_19
REMARK    4  A    between atoms: O_3  and  C_4
REMARK    5  A    between atoms: C_7  and  N_8
REMARK    6  A    between atoms: C_19  and  O_21
REMARK                            x       y       z     vdW  Elec       q    Type
REMARK                         _______ _______ _______ _____ _____    ______ ____
ROOT
ATOM      1  C   UNL     1       2.768   5.491  19.044  0.00  0.00    +0.000 A 
ATOM      2  C   UNL     1       2.163   5.431  20.296  0.00  0.00    +0.000 A 
ATOM      3  C   UNL     1       1.589   6.583  20.847  0.00  0.00    +0.000 A 
ATOM      4  C   UNL     1       1.620   7.803  20.151  0.00  0.00    +0.000 A 
ATOM      5  C   UNL     1       2.260   7.867  18.908  0.00  0.00    +0.000 A 
ATOM      6  C   UNL     1       2.835   6.715  18.369  0.00  0.00    +0.000 A 
ENDROOT
BRANCH   4   7
ATOM      7  N   UNL     1       0.981   8.947  20.701  0.00  0.00    +0.000 N 
ATOM      8  N   UNL     1       0.430   8.899  21.937  0.00  0.00    +0.000 NA
ATOM      9  C   UNL     1      -0.172  10.088  22.045  0.00  0.00    +0.000 A 
ATOM     10  C   UNL     1      -0.950  10.584  23.105  0.00  0.00    +0.000 A 
ATOM     11  C   UNL     1      -1.466  11.875  22.893  0.00  0.00    +0.000 A 
ATOM     12  C   UNL     1      -1.211  12.629  21.717  0.00  0.00    +0.000 A 
ATOM     13  C   UNL     1      -0.420  12.157  20.649  0.00  0.00    +0.000 A 
ATOM     14  C   UNL     1       0.092  10.858  20.832  0.00  0.00    +0.000 A 
ATOM     15  N   UNL     1       0.850  10.110  20.014  0.00  0.00    +0.000 NA
ENDBRANCH   4   7
BRANCH   1  16
ATOM     16  O   UNL     1       3.347   4.455  18.376  0.00  0.00    +0.000 OA
BRANCH  16  18
ATOM     17  C   UNL     1       2.923   2.110  17.801  0.00  0.00    +0.000 C 
ATOM     18  C   UNL     1       3.238   3.120  18.900  0.00  0.00    +0.000 C 
BRANCH  18  19
ATOM     19  C   UNL     1       4.622   2.797  19.478  0.00  0.00    +0.000 C 
ATOM     20  O   UNL     1       4.832   1.981  20.363  0.00  0.00    +0.000 OA
BRANCH  19  21
ATOM     21  O   UNL     1       5.621   3.520  18.909  0.00  0.00    +0.000 OA
ATOM     22  H   UNL     1       5.381   3.721  17.978  0.00  0.00    +0.000 HD
ENDBRANCH  19  21
ENDBRANCH  18  19
ENDBRANCH  16  18
ENDBRANCH   1  16
TORSDOF 5
ENDMDL
MODEL 7
REMARK VINA RESULT:      -6.9      0.989      1.758
REMARK  Name = 
REMARK  6 active torsions:
REMARK  status: ('A' for Active; 'I' for Inactive)
REMARK    1  A    between atoms: C_1  and  C_2
REMARK    2  A    between atoms: C_2  and  O_3
REMARK    3  A    between atoms: C_2  and  C_19
REMARK    4  A    between atoms: O_3  and  C_4
REMARK    5  A    between atoms: C_7  and  N_8
REMARK    6  A    between atoms: C_19  and  O_21
REMARK                            x       y       z     vdW  Elec       q    Type
REMARK                         _______ _______ _______ _____ _____    ______ ____
ROOT
ATOM      1  C   UNL     1       4.057   6.230  17.589  0.00  0.00    +0.000 A 
ATOM      2  C   UNL     1       3.585   5.687  18.781  0.00  0.00    +0.000 A 
ATOM      3  C   UNL     1       2.729   6.436  19.596  0.00  0.00    +0.000 A 
ATOM      4  C   UNL     1       2.341   7.735  19.227  0.00  0.00    +0.000 A 
ATOM      5  C   UNL     1       2.844   8.291  18.044  0.00  0.00    +0.000 A 
ATOM      6  C   UNL     1       3.703   7.538  17.241  0.00  0.00    +0.000 A 
ENDROOT
BRANCH   4   7
ATOM      7  N   UNL     1       1.424   8.457  20.038  0.00  0.00    +0.000 N 
ATOM      8  N   UNL     1       0.774   9.538  19.546  0.00  0.00    +0.000 NA
ATOM      9  C   UNL     1       0.123  10.011  20.614  0.00  0.00    +0.000 A 
ATOM     10  C   UNL     1      -0.684  11.157  20.712  0.00  0.00    +0.000 A 
ATOM     11  C   UNL     1      -1.207  11.392  21.996  0.00  0.00    +0.000 A 
ATOM     12  C   UNL     1      -0.959  10.536  23.103  0.00  0.00    +0.000 A 
ATOM     13  C   UNL     1      -0.165   9.373  23.022  0.00  0.00    +0.000 A 
ATOM     14  C   UNL     1       0.383   9.129  21.748  0.00  0.00    +0.000 A 
ATOM     15  N   UNL     1       1.192   8.138  21.337  0.00  0.00    +0.000 NA
ENDBRANCH   4   7
BRANCH   1  16
ATOM     16  O   UNL     1       4.875   5.617  16.690  0.00  0.00    +0.000 OA
BRANCH  16  18
ATOM     17  C   UNL     1       5.616   3.481  15.743  0.00  0.00    +0.000 C 
ATOM     18  C   UNL     1       5.433   4.327  16.998  0.00  0.00    +0.000 C 
BRANCH  18  19
ATOM     19  C   UNL     1       6.814   4.616  17.599  0.00  0.00    +0.000 C 
ATOM     20  O   UNL     1       7.018   4.897  18.771  0.00  0.00    +0.000 OA
BRANCH  19  21
ATOM     21  O   UNL     1       7.821   4.535  16.690  0.00  0.00    +0.000 OA
ATOM     22  H   UNL     1       8.141   3.607  16.648  0.00  0.00    +0.000 HD
ENDBRANCH  19  21
ENDBRANCH  18  19
ENDBRANCH  16  18
ENDBRANCH   1  16
TORSDOF 5
ENDMDL
MODEL 8
REMARK VINA RESULT:      -6.9      2.254      3.022
REMARK  Name = 
REMARK  6 active torsions:
REMARK  status: ('A' for Active; 'I' for Inactive)
REMARK    1  A    between atoms: C_1  and  C_2
REMARK    2  A    between atoms: C_2  and  O_3
REMARK    3  A    between atoms: C_2  and  C_19
REMARK    4  A    between atoms: O_3  and  C_4
REMARK    5  A    between atoms: C_7  and  N_8
REMARK    6  A    between atoms: C_19  and  O_21
REMARK                            x       y       z     vdW  Elec       q    Type
REMARK                         _______ _______ _______ _____ _____    ______ ____
ROOT
ATOM      1  C   UNL     1       3.066   6.598  18.499  0.00  0.00    +0.000 A 
ATOM      2  C   UNL     1       2.752   7.788  17.847  0.00  0.00    +0.000 A 
ATOM      3  C   UNL     1       1.954   8.742  18.489  0.00  0.00    +0.000 A 
ATOM      4  C   UNL     1       1.461   8.512  19.784  0.00  0.00    +0.000 A 
ATOM      5  C   UNL     1       1.751   7.300  20.423  0.00  0.00    +0.000 A 
ATOM      6  C   UNL     1       2.543   6.351  19.772  0.00  0.00    +0.000 A 
ENDROOT
BRANCH   4   7
ATOM      7  N   UNL     1       0.702   9.518  20.441  0.00  0.00    +0.000 N 
ATOM      8  N   UNL     1       0.338   9.368  21.737  0.00  0.00    +0.000 NA
ATOM      9  C   UNL     1      -0.453  10.425  21.953  0.00  0.00    +0.000 A 
ATOM     10  C   UNL     1      -1.160  10.767  23.117  0.00  0.00    +0.000 A 
ATOM     11  C   UNL     1      -1.928  11.940  23.007  0.00  0.00    +0.000 A 
ATOM     12  C   UNL     1      -1.976  12.728  21.826  0.00  0.00    +0.000 A 
ATOM     13  C   UNL     1      -1.261  12.411  20.652  0.00  0.00    +0.000 A 
ATOM     14  C   UNL     1      -0.498  11.230  20.735  0.00  0.00    +0.000 A 
ATOM     15  N   UNL     1       0.268  10.636  19.806  0.00  0.00    +0.000 NA
ENDBRANCH   4   7
BRANCH   1  16
ATOM     16  O   UNL     1       3.844   5.592  18.012  0.00  0.00    +0.000 OA
BRANCH  16  18
ATOM     17  C   UNL     1       3.268   3.305  17.345  0.00  0.00    +0.000 C 
ATOM     18  C   UNL     1       3.647   4.247  18.483  0.00  0.00    +0.000 C 
BRANCH  18  19
ATOM     19  C   UNL     1       5.005   3.811  19.047  0.00  0.00    +0.000 C 
ATOM     20  O   UNL     1       5.976   4.544  19.168  0.00  0.00    +0.000 OA
BRANCH  19  21
ATOM     21  O   UNL     1       5.039   2.501  19.407  0.00  0.00    +0.000 OA
ATOM     22  H   UNL     1       4.571   2.392  20.263  0.00  0.00    +0.000 HD
ENDBRANCH  19  21
ENDBRANCH  18  19
ENDBRANCH  16  18
ENDBRANCH   1  16
TORSDOF 5
ENDMDL
MODEL 9
REMARK VINA RESULT:      -6.8      4.201      8.332
REMARK  Name = 
REMARK  6 active torsions:
REMARK  status: ('A' for Active; 'I' for Inactive)
REMARK    1  A    between atoms: C_1  and  C_2
REMARK    2  A    between atoms: C_2  and  O_3
REMARK    3  A    between atoms: C_2  and  C_19
REMARK    4  A    between atoms: O_3  and  C_4
REMARK    5  A    between atoms: C_7  and  N_8
REMARK    6  A    between atoms: C_19  and  O_21
REMARK                            x       y       z     vdW  Elec       q    Type
REMARK                         _______ _______ _______ _____ _____    ______ ____
ROOT
ATOM      1  C   UNL     1       0.650   9.317  20.049  0.00  0.00    +0.000 A 
ATOM      2  C   UNL     1       1.198   8.217  20.704  0.00  0.00    +0.000 A 
ATOM      3  C   UNL     1       2.058   7.354  20.014  0.00  0.00    +0.000 A 
ATOM      4  C   UNL     1       2.372   7.583  18.664  0.00  0.00    +0.000 A 
ATOM      5  C   UNL     1       1.792   8.670  17.999  0.00  0.00    +0.000 A 
ATOM      6  C   UNL     1       0.930   9.522  18.694  0.00  0.00    +0.000 A 
ENDROOT
BRANCH   4   7
ATOM      7  N   UNL     1       3.292   6.729  17.997  0.00  0.00    +0.000 N 
ATOM      8  N   UNL     1       4.201   7.239  17.133  0.00  0.00    +0.000 NA
ATOM      9  C   UNL     1       4.780   6.146  16.624  0.00  0.00    +0.000 A 
ATOM     10  C   UNL     1       5.774   6.060  15.635  0.00  0.00    +0.000 A 
ATOM     11  C   UNL     1       6.152   4.747  15.303  0.00  0.00    +0.000 A 
ATOM     12  C   UNL     1       5.594   3.598  15.924  0.00  0.00    +0.000 A 
ATOM     13  C   UNL     1       4.608   3.663  16.931  0.00  0.00    +0.000 A 
ATOM     14  C   UNL     1       4.202   4.969  17.266  0.00  0.00    +0.000 A 
ATOM     15  N   UNL     1       3.279   5.380  18.152  0.00  0.00    +0.000 NA
ENDBRANCH   4   7
BRANCH   1  16
ATOM     16  O   UNL     1      -0.181  10.249  20.593  0.00  0.00    +0.000 OA
BRANCH  16  18
ATOM     17  C   UNL     1       0.023  12.552  21.406  0.00  0.00    +0.000 C 
ATOM     18  C   UNL     1       0.285  11.074  21.675  0.00  0.00    +0.000 C 
BRANCH  18  19
ATOM     19  C   UNL     1      -0.539  10.645  22.896  0.00  0.00    +0.000 C 
ATOM     20  O   UNL     1      -1.676  11.026  23.136  0.00  0.00    +0.000 OA
BRANCH  19  21
ATOM     21  O   UNL     1       0.123   9.786  23.713  0.00  0.00    +0.000 OA
ATOM     22  H   UNL     1       1.059   9.725  23.424  0.00  0.00    +0.000 HD
ENDBRANCH  19  21
ENDBRANCH  18  19
ENDBRANCH  16  18
ENDBRANCH   1  16
TORSDOF 5
ENDMDL
