MODEL 1
REMARK VINA RESULT:      -8.6      0.000      0.000
REMARK  Name = 
REMARK  7 active torsions:
REMARK  status: ('A' for Active; 'I' for Inactive)
REMARK    1  A    between atoms: C_2  and  O_3
REMARK    2  A    between atoms: C_2  and  C_4
REMARK    3  A    between atoms: C_4  and  C_6
REMARK    4  A    between atoms: N_15  and  S_16
REMARK    5  A    between atoms: S_16  and  C_19
REMARK    6  A    between atoms: C_22  and  C_23
REMARK    7  A    between atoms: C_26  and  C_27
REMARK                            x       y       z     vdW  Elec       q    Type
REMARK                         _______ _______ _______ _____ _____    ______ ____
ROOT
ATOM      1  S   UNL     1       0.427  12.209  20.371  0.00  0.00    +0.000 S 
ATOM      2  O   UNL     1       0.505  12.875  19.088  0.00  0.00    +0.000 OA
ATOM      3  O   UNL     1       1.123  12.741  21.523  0.00  0.00    +0.000 OA
ENDROOT
BRANCH   1  13
ATOM      4  C   UNL     1      -2.117  13.039  20.023  0.00  0.00    +0.000 C 
ATOM      5  C   UNL     1      -2.452  14.265  20.882  0.00  0.00    +0.000 C 
ATOM      6  C   UNL     1      -3.218  13.804  22.093  0.00  0.00    +0.000 A 
ATOM      7  C   UNL     1      -4.356  14.471  22.550  0.00  0.00    +0.000 A 
ATOM      8  C   UNL     1      -5.058  13.970  23.645  0.00  0.00    +0.000 A 
ATOM      9  C   UNL     1      -4.616  12.816  24.291  0.00  0.00    +0.000 A 
ATOM     10  C   UNL     1      -3.471  12.154  23.844  0.00  0.00    +0.000 A 
ATOM     11  C   UNL     1      -2.773  12.635  22.731  0.00  0.00    +0.000 A 
ATOM     12  C   UNL     1      -1.503  11.970  22.247  0.00  0.00    +0.000 C 
ATOM     13  N   UNL     1      -1.225  12.075  20.780  0.00  0.00    +0.000 NA
BRANCH   4  14
ATOM     14  C   UNL     1      -3.381  12.344  19.530  0.00  0.00    +0.000 C 
ATOM     15  O   UNL     1      -4.519  12.436  19.990  0.00  0.00    +0.000 OA
BRANCH  14  17
ATOM     16  O   UNL     1      -3.899  11.579  17.298  0.00  0.00    +0.000 OA
ATOM     17  C   UNL     1      -3.213  11.466  18.290  0.00  0.00    +0.000 C 
BRANCH  17  18
ATOM     18  O   UNL     1      -2.232  10.561  18.462  0.00  0.00    +0.000 OA
ATOM     19  H   UNL     1      -2.534   9.864  19.093  0.00  0.00    +0.000 HD
ENDBRANCH  17  18
ENDBRANCH  14  17
ENDBRANCH   4  14
ENDBRANCH   1  13
BRANCH   1  20
ATOM     20  C   UNL     1       0.944  10.526  20.129  0.00  0.00    +0.000 A 
ATOM     21  C   UNL     1       1.351  10.112  18.863  0.00  0.00    +0.000 A 
ATOM     22  C   UNL     1       1.744   8.784  18.659  0.00  0.00    +0.000 A 
ATOM     23  C   UNL     1       1.755   7.844  19.709  0.00  0.00    +0.000 A 
ATOM     24  C   UNL     1       1.409   8.316  20.991  0.00  0.00    +0.000 A 
ATOM     25  C   UNL     1       1.009   9.643  21.207  0.00  0.00    +0.000 A 
BRANCH  23  26
ATOM     26  C   UNL     1       2.066   6.412  19.457  0.00  0.00    +0.000 A 
ATOM     27  C   UNL     1       2.505   5.954  18.201  0.00  0.00    +0.000 A 
ATOM     28  C   UNL     1       2.699   4.590  17.939  0.00  0.00    +0.000 A 
ATOM     29  C   UNL     1       2.478   3.634  18.936  0.00  0.00    +0.000 A 
ATOM     30  C   UNL     1       2.081   4.075  20.203  0.00  0.00    +0.000 A 
ATOM     31  C   UNL     1       1.875   5.437  20.454  0.00  0.00    +0.000 A 
BRANCH  29  32
ATOM     32  C   UNL     1       2.643   2.159  18.666  0.00  0.00    +0.000 C 
ATOM     33  F   UNL     1       1.777   1.375  19.366  0.00  0.00    +0.000 F 
ATOM     34  F   UNL     1       2.454   1.845  17.354  0.00  0.00    +0.000 F 
ATOM     35  F   UNL     1       3.889   1.710  18.981  0.00  0.00    +0.000 F 
ENDBRANCH  29  32
ENDBRANCH  23  26
ENDBRANCH   1  20
TORSDOF 7
ENDMDL
MODEL 2
REMARK VINA RESULT:      -8.6      0.544      1.111
REMARK  Name = 
REMARK  7 active torsions:
REMARK  status: ('A' for Active; 'I' for Inactive)
REMARK    1  A    between atoms: C_2  and  O_3
REMARK    2  A    between atoms: C_2  and  C_4
REMARK    3  A    between atoms: C_4  and  C_6
REMARK    4  A    between atoms: N_15  and  S_16
REMARK    5  A    between atoms: S_16  and  C_19
REMARK    6  A    between atoms: C_22  and  C_23
REMARK    7  A    between atoms: C_26  and  C_27
REMARK                            x       y       z     vdW  Elec       q    Type
REMARK                         _______ _______ _______ _____ _____    ______ ____
ROOT
ATOM      1  S   UNL     1       0.524  12.158  20.278  0.00  0.00    +0.000 S 
ATOM      2  O   UNL     1       0.594  12.841  19.004  0.00  0.00    +0.000 OA
ATOM      3  O   UNL     1       1.246  12.662  21.427  0.00  0.00    +0.000 OA
ENDROOT
BRANCH   1  13
ATOM      4  C   UNL     1      -2.010  13.038  19.985  0.00  0.00    +0.000 C 
ATOM      5  C   UNL     1      -2.310  14.254  20.870  0.00  0.00    +0.000 C 
ATOM      6  C   UNL     1      -3.065  13.785  22.085  0.00  0.00    +0.000 A 
ATOM      7  C   UNL     1      -4.184  14.464  22.571  0.00  0.00    +0.000 A 
ATOM      8  C   UNL     1      -4.878  13.955  23.668  0.00  0.00    +0.000 A 
ATOM      9  C   UNL     1      -4.446  12.782  24.287  0.00  0.00    +0.000 A 
ATOM     10  C   UNL     1      -3.320  12.109  23.810  0.00  0.00    +0.000 A 
ATOM     11  C   UNL     1      -2.632  12.597  22.695  0.00  0.00    +0.000 A 
ATOM     12  C   UNL     1      -1.381  11.919  22.180  0.00  0.00    +0.000 C 
ATOM     13  N   UNL     1      -1.124  12.045  20.710  0.00  0.00    +0.000 NA
BRANCH   4  14
ATOM     14  C   UNL     1      -3.293  12.375  19.499  0.00  0.00    +0.000 C 
ATOM     15  O   UNL     1      -4.438  12.553  19.917  0.00  0.00    +0.000 OA
BRANCH  14  17
ATOM     16  O   UNL     1      -3.973  10.585  18.027  0.00  0.00    +0.000 OA
ATOM     17  C   UNL     1      -3.136  11.407  18.326  0.00  0.00    +0.000 C 
BRANCH  17  18
ATOM     18  O   UNL     1      -1.956  11.584  17.703  0.00  0.00    +0.000 OA
ATOM     19  H   UNL     1      -1.545  12.427  18.010  0.00  0.00    +0.000 HD
ENDBRANCH  17  18
ENDBRANCH  14  17
ENDBRANCH   4  14
ENDBRANCH   1  13
BRANCH   1  20
ATOM     20  C   UNL     1       1.009  10.470  20.004  0.00  0.00    +0.000 A 
ATOM     21  C   UNL     1       0.974   9.568  21.065  0.00  0.00    +0.000 A 
ATOM     22  C   UNL     1       1.370   8.241  20.861  0.00  0.00    +0.000 A 
ATOM     23  C   UNL     1       1.794   7.778  19.599  0.00  0.00    +0.000 A 
ATOM     24  C   UNL     1       1.745   8.699  18.533  0.00  0.00    +0.000 A 
ATOM     25  C   UNL     1       1.355  10.032  18.726  0.00  0.00    +0.000 A 
BRANCH  23  26
ATOM     26  C   UNL     1       2.317   6.398  19.422  0.00  0.00    +0.000 A 
ATOM     27  C   UNL     1       2.987   5.999  18.251  0.00  0.00    +0.000 A 
ATOM     28  C   UNL     1       3.389   4.671  18.046  0.00  0.00    +0.000 A 
ATOM     29  C   UNL     1       3.150   3.696  19.019  0.00  0.00    +0.000 A 
ATOM     30  C   UNL     1       2.522   4.082  20.207  0.00  0.00    +0.000 A 
ATOM     31  C   UNL     1       2.110   5.408  20.400  0.00  0.00    +0.000 A 
BRANCH  29  32
ATOM     32  C   UNL     1       3.538   2.254  18.803  0.00  0.00    +0.000 C 
ATOM     33  F   UNL     1       4.510   1.817  19.651  0.00  0.00    +0.000 F 
ATOM     34  F   UNL     1       2.488   1.401  18.967  0.00  0.00    +0.000 F 
ATOM     35  F   UNL     1       4.010   2.025  17.547  0.00  0.00    +0.000 F 
ENDBRANCH  29  32
ENDBRANCH  23  26
ENDBRANCH   1  20
TORSDOF 7
ENDMDL
MODEL 3
REMARK VINA RESULT:      -8.6      2.667      4.058
REMARK  Name = 
REMARK  7 active torsions:
REMARK  status: ('A' for Active; 'I' for Inactive)
REMARK    1  A    between atoms: C_2  and  O_3
REMARK    2  A    between atoms: C_2  and  C_4
REMARK    3  A    between atoms: C_4  and  C_6
REMARK    4  A    between atoms: N_15  and  S_16
REMARK    5  A    between atoms: S_16  and  C_19
REMARK    6  A    between atoms: C_22  and  C_23
REMARK    7  A    between atoms: C_26  and  C_27
REMARK                            x       y       z     vdW  Elec       q    Type
REMARK                         _______ _______ _______ _____ _____    ______ ____
ROOT
ATOM      1  S   UNL     1       0.027  10.008  20.995  0.00  0.00    +0.000 S 
ATOM      2  O   UNL     1       0.826  10.871  21.839  0.00  0.00    +0.000 OA
ATOM      3  O   UNL     1      -0.959   9.119  21.572  0.00  0.00    +0.000 OA
ENDROOT
BRANCH   1  13
ATOM      4  C   UNL     1      -1.330  12.276  20.449  0.00  0.00    +0.000 C 
ATOM      5  C   UNL     1      -2.832  12.137  20.729  0.00  0.00    +0.000 C 
ATOM      6  C   UNL     1      -3.541  11.901  19.423  0.00  0.00    +0.000 A 
ATOM      7  C   UNL     1      -4.724  12.564  19.091  0.00  0.00    +0.000 A 
ATOM      8  C   UNL     1      -5.311  12.349  17.844  0.00  0.00    +0.000 A 
ATOM      9  C   UNL     1      -4.726  11.463  16.939  0.00  0.00    +0.000 A 
ATOM     10  C   UNL     1      -3.550  10.790  17.274  0.00  0.00    +0.000 A 
ATOM     11  C   UNL     1      -2.940  11.018  18.513  0.00  0.00    +0.000 A 
ATOM     12  C   UNL     1      -1.692  10.271  18.927  0.00  0.00    +0.000 C 
ATOM     13  N   UNL     1      -0.770  10.999  19.856  0.00  0.00    +0.000 NA
BRANCH   4  14
ATOM     14  C   UNL     1      -1.041  13.471  19.549  0.00  0.00    +0.000 C 
ATOM     15  O   UNL     1      -1.457  14.624  19.672  0.00  0.00    +0.000 OA
BRANCH  14  17
ATOM     16  O   UNL     1       1.118  13.193  18.504  0.00  0.00    +0.000 OA
ATOM     17  C   UNL     1      -0.086  13.209  18.384  0.00  0.00    +0.000 C 
BRANCH  17  18
ATOM     18  O   UNL     1      -0.761  13.022  17.235  0.00  0.00    +0.000 OA
ATOM     19  H   UNL     1      -1.197  12.136  17.249  0.00  0.00    +0.000 HD
ENDBRANCH  17  18
ENDBRANCH  14  17
ENDBRANCH   4  14
ENDBRANCH   1  13
BRANCH   1  20
ATOM     20  C   UNL     1       1.148   9.042  20.010  0.00  0.00    +0.000 A 
ATOM     21  C   UNL     1       1.566   9.530  18.774  0.00  0.00    +0.000 A 
ATOM     22  C   UNL     1       2.436   8.769  17.984  0.00  0.00    +0.000 A 
ATOM     23  C   UNL     1       2.920   7.516  18.411  0.00  0.00    +0.000 A 
ATOM     24  C   UNL     1       2.535   7.087  19.697  0.00  0.00    +0.000 A 
ATOM     25  C   UNL     1       1.661   7.839  20.495  0.00  0.00    +0.000 A 
BRANCH  23  26
ATOM     26  C   UNL     1       3.752   6.668  17.517  0.00  0.00    +0.000 A 
ATOM     27  C   UNL     1       4.575   7.220  16.518  0.00  0.00    +0.000 A 
ATOM     28  C   UNL     1       5.278   6.414  15.612  0.00  0.00    +0.000 A 
ATOM     29  C   UNL     1       5.197   5.020  15.685  0.00  0.00    +0.000 A 
ATOM     30  C   UNL     1       4.416   4.452  16.698  0.00  0.00    +0.000 A 
ATOM     31  C   UNL     1       3.705   5.263  17.591  0.00  0.00    +0.000 A 
BRANCH  29  32
ATOM     32  C   UNL     1       5.914   4.134  14.697  0.00  0.00    +0.000 C 
ATOM     33  F   UNL     1       7.138   4.604  14.329  0.00  0.00    +0.000 F 
ATOM     34  F   UNL     1       6.126   2.878  15.181  0.00  0.00    +0.000 F 
ATOM     35  F   UNL     1       5.213   3.974  13.540  0.00  0.00    +0.000 F 
ENDBRANCH  29  32
ENDBRANCH  23  26
ENDBRANCH   1  20
TORSDOF 7
ENDMDL
MODEL 4
REMARK VINA RESULT:      -8.5      2.607      4.051
REMARK  Name = 
REMARK  7 active torsions:
REMARK  status: ('A' for Active; 'I' for Inactive)
REMARK    1  A    between atoms: C_2  and  O_3
REMARK    2  A    between atoms: C_2  and  C_4
REMARK    3  A    between atoms: C_4  and  C_6
REMARK    4  A    between atoms: N_15  and  S_16
REMARK    5  A    between atoms: S_16  and  C_19
REMARK    6  A    between atoms: C_22  and  C_23
REMARK    7  A    between atoms: C_26  and  C_27
REMARK                            x       y       z     vdW  Elec       q    Type
REMARK                         _______ _______ _______ _____ _____    ______ ____
ROOT
ATOM      1  S   UNL     1       0.254  10.313  21.078  0.00  0.00    +0.000 S 
ATOM      2  O   UNL     1       1.196  11.168  21.769  0.00  0.00    +0.000 OA
ATOM      3  O   UNL     1      -0.709   9.526  21.819  0.00  0.00    +0.000 OA
ENDROOT
BRANCH   1  13
ATOM      4  C   UNL     1      -1.119  12.581  20.575  0.00  0.00    +0.000 C 
ATOM      5  C   UNL     1      -2.599  12.462  20.959  0.00  0.00    +0.000 C 
ATOM      6  C   UNL     1      -3.397  12.206  19.708  0.00  0.00    +0.000 A 
ATOM      7  C   UNL     1      -4.594  12.873  19.442  0.00  0.00    +0.000 A 
ATOM      8  C   UNL     1      -5.264  12.637  18.242  0.00  0.00    +0.000 A 
ATOM      9  C   UNL     1      -4.749  11.727  17.319  0.00  0.00    +0.000 A 
ATOM     10  C   UNL     1      -3.558  11.050  17.589  0.00  0.00    +0.000 A 
ATOM     11  C   UNL     1      -2.865  11.298  18.779  0.00  0.00    +0.000 A 
ATOM     12  C   UNL     1      -1.597  10.548  19.124  0.00  0.00    +0.000 C 
ATOM     13  N   UNL     1      -0.609  11.287  19.974  0.00  0.00    +0.000 NA
BRANCH   4  14
ATOM     14  C   UNL     1      -0.881  13.754  19.633  0.00  0.00    +0.000 C 
ATOM     15  O   UNL     1      -0.597  13.713  18.435  0.00  0.00    +0.000 OA
BRANCH  14  17
ATOM     16  O   UNL     1      -0.441  15.529  21.210  0.00  0.00    +0.000 OA
ATOM     17  C   UNL     1      -1.061  15.143  20.245  0.00  0.00    +0.000 C 
BRANCH  17  18
ATOM     18  O   UNL     1      -1.998  15.849  19.585  0.00  0.00    +0.000 OA
ATOM     19  H   UNL     1      -1.562  16.538  19.029  0.00  0.00    +0.000 HD
ENDBRANCH  17  18
ENDBRANCH  14  17
ENDBRANCH   4  14
ENDBRANCH   1  13
BRANCH   1  20
ATOM     20  C   UNL     1       1.193   9.219  20.038  0.00  0.00    +0.000 A 
ATOM     21  C   UNL     1       1.586   7.977  20.531  0.00  0.00    +0.000 A 
ATOM     22  C   UNL     1       2.340   7.116  19.725  0.00  0.00    +0.000 A 
ATOM     23  C   UNL     1       2.707   7.464  18.409  0.00  0.00    +0.000 A 
ATOM     24  C   UNL     1       2.229   8.696  17.918  0.00  0.00    +0.000 A 
ATOM     25  C   UNL     1       1.477   9.568  18.718  0.00  0.00    +0.000 A 
BRANCH  23  26
ATOM     26  C   UNL     1       3.601   6.590  17.603  0.00  0.00    +0.000 A 
ATOM     27  C   UNL     1       4.567   7.118  16.727  0.00  0.00    +0.000 A 
ATOM     28  C   UNL     1       5.338   6.293  15.895  0.00  0.00    +0.000 A 
ATOM     29  C   UNL     1       5.180   4.904  15.924  0.00  0.00    +0.000 A 
ATOM     30  C   UNL     1       4.253   4.359  16.819  0.00  0.00    +0.000 A 
ATOM     31  C   UNL     1       3.476   5.189  17.637  0.00  0.00    +0.000 A 
BRANCH  29  32
ATOM     32  C   UNL     1       5.970   4.000  15.010  0.00  0.00    +0.000 C 
ATOM     33  F   UNL     1       6.008   2.703  15.424  0.00  0.00    +0.000 F 
ATOM     34  F   UNL     1       5.470   3.974  13.743  0.00  0.00    +0.000 F 
ATOM     35  F   UNL     1       7.269   4.391  14.890  0.00  0.00    +0.000 F 
ENDBRANCH  29  32
ENDBRANCH  23  26
ENDBRANCH   1  20
TORSDOF 7
ENDMDL
MODEL 5
REMARK VINA RESULT:      -8.4      0.400      1.174
REMARK  Name = 
REMARK  7 active torsions:
REMARK  status: ('A' for Active; 'I' for Inactive)
REMARK    1  A    between atoms: C_2  and  O_3
REMARK    2  A    between atoms: C_2  and  C_4
REMARK    3  A    between atoms: C_4  and  C_6
REMARK    4  A    between atoms: N_15  and  S_16
REMARK    5  A    between atoms: S_16  and  C_19
REMARK    6  A    between atoms: C_22  and  C_23
REMARK    7  A    between atoms: C_26  and  C_27
REMARK                            x       y       z     vdW  Elec       q    Type
REMARK                         _______ _______ _______ _____ _____    ______ ____
ROOT
ATOM      1  S   UNL     1       0.410  12.218  20.303  0.00  0.00    +0.000 S 
ATOM      2  O   UNL     1       0.465  12.864  19.009  0.00  0.00    +0.000 OA
ATOM      3  O   UNL     1       1.110  12.778  21.439  0.00  0.00    +0.000 OA
ENDROOT
BRANCH   1  13
ATOM      4  C   UNL     1      -2.149  13.011  19.976  0.00  0.00    +0.000 C 
ATOM      5  C   UNL     1      -2.490  14.240  20.828  0.00  0.00    +0.000 C 
ATOM      6  C   UNL     1      -3.236  13.780  22.052  0.00  0.00    +0.000 A 
ATOM      7  C   UNL     1      -4.378  14.436  22.515  0.00  0.00    +0.000 A 
ATOM      8  C   UNL     1      -5.061  13.936  23.623  0.00  0.00    +0.000 A 
ATOM      9  C   UNL     1      -4.597  12.793  24.274  0.00  0.00    +0.000 A 
ATOM     10  C   UNL     1      -3.448  12.142  23.819  0.00  0.00    +0.000 A 
ATOM     11  C   UNL     1      -2.770  12.623  22.694  0.00  0.00    +0.000 A 
ATOM     12  C   UNL     1      -1.496  11.970  22.202  0.00  0.00    +0.000 C 
ATOM     13  N   UNL     1      -1.236  12.066  20.731  0.00  0.00    +0.000 NA
BRANCH   4  14
ATOM     14  C   UNL     1      -3.408  12.296  19.503  0.00  0.00    +0.000 C 
ATOM     15  O   UNL     1      -4.546  12.388  19.966  0.00  0.00    +0.000 OA
BRANCH  14  17
ATOM     16  O   UNL     1      -2.720  10.301  18.329  0.00  0.00    +0.000 OA
ATOM     17  C   UNL     1      -3.239  11.394  18.281  0.00  0.00    +0.000 C 
BRANCH  17  18
ATOM     18  O   UNL     1      -3.721  11.982  17.170  0.00  0.00    +0.000 OA
ATOM     19  H   UNL     1      -4.707  11.949  17.181  0.00  0.00    +0.000 HD
ENDBRANCH  17  18
ENDBRANCH  14  17
ENDBRANCH   4  14
ENDBRANCH   1  13
BRANCH   1  20
ATOM     20  C   UNL     1       0.949  10.539  20.081  0.00  0.00    +0.000 A 
ATOM     21  C   UNL     1       1.369  10.116  18.822  0.00  0.00    +0.000 A 
ATOM     22  C   UNL     1       1.780   8.791  18.635  0.00  0.00    +0.000 A 
ATOM     23  C   UNL     1       1.796   7.863  19.695  0.00  0.00    +0.000 A 
ATOM     24  C   UNL     1       1.436   8.344  20.970  0.00  0.00    +0.000 A 
ATOM     25  C   UNL     1       1.019   9.668  21.169  0.00  0.00    +0.000 A 
BRANCH  23  26
ATOM     26  C   UNL     1       2.127   6.432  19.460  0.00  0.00    +0.000 A 
ATOM     27  C   UNL     1       1.885   5.441  20.430  0.00  0.00    +0.000 A 
ATOM     28  C   UNL     1       2.291   4.112  20.244  0.00  0.00    +0.000 A 
ATOM     29  C   UNL     1       2.939   3.722  19.068  0.00  0.00    +0.000 A 
ATOM     30  C   UNL     1       3.151   4.685  18.075  0.00  0.00    +0.000 A 
ATOM     31  C   UNL     1       2.756   6.014  18.273  0.00  0.00    +0.000 A 
BRANCH  29  32
ATOM     32  C   UNL     1       3.420   2.307  18.863  0.00  0.00    +0.000 C 
ATOM     33  F   UNL     1       4.435   1.948  19.697  0.00  0.00    +0.000 F 
ATOM     34  F   UNL     1       2.433   1.388  19.057  0.00  0.00    +0.000 F 
ATOM     35  F   UNL     1       3.884   2.094  17.600  0.00  0.00    +0.000 F 
ENDBRANCH  29  32
ENDBRANCH  23  26
ENDBRANCH   1  20
TORSDOF 7
ENDMDL
MODEL 6
REMARK VINA RESULT:      -8.3      2.724      4.196
REMARK  Name = 
REMARK  7 active torsions:
REMARK  status: ('A' for Active; 'I' for Inactive)
REMARK    1  A    between atoms: C_2  and  O_3
REMARK    2  A    between atoms: C_2  and  C_4
REMARK    3  A    between atoms: C_4  and  C_6
REMARK    4  A    between atoms: N_15  and  S_16
REMARK    5  A    between atoms: S_16  and  C_19
REMARK    6  A    between atoms: C_22  and  C_23
REMARK    7  A    between atoms: C_26  and  C_27
REMARK                            x       y       z     vdW  Elec       q    Type
REMARK                         _______ _______ _______ _____ _____    ______ ____
ROOT
ATOM      1  S   UNL     1       0.105  10.032  20.855  0.00  0.00    +0.000 S 
ATOM      2  O   UNL     1       0.911  10.917  21.670  0.00  0.00    +0.000 OA
ATOM      3  O   UNL     1      -0.879   9.161  21.463  0.00  0.00    +0.000 OA
ENDROOT
BRANCH   1  13
ATOM      4  C   UNL     1      -1.225  12.299  20.246  0.00  0.00    +0.000 C 
ATOM      5  C   UNL     1      -2.723  12.197  20.559  0.00  0.00    +0.000 C 
ATOM      6  C   UNL     1      -3.461  11.923  19.276  0.00  0.00    +0.000 A 
ATOM      7  C   UNL     1      -4.639  12.593  18.940  0.00  0.00    +0.000 A 
ATOM      8  C   UNL     1      -5.252  12.340  17.714  0.00  0.00    +0.000 A 
ATOM      9  C   UNL     1      -4.700  11.410  16.834  0.00  0.00    +0.000 A 
ATOM     10  C   UNL     1      -3.529  10.730  17.173  0.00  0.00    +0.000 A 
ATOM     11  C   UNL     1      -2.892  10.995  18.390  0.00  0.00    +0.000 A 
ATOM     12  C   UNL     1      -1.648  10.244  18.810  0.00  0.00    +0.000 C 
ATOM     13  N   UNL     1      -0.697  10.991  19.693  0.00  0.00    +0.000 NA
BRANCH   4  14
ATOM     14  C   UNL     1      -0.934  13.454  19.296  0.00  0.00    +0.000 C 
ATOM     15  O   UNL     1      -0.696  13.394  18.089  0.00  0.00    +0.000 OA
BRANCH  14  17
ATOM     16  O   UNL     1      -0.023  15.404  20.391  0.00  0.00    +0.000 OA
ATOM     17  C   UNL     1      -0.988  14.851  19.914  0.00  0.00    +0.000 C 
BRANCH  17  18
ATOM     18  O   UNL     1      -2.235  15.356  19.868  0.00  0.00    +0.000 OA
ATOM     19  H   UNL     1      -2.774  14.969  20.598  0.00  0.00    +0.000 HD
ENDBRANCH  17  18
ENDBRANCH  14  17
ENDBRANCH   4  14
ENDBRANCH   1  13
BRANCH   1  20
ATOM     20  C   UNL     1       1.219   9.037  19.891  0.00  0.00    +0.000 A 
ATOM     21  C   UNL     1       1.659   9.506  18.656  0.00  0.00    +0.000 A 
ATOM     22  C   UNL     1       2.524   8.722  17.883  0.00  0.00    +0.000 A 
ATOM     23  C   UNL     1       2.979   7.463  18.326  0.00  0.00    +0.000 A 
ATOM     24  C   UNL     1       2.573   7.054  19.611  0.00  0.00    +0.000 A 
ATOM     25  C   UNL     1       1.704   7.829  20.393  0.00  0.00    +0.000 A 
BRANCH  23  26
ATOM     26  C   UNL     1       3.806   6.592  17.448  0.00  0.00    +0.000 A 
ATOM     27  C   UNL     1       4.681   7.122  16.482  0.00  0.00    +0.000 A 
ATOM     28  C   UNL     1       5.381   6.298  15.589  0.00  0.00    +0.000 A 
ATOM     29  C   UNL     1       5.242   4.907  15.644  0.00  0.00    +0.000 A 
ATOM     30  C   UNL     1       4.408   4.361  16.625  0.00  0.00    +0.000 A 
ATOM     31  C   UNL     1       3.701   5.190  17.505  0.00  0.00    +0.000 A 
BRANCH  29  32
ATOM     32  C   UNL     1       5.955   4.003  14.669  0.00  0.00    +0.000 C 
ATOM     33  F   UNL     1       5.281   3.823  13.499  0.00  0.00    +0.000 F 
ATOM     34  F   UNL     1       7.185   4.476  14.323  0.00  0.00    +0.000 F 
ATOM     35  F   UNL     1       6.163   2.756  15.174  0.00  0.00    +0.000 F 
ENDBRANCH  29  32
ENDBRANCH  23  26
ENDBRANCH   1  20
TORSDOF 7
ENDMDL
MODEL 7
REMARK VINA RESULT:      -8.3      2.663      4.127
REMARK  Name = 
REMARK  7 active torsions:
REMARK  status: ('A' for Active; 'I' for Inactive)
REMARK    1  A    between atoms: C_2  and  O_3
REMARK    2  A    between atoms: C_2  and  C_4
REMARK    3  A    between atoms: C_4  and  C_6
REMARK    4  A    between atoms: N_15  and  S_16
REMARK    5  A    between atoms: S_16  and  C_19
REMARK    6  A    between atoms: C_22  and  C_23
REMARK    7  A    between atoms: C_26  and  C_27
REMARK                            x       y       z     vdW  Elec       q    Type
REMARK                         _______ _______ _______ _____ _____    ______ ____
ROOT
ATOM      1  S   UNL     1       0.134  10.123  20.978  0.00  0.00    +0.000 S 
ATOM      2  O   UNL     1       0.999  10.982  21.759  0.00  0.00    +0.000 OA
ATOM      3  O   UNL     1      -0.857   9.289  21.623  0.00  0.00    +0.000 OA
ENDROOT
BRANCH   1  13
ATOM      4  C   UNL     1      -1.196  12.405  20.424  0.00  0.00    +0.000 C 
ATOM      5  C   UNL     1      -2.691  12.300  20.748  0.00  0.00    +0.000 C 
ATOM      6  C   UNL     1      -3.441  12.053  19.466  0.00  0.00    +0.000 A 
ATOM      7  C   UNL     1      -4.620  12.732  19.154  0.00  0.00    +0.000 A 
ATOM      8  C   UNL     1      -5.244  12.504  17.928  0.00  0.00    +0.000 A 
ATOM      9  C   UNL     1      -4.702  11.590  17.025  0.00  0.00    +0.000 A 
ATOM     10  C   UNL     1      -3.529  10.901  17.341  0.00  0.00    +0.000 A 
ATOM     11  C   UNL     1      -2.882  11.141  18.558  0.00  0.00    +0.000 A 
ATOM     12  C   UNL     1      -1.636  10.379  18.952  0.00  0.00    +0.000 C 
ATOM     13  N   UNL     1      -0.675  11.106  19.841  0.00  0.00    +0.000 NA
BRANCH   4  14
ATOM     14  C   UNL     1      -0.910  13.577  19.493  0.00  0.00    +0.000 C 
ATOM     15  O   UNL     1      -0.619  13.535  18.297  0.00  0.00    +0.000 OA
BRANCH  14  17
ATOM     16  O   UNL     1      -0.748  15.210  21.265  0.00  0.00    +0.000 OA
ATOM     17  C   UNL     1      -1.043  14.966  20.116  0.00  0.00    +0.000 C 
BRANCH  17  18
ATOM     18  O   UNL     1      -1.540  15.851  19.232  0.00  0.00    +0.000 OA
ATOM     19  H   UNL     1      -2.259  15.424  18.708  0.00  0.00    +0.000 HD
ENDBRANCH  17  18
ENDBRANCH  14  17
ENDBRANCH   4  14
ENDBRANCH   1  13
BRANCH   1  20
ATOM     20  C   UNL     1       1.177   9.087  19.979  0.00  0.00    +0.000 A 
ATOM     21  C   UNL     1       1.594   9.540  18.729  0.00  0.00    +0.000 A 
ATOM     22  C   UNL     1       2.403   8.724  17.928  0.00  0.00    +0.000 A 
ATOM     23  C   UNL     1       2.825   7.449  18.357  0.00  0.00    +0.000 A 
ATOM     24  C   UNL     1       2.446   7.055  19.656  0.00  0.00    +0.000 A 
ATOM     25  C   UNL     1       1.633   7.862  20.465  0.00  0.00    +0.000 A 
BRANCH  23  26
ATOM     26  C   UNL     1       3.588   6.548  17.454  0.00  0.00    +0.000 A 
ATOM     27  C   UNL     1       3.504   5.147  17.552  0.00  0.00    +0.000 A 
ATOM     28  C   UNL     1       4.302   4.302  16.768  0.00  0.00    +0.000 A 
ATOM     29  C   UNL     1       5.203   4.833  15.839  0.00  0.00    +0.000 A 
ATOM     30  C   UNL     1       5.271   6.223  15.697  0.00  0.00    +0.000 A 
ATOM     31  C   UNL     1       4.481   7.061  16.495  0.00  0.00    +0.000 A 
BRANCH  29  32
ATOM     32  C   UNL     1       6.099   3.944  15.012  0.00  0.00    +0.000 C 
ATOM     33  F   UNL     1       6.124   2.649  15.433  0.00  0.00    +0.000 F 
ATOM     34  F   UNL     1       5.728   3.905  13.701  0.00  0.00    +0.000 F 
ATOM     35  F   UNL     1       7.395   4.363  15.020  0.00  0.00    +0.000 F 
ENDBRANCH  29  32
ENDBRANCH  23  26
ENDBRANCH   1  20
TORSDOF 7
ENDMDL
MODEL 8
REMARK VINA RESULT:      -8.3      2.660      4.064
REMARK  Name = 
REMARK  7 active torsions:
REMARK  status: ('A' for Active; 'I' for Inactive)
REMARK    1  A    between atoms: C_2  and  O_3
REMARK    2  A    between atoms: C_2  and  C_4
REMARK    3  A    between atoms: C_4  and  C_6
REMARK    4  A    between atoms: N_15  and  S_16
REMARK    5  A    between atoms: S_16  and  C_19
REMARK    6  A    between atoms: C_22  and  C_23
REMARK    7  A    between atoms: C_26  and  C_27
REMARK                            x       y       z     vdW  Elec       q    Type
REMARK                         _______ _______ _______ _____ _____    ______ ____
ROOT
ATOM      1  S   UNL     1       0.090  10.265  21.149  0.00  0.00    +0.000 S 
ATOM      2  O   UNL     1       1.004  11.099  21.901  0.00  0.00    +0.000 OA
ATOM      3  O   UNL     1      -0.889   9.443  21.828  0.00  0.00    +0.000 OA
ENDROOT
BRANCH   1  13
ATOM      4  C   UNL     1      -1.399  12.475  20.722  0.00  0.00    +0.000 C 
ATOM      5  C   UNL     1      -2.894  12.225  20.962  0.00  0.00    +0.000 C 
ATOM      6  C   UNL     1      -3.565  12.032  19.629  0.00  0.00    +0.000 A 
ATOM      7  C   UNL     1      -4.782  12.641  19.316  0.00  0.00    +0.000 A 
ATOM      8  C   UNL     1      -5.333  12.472  18.046  0.00  0.00    +0.000 A 
ATOM      9  C   UNL     1      -4.679  11.685  17.098  0.00  0.00    +0.000 A 
ATOM     10  C   UNL     1      -3.468  11.066  17.413  0.00  0.00    +0.000 A 
ATOM     11  C   UNL     1      -2.894  11.249  18.676  0.00  0.00    +0.000 A 
ATOM     12  C   UNL     1      -1.608  10.556  19.067  0.00  0.00    +0.000 C 
ATOM     13  N   UNL     1      -0.749  11.277  20.059  0.00  0.00    +0.000 NA
BRANCH   4  14
ATOM     14  C   UNL     1      -1.172  13.742  19.907  0.00  0.00    +0.000 C 
ATOM     15  O   UNL     1      -1.718  14.837  20.049  0.00  0.00    +0.000 OA
BRANCH  14  17
ATOM     16  O   UNL     1      -0.368  13.598  17.635  0.00  0.00    +0.000 OA
ATOM     17  C   UNL     1      -0.107  13.647  18.815  0.00  0.00    +0.000 C 
BRANCH  17  18
ATOM     18  O   UNL     1       1.131  13.607  19.344  0.00  0.00    +0.000 OA
ATOM     19  H   UNL     1       1.425  12.668  19.425  0.00  0.00    +0.000 HD
ENDBRANCH  17  18
ENDBRANCH  14  17
ENDBRANCH   4  14
ENDBRANCH   1  13
BRANCH   1  20
ATOM     20  C   UNL     1       1.068   9.222  20.094  0.00  0.00    +0.000 A 
ATOM     21  C   UNL     1       1.462   7.966  20.551  0.00  0.00    +0.000 A 
ATOM     22  C   UNL     1       2.247   7.144  19.732  0.00  0.00    +0.000 A 
ATOM     23  C   UNL     1       2.643   7.545  18.440  0.00  0.00    +0.000 A 
ATOM     24  C   UNL     1       2.164   8.789  17.983  0.00  0.00    +0.000 A 
ATOM     25  C   UNL     1       1.381   9.623  18.795  0.00  0.00    +0.000 A 
BRANCH  23  26
ATOM     26  C   UNL     1       3.568   6.712  17.626  0.00  0.00    +0.000 A 
ATOM     27  C   UNL     1       3.750   5.339  17.875  0.00  0.00    +0.000 A 
ATOM     28  C   UNL     1       4.697   4.581  17.172  0.00  0.00    +0.000 A 
ATOM     29  C   UNL     1       5.486   5.169  16.179  0.00  0.00    +0.000 A 
ATOM     30  C   UNL     1       5.291   6.524  15.890  0.00  0.00    +0.000 A 
ATOM     31  C   UNL     1       4.352   7.279  16.605  0.00  0.00    +0.000 A 
BRANCH  29  32
ATOM     32  C   UNL     1       6.539   4.382  15.437  0.00  0.00    +0.000 C 
ATOM     33  F   UNL     1       7.625   4.072  16.197  0.00  0.00    +0.000 F 
ATOM     34  F   UNL     1       6.065   3.198  14.961  0.00  0.00    +0.000 F 
ATOM     35  F   UNL     1       7.021   5.053  14.355  0.00  0.00    +0.000 F 
ENDBRANCH  29  32
ENDBRANCH  23  26
ENDBRANCH   1  20
TORSDOF 7
ENDMDL
MODEL 9
REMARK VINA RESULT:      -8.2      3.181      5.070
REMARK  Name = 
REMARK  7 active torsions:
REMARK  status: ('A' for Active; 'I' for Inactive)
REMARK    1  A    between atoms: C_2  and  O_3
REMARK    2  A    between atoms: C_2  and  C_4
REMARK    3  A    between atoms: C_4  and  C_6
REMARK    4  A    between atoms: N_15  and  S_16
REMARK    5  A    between atoms: S_16  and  C_19
REMARK    6  A    between atoms: C_22  and  C_23
REMARK    7  A    between atoms: C_26  and  C_27
REMARK                            x       y       z     vdW  Elec       q    Type
REMARK                         _______ _______ _______ _____ _____    ______ ____
ROOT
ATOM      1  S   UNL     1       0.030  11.073  20.697  0.00  0.00    +0.000 S 
ATOM      2  O   UNL     1       0.365  10.923  22.098  0.00  0.00    +0.000 OA
ATOM      3  O   UNL     1      -1.348  11.014  20.256  0.00  0.00    +0.000 OA
ENDROOT
BRANCH   1  13
ATOM      4  C   UNL     1       1.442  13.305  21.247  0.00  0.00    +0.000 C 
ATOM      5  C   UNL     1       0.573  14.404  21.871  0.00  0.00    +0.000 C 
ATOM      6  C   UNL     1       0.224  15.402  20.799  0.00  0.00    +0.000 A 
ATOM      7  C   UNL     1       0.291  16.779  21.017  0.00  0.00    +0.000 A 
ATOM      8  C   UNL     1       0.009  17.659  19.973  0.00  0.00    +0.000 A 
ATOM      9  C   UNL     1      -0.355  17.164  18.720  0.00  0.00    +0.000 A 
ATOM     10  C   UNL     1      -0.435  15.787  18.504  0.00  0.00    +0.000 A 
ATOM     11  C   UNL     1      -0.130  14.896  19.538  0.00  0.00    +0.000 A 
ATOM     12  C   UNL     1      -0.251  13.400  19.353  0.00  0.00    +0.000 C 
ATOM     13  N   UNL     1       0.682  12.560  20.169  0.00  0.00    +0.000 NA
BRANCH   4  14
ATOM     14  C   UNL     1       2.749  13.871  20.705  0.00  0.00    +0.000 C 
ATOM     15  O   UNL     1       3.184  13.794  19.555  0.00  0.00    +0.000 OA
BRANCH  14  17
ATOM     16  O   UNL     1       4.014  14.194  22.737  0.00  0.00    +0.000 OA
ATOM     17  C   UNL     1       3.594  14.663  21.703  0.00  0.00    +0.000 C 
BRANCH  17  18
ATOM     18  O   UNL     1       3.780  15.929  21.286  0.00  0.00    +0.000 OA
ATOM     19  H   UNL     1       4.746  16.133  21.274  0.00  0.00    +0.000 HD
ENDBRANCH  17  18
ENDBRANCH  14  17
ENDBRANCH   4  14
ENDBRANCH   1  13
BRANCH   1  20
ATOM     20  C   UNL     1       0.961   9.856  19.796  0.00  0.00    +0.000 A 
ATOM     21  C   UNL     1       1.305   8.659  20.420  0.00  0.00    +0.000 A 
ATOM     22  C   UNL     1       2.052   7.702  19.723  0.00  0.00    +0.000 A 
ATOM     23  C   UNL     1       2.461   7.907  18.390  0.00  0.00    +0.000 A 
ATOM     24  C   UNL     1       2.033   9.096  17.767  0.00  0.00    +0.000 A 
ATOM     25  C   UNL     1       1.287  10.064  18.456  0.00  0.00    +0.000 A 
BRANCH  23  26
ATOM     26  C   UNL     1       3.349   6.934  17.699  0.00  0.00    +0.000 A 
ATOM     27  C   UNL     1       3.291   5.553  17.963  0.00  0.00    +0.000 A 
ATOM     28  C   UNL     1       4.197   4.652  17.386  0.00  0.00    +0.000 A 
ATOM     29  C   UNL     1       5.185   5.101  16.505  0.00  0.00    +0.000 A 
ATOM     30  C   UNL     1       5.232   6.465  16.198  0.00  0.00    +0.000 A 
ATOM     31  C   UNL     1       4.333   7.362  16.789  0.00  0.00    +0.000 A 
BRANCH  29  32
ATOM     32  C   UNL     1       6.195   4.156  15.903  0.00  0.00    +0.000 C 
ATOM     33  F   UNL     1       7.365   4.091  16.597  0.00  0.00    +0.000 F 
ATOM     34  F   UNL     1       5.733   2.877  15.829  0.00  0.00    +0.000 F 
ATOM     35  F   UNL     1       6.537   4.503  14.631  0.00  0.00    +0.000 F 
ENDBRANCH  29  32
ENDBRANCH  23  26
ENDBRANCH   1  20
TORSDOF 7
ENDMDL
