MODEL 1
REMARK VINA RESULT:      -7.9      0.000      0.000
REMARK  Name = 
REMARK  4 active torsions:
REMARK  status: ('A' for Active; 'I' for Inactive)
REMARK    1  A    between atoms: C_1  and  N_2
REMARK    2  A    between atoms: C_4  and  C_5
REMARK    3  A    between atoms: C_5  and  C_7
REMARK    4  A    between atoms: C_9  and  C_10
REMARK                            x       y       z     vdW  Elec       q    Type
REMARK                         _______ _______ _______ _____ _____    ______ ____
ROOT
ATOM      1  C   UNL     1       6.120   4.997  17.324  0.00  0.00    +0.000 A 
ATOM      2  N   UNL     1       4.815   4.928  17.466  0.00  0.00    +0.000 NA
ATOM      3  C   UNL     1       4.657   4.302  18.675  0.00  0.00    +0.000 A 
ATOM      4  N   UNL     1       5.818   3.932  19.242  0.00  0.00    +0.000 NA
ATOM      5  O   UNL     1       6.790   4.407  18.356  0.00  0.00    +0.000 OA
ENDROOT
BRANCH   3   6
ATOM      6  C   UNL     1       3.342   4.022  19.241  0.00  0.00    +0.000 A 
ATOM      7  C   UNL     1       2.673   5.051  19.929  0.00  0.00    +0.000 A 
ATOM      8  C   UNL     1       1.420   4.833  20.507  0.00  0.00    +0.000 A 
ATOM      9  C   UNL     1       0.813   3.586  20.405  0.00  0.00    +0.000 A 
ATOM     10  C   UNL     1       1.459   2.554  19.726  0.00  0.00    +0.000 A 
ATOM     11  C   UNL     1       2.717   2.764  19.144  0.00  0.00    +0.000 A 
ATOM     12 CL   UNL     1       3.395   1.419  18.290  0.00  0.00    +0.000 Cl
ENDBRANCH   3   6
BRANCH   1  13
ATOM     13  C   UNL     1       6.867   5.643  16.264  0.00  0.00    +0.000 C 
ATOM     14  O   UNL     1       7.555   6.649  16.427  0.00  0.00    +0.000 OA
BRANCH  13  18
ATOM     15  C   UNL     1       5.077   3.082  12.384  0.00  0.00    +0.000 C 
ATOM     16  N   UNL     1       5.886   3.920  13.235  0.00  0.00    +0.000 N 
ATOM     17  C   UNL     1       5.605   4.331  14.504  0.00  0.00    +0.000 A 
ATOM     18  C   UNL     1       6.708   5.045  14.942  0.00  0.00    +0.000 A 
ATOM     19  C   UNL     1       7.574   5.030  13.821  0.00  0.00    +0.000 A 
ATOM     20  N   UNL     1       7.072   4.358  12.784  0.00  0.00    +0.000 NA
ENDBRANCH  13  18
ENDBRANCH   1  13
TORSDOF 3
ENDMDL
MODEL 2
REMARK VINA RESULT:      -7.8      0.579      1.017
REMARK  Name = 
REMARK  4 active torsions:
REMARK  status: ('A' for Active; 'I' for Inactive)
REMARK    1  A    between atoms: C_1  and  N_2
REMARK    2  A    between atoms: C_4  and  C_5
REMARK    3  A    between atoms: C_5  and  C_7
REMARK    4  A    between atoms: C_9  and  C_10
REMARK                            x       y       z     vdW  Elec       q    Type
REMARK                         _______ _______ _______ _____ _____    ______ ____
ROOT
ATOM      1  C   UNL     1       6.127   4.974  17.412  0.00  0.00    +0.000 A 
ATOM      2  N   UNL     1       4.824   4.860  17.545  0.00  0.00    +0.000 NA
ATOM      3  C   UNL     1       4.676   4.327  18.799  0.00  0.00    +0.000 A 
ATOM      4  N   UNL     1       5.843   4.054  19.407  0.00  0.00    +0.000 NA
ATOM      5  O   UNL     1       6.807   4.498  18.496  0.00  0.00    +0.000 OA
ENDROOT
BRANCH   3   6
ATOM      6  C   UNL     1       3.366   4.037  19.372  0.00  0.00    +0.000 A 
ATOM      7  C   UNL     1       2.693   5.061  20.065  0.00  0.00    +0.000 A 
ATOM      8  C   UNL     1       1.445   4.833  20.648  0.00  0.00    +0.000 A 
ATOM      9  C   UNL     1       0.846   3.582  20.548  0.00  0.00    +0.000 A 
ATOM     10  C   UNL     1       1.496   2.555  19.865  0.00  0.00    +0.000 A 
ATOM     11  C   UNL     1       2.750   2.775  19.276  0.00  0.00    +0.000 A 
ATOM     12 CL   UNL     1       3.432   1.436  18.417  0.00  0.00    +0.000 Cl
ENDBRANCH   3   6
BRANCH   1  13
ATOM     13  C   UNL     1       6.861   5.564  16.312  0.00  0.00    +0.000 C 
ATOM     14  O   UNL     1       7.559   6.571  16.416  0.00  0.00    +0.000 OA
BRANCH  13  18
ATOM     15  C   UNL     1       7.327   4.260  11.526  0.00  0.00    +0.000 C 
ATOM     16  N   UNL     1       6.915   4.335  12.906  0.00  0.00    +0.000 N 
ATOM     17  C   UNL     1       7.452   5.110  13.891  0.00  0.00    +0.000 A 
ATOM     18  C   UNL     1       6.677   4.906  15.021  0.00  0.00    +0.000 A 
ATOM     19  C   UNL     1       5.725   3.947  14.597  0.00  0.00    +0.000 A 
ATOM     20  N   UNL     1       5.875   3.593  13.320  0.00  0.00    +0.000 NA
ENDBRANCH  13  18
ENDBRANCH   1  13
TORSDOF 3
ENDMDL
MODEL 3
REMARK VINA RESULT:      -7.8      1.083      1.354
REMARK  Name = 
REMARK  4 active torsions:
REMARK  status: ('A' for Active; 'I' for Inactive)
REMARK    1  A    between atoms: C_1  and  N_2
REMARK    2  A    between atoms: C_4  and  C_5
REMARK    3  A    between atoms: C_5  and  C_7
REMARK    4  A    between atoms: C_9  and  C_10
REMARK                            x       y       z     vdW  Elec       q    Type
REMARK                         _______ _______ _______ _____ _____    ______ ____
ROOT
ATOM      1  C   UNL     1       5.694   4.979  16.804  0.00  0.00    +0.000 A 
ATOM      2  N   UNL     1       5.007   4.244  17.651  0.00  0.00    +0.000 NA
ATOM      3  C   UNL     1       3.903   5.012  17.918  0.00  0.00    +0.000 A 
ATOM      4  N   UNL     1       3.927   6.213  17.314  0.00  0.00    +0.000 NA
ATOM      5  O   UNL     1       5.105   6.186  16.561  0.00  0.00    +0.000 OA
ENDROOT
BRANCH   3   6
ATOM      6  C   UNL     1       2.848   4.570  18.823  0.00  0.00    +0.000 A 
ATOM      7  C   UNL     1       2.470   5.416  19.882  0.00  0.00    +0.000 A 
ATOM      8  C   UNL     1       1.478   5.035  20.788  0.00  0.00    +0.000 A 
ATOM      9  C   UNL     1       0.845   3.804  20.651  0.00  0.00    +0.000 A 
ATOM     10  C   UNL     1       1.204   2.952  19.608  0.00  0.00    +0.000 A 
ATOM     11  C   UNL     1       2.199   3.327  18.694  0.00  0.00    +0.000 A 
ATOM     12 CL   UNL     1       2.522   2.203  17.417  0.00  0.00    +0.000 Cl
ENDBRANCH   3   6
BRANCH   1  13
ATOM     13  C   UNL     1       6.917   4.629  16.111  0.00  0.00    +0.000 C 
ATOM     14  O   UNL     1       8.018   4.565  16.656  0.00  0.00    +0.000 OA
BRANCH  13  18
ATOM     15  C   UNL     1       5.348   2.940  11.695  0.00  0.00    +0.000 C 
ATOM     16  N   UNL     1       6.047   3.654  12.735  0.00  0.00    +0.000 N 
ATOM     17  C   UNL     1       5.793   3.630  14.074  0.00  0.00    +0.000 A 
ATOM     18  C   UNL     1       6.772   4.403  14.676  0.00  0.00    +0.000 A 
ATOM     19  C   UNL     1       7.536   4.877  13.581  0.00  0.00    +0.000 A 
ATOM     20  N   UNL     1       7.091   4.433  12.405  0.00  0.00    +0.000 NA
ENDBRANCH  13  18
ENDBRANCH   1  13
TORSDOF 3
ENDMDL
MODEL 4
REMARK VINA RESULT:      -7.8      1.429      1.615
REMARK  Name = 
REMARK  4 active torsions:
REMARK  status: ('A' for Active; 'I' for Inactive)
REMARK    1  A    between atoms: C_1  and  N_2
REMARK    2  A    between atoms: C_4  and  C_5
REMARK    3  A    between atoms: C_5  and  C_7
REMARK    4  A    between atoms: C_9  and  C_10
REMARK                            x       y       z     vdW  Elec       q    Type
REMARK                         _______ _______ _______ _____ _____    ______ ____
ROOT
ATOM      1  C   UNL     1       5.846   4.743  17.440  0.00  0.00    +0.000 A 
ATOM      2  N   UNL     1       5.170   3.887  18.174  0.00  0.00    +0.000 NA
ATOM      3  C   UNL     1       4.069   4.603  18.568  0.00  0.00    +0.000 A 
ATOM      4  N   UNL     1       4.085   5.882  18.153  0.00  0.00    +0.000 NA
ATOM      5  O   UNL     1       5.254   5.971  17.390  0.00  0.00    +0.000 OA
ENDROOT
BRANCH   3   6
ATOM      6  C   UNL     1       3.025   4.027  19.408  0.00  0.00    +0.000 A 
ATOM      7  C   UNL     1       3.352   3.646  20.723  0.00  0.00    +0.000 A 
ATOM      8  C   UNL     1       2.396   3.074  21.564  0.00  0.00    +0.000 A 
ATOM      9  C   UNL     1       1.097   2.874  21.109  0.00  0.00    +0.000 A 
ATOM     10  C   UNL     1       0.753   3.245  19.810  0.00  0.00    +0.000 A 
ATOM     11  C   UNL     1       1.707   3.821  18.959  0.00  0.00    +0.000 A 
ATOM     12 CL   UNL     1       1.145   4.282  17.387  0.00  0.00    +0.000 Cl
ENDBRANCH   3   6
BRANCH   1  13
ATOM     13  C   UNL     1       7.061   4.504  16.688  0.00  0.00    +0.000 C 
ATOM     14  O   UNL     1       8.174   4.403  17.199  0.00  0.00    +0.000 OA
BRANCH  13  18
ATOM     15  C   UNL     1       5.537   3.195  12.129  0.00  0.00    +0.000 C 
ATOM     16  N   UNL     1       6.185   3.856  13.235  0.00  0.00    +0.000 N 
ATOM     17  C   UNL     1       5.988   3.633  14.565  0.00  0.00    +0.000 A 
ATOM     18  C   UNL     1       6.889   4.442  15.239  0.00  0.00    +0.000 A 
ATOM     19  C   UNL     1       7.546   5.141  14.196  0.00  0.00    +0.000 A 
ATOM     20  N   UNL     1       7.112   4.794  12.983  0.00  0.00    +0.000 NA
ENDBRANCH  13  18
ENDBRANCH   1  13
TORSDOF 3
ENDMDL
MODEL 5
REMARK VINA RESULT:      -7.6      1.279      1.678
REMARK  Name = 
REMARK  4 active torsions:
REMARK  status: ('A' for Active; 'I' for Inactive)
REMARK    1  A    between atoms: C_1  and  N_2
REMARK    2  A    between atoms: C_4  and  C_5
REMARK    3  A    between atoms: C_5  and  C_7
REMARK    4  A    between atoms: C_9  and  C_10
REMARK                            x       y       z     vdW  Elec       q    Type
REMARK                         _______ _______ _______ _____ _____    ______ ____
ROOT
ATOM      1  C   UNL     1       6.283   4.743  17.005  0.00  0.00    +0.000 A 
ATOM      2  N   UNL     1       4.978   4.582  17.027  0.00  0.00    +0.000 NA
ATOM      3  C   UNL     1       4.749   3.989  18.241  0.00  0.00    +0.000 A 
ATOM      4  N   UNL     1       5.874   3.725  18.929  0.00  0.00    +0.000 NA
ATOM      5  O   UNL     1       6.891   4.240  18.119  0.00  0.00    +0.000 OA
ENDROOT
BRANCH   3   6
ATOM      6  C   UNL     1       3.409   3.633  18.693  0.00  0.00    +0.000 A 
ATOM      7  C   UNL     1       2.999   2.290  18.591  0.00  0.00    +0.000 A 
ATOM      8  C   UNL     1       1.720   1.897  18.992  0.00  0.00    +0.000 A 
ATOM      9  C   UNL     1       0.831   2.836  19.504  0.00  0.00    +0.000 A 
ATOM     10  C   UNL     1       1.219   4.171  19.614  0.00  0.00    +0.000 A 
ATOM     11  C   UNL     1       2.501   4.574  19.213  0.00  0.00    +0.000 A 
ATOM     12 CL   UNL     1       2.878   6.248  19.443  0.00  0.00    +0.000 Cl
ENDBRANCH   3   6
BRANCH   1  13
ATOM     13  C   UNL     1       7.082   5.405  15.994  0.00  0.00    +0.000 C 
ATOM     14  O   UNL     1       7.806   6.373  16.218  0.00  0.00    +0.000 OA
BRANCH  13  18
ATOM     15  C   UNL     1       5.561   2.738  12.070  0.00  0.00    +0.000 C 
ATOM     16  N   UNL     1       6.228   3.694  12.919  0.00  0.00    +0.000 N 
ATOM     17  C   UNL     1       5.995   3.936  14.240  0.00  0.00    +0.000 A 
ATOM     18  C   UNL     1       6.931   4.875  14.641  0.00  0.00    +0.000 A 
ATOM     19  C   UNL     1       7.648   5.153  13.451  0.00  0.00    +0.000 A 
ATOM     20  N   UNL     1       7.215   4.447  12.406  0.00  0.00    +0.000 NA
ENDBRANCH  13  18
ENDBRANCH   1  13
TORSDOF 3
ENDMDL
MODEL 6
REMARK VINA RESULT:      -7.5      1.415      1.927
REMARK  Name = 
REMARK  4 active torsions:
REMARK  status: ('A' for Active; 'I' for Inactive)
REMARK    1  A    between atoms: C_1  and  N_2
REMARK    2  A    between atoms: C_4  and  C_5
REMARK    3  A    between atoms: C_5  and  C_7
REMARK    4  A    between atoms: C_9  and  C_10
REMARK                            x       y       z     vdW  Elec       q    Type
REMARK                         _______ _______ _______ _____ _____    ______ ____
ROOT
ATOM      1  C   UNL     1       6.130   5.076  17.519  0.00  0.00    +0.000 A 
ATOM      2  N   UNL     1       4.840   4.886  17.688  0.00  0.00    +0.000 NA
ATOM      3  C   UNL     1       4.747   4.454  18.985  0.00  0.00    +0.000 A 
ATOM      4  N   UNL     1       5.940   4.313  19.590  0.00  0.00    +0.000 NA
ATOM      5  O   UNL     1       6.857   4.742  18.625  0.00  0.00    +0.000 OA
ENDROOT
BRANCH   3   6
ATOM      6  C   UNL     1       3.469   4.127  19.607  0.00  0.00    +0.000 A 
ATOM      7  C   UNL     1       3.204   2.784  19.934  0.00  0.00    +0.000 A 
ATOM      8  C   UNL     1       1.989   2.412  20.515  0.00  0.00    +0.000 A 
ATOM      9  C   UNL     1       1.021   3.374  20.782  0.00  0.00    +0.000 A 
ATOM     10  C   UNL     1       1.265   4.710  20.466  0.00  0.00    +0.000 A 
ATOM     11  C   UNL     1       2.482   5.091  19.883  0.00  0.00    +0.000 A 
ATOM     12 CL   UNL     1       2.683   6.785  19.581  0.00  0.00    +0.000 Cl
ENDBRANCH   3   6
BRANCH   1  13
ATOM     13  C   UNL     1       6.806   5.617  16.358  0.00  0.00    +0.000 C 
ATOM     14  O   UNL     1       7.545   6.599  16.391  0.00  0.00    +0.000 OA
BRANCH  13  18
ATOM     15  C   UNL     1       7.128   3.871  11.703  0.00  0.00    +0.000 C 
ATOM     16  N   UNL     1       6.683   4.166  13.043  0.00  0.00    +0.000 N 
ATOM     17  C   UNL     1       7.368   4.829  14.017  0.00  0.00    +0.000 A 
ATOM     18  C   UNL     1       6.508   4.942  15.097  0.00  0.00    +0.000 A 
ATOM     19  C   UNL     1       5.343   4.264  14.662  0.00  0.00    +0.000 A 
ATOM     20  N   UNL     1       5.453   3.784  13.422  0.00  0.00    +0.000 NA
ENDBRANCH  13  18
ENDBRANCH   1  13
TORSDOF 3
ENDMDL
MODEL 7
REMARK VINA RESULT:      -7.5      2.386      3.775
REMARK  Name = 
REMARK  4 active torsions:
REMARK  status: ('A' for Active; 'I' for Inactive)
REMARK    1  A    between atoms: C_1  and  N_2
REMARK    2  A    between atoms: C_4  and  C_5
REMARK    3  A    between atoms: C_5  and  C_7
REMARK    4  A    between atoms: C_9  and  C_10
REMARK                            x       y       z     vdW  Elec       q    Type
REMARK                         _______ _______ _______ _____ _____    ______ ____
ROOT
ATOM      1  C   UNL     1       5.577   4.827  16.883  0.00  0.00    +0.000 A 
ATOM      2  N   UNL     1       5.052   4.906  18.086  0.00  0.00    +0.000 NA
ATOM      3  C   UNL     1       4.012   4.013  18.041  0.00  0.00    +0.000 A 
ATOM      4  N   UNL     1       3.848   3.443  16.834  0.00  0.00    +0.000 NA
ATOM      5  O   UNL     1       4.896   3.968  16.070  0.00  0.00    +0.000 OA
ENDROOT
BRANCH   3   6
ATOM      6  C   UNL     1       3.145   3.769  19.187  0.00  0.00    +0.000 A 
ATOM      7  C   UNL     1       1.962   4.522  19.310  0.00  0.00    +0.000 A 
ATOM      8  C   UNL     1       1.105   4.342  20.397  0.00  0.00    +0.000 A 
ATOM      9  C   UNL     1       1.411   3.406  21.379  0.00  0.00    +0.000 A 
ATOM     10  C   UNL     1       2.577   2.649  21.275  0.00  0.00    +0.000 A 
ATOM     11  C   UNL     1       3.444   2.824  20.187  0.00  0.00    +0.000 A 
ATOM     12 CL   UNL     1       4.834   1.792  20.148  0.00  0.00    +0.000 Cl
ENDBRANCH   3   6
BRANCH   1  13
ATOM     13  C   UNL     1       6.766   5.489  16.386  0.00  0.00    +0.000 C 
ATOM     14  O   UNL     1       7.263   5.266  15.284  0.00  0.00    +0.000 OA
BRANCH  13  18
ATOM     15  C   UNL     1       8.636   9.626  18.437  0.00  0.00    +0.000 C 
ATOM     16  N   UNL     1       8.192   8.273  18.209  0.00  0.00    +0.000 N 
ATOM     17  C   UNL     1       7.523   7.790  17.124  0.00  0.00    +0.000 A 
ATOM     18  C   UNL     1       7.388   6.425  17.318  0.00  0.00    +0.000 A 
ATOM     19  C   UNL     1       7.982   6.213  18.586  0.00  0.00    +0.000 A 
ATOM     20  N   UNL     1       8.460   7.334  19.131  0.00  0.00    +0.000 NA
ENDBRANCH  13  18
ENDBRANCH   1  13
TORSDOF 3
ENDMDL
MODEL 8
REMARK VINA RESULT:      -7.5      1.664      2.158
REMARK  Name = 
REMARK  4 active torsions:
REMARK  status: ('A' for Active; 'I' for Inactive)
REMARK    1  A    between atoms: C_1  and  N_2
REMARK    2  A    between atoms: C_4  and  C_5
REMARK    3  A    between atoms: C_5  and  C_7
REMARK    4  A    between atoms: C_9  and  C_10
REMARK                            x       y       z     vdW  Elec       q    Type
REMARK                         _______ _______ _______ _____ _____    ______ ____
ROOT
ATOM      1  C   UNL     1       5.411   5.527  16.536  0.00  0.00    +0.000 A 
ATOM      2  N   UNL     1       4.825   4.541  17.180  0.00  0.00    +0.000 NA
ATOM      3  C   UNL     1       3.636   5.088  17.588  0.00  0.00    +0.000 A 
ATOM      4  N   UNL     1       3.507   6.388  17.271  0.00  0.00    +0.000 NA
ATOM      5  O   UNL     1       4.675   6.676  16.557  0.00  0.00    +0.000 OA
ENDROOT
BRANCH   3   6
ATOM      6  C   UNL     1       2.649   4.328  18.346  0.00  0.00    +0.000 A 
ATOM      7  C   UNL     1       2.327   3.027  17.916  0.00  0.00    +0.000 A 
ATOM      8  C   UNL     1       1.376   2.261  18.594  0.00  0.00    +0.000 A 
ATOM      9  C   UNL     1       0.732   2.779  19.713  0.00  0.00    +0.000 A 
ATOM     10  C   UNL     1       1.038   4.065  20.155  0.00  0.00    +0.000 A 
ATOM     11  C   UNL     1       1.992   4.840  19.480  0.00  0.00    +0.000 A 
ATOM     12 CL   UNL     1       2.318   6.402  20.154  0.00  0.00    +0.000 Cl
ENDBRANCH   3   6
BRANCH   1  13
ATOM     13  C   UNL     1       6.664   5.495  15.810  0.00  0.00    +0.000 C 
ATOM     14  O   UNL     1       7.711   5.984  16.230  0.00  0.00    +0.000 OA
BRANCH  13  18
ATOM     15  C   UNL     1       5.228   2.755  11.905  0.00  0.00    +0.000 C 
ATOM     16  N   UNL     1       5.931   3.670  12.770  0.00  0.00    +0.000 N 
ATOM     17  C   UNL     1       5.579   4.059  14.027  0.00  0.00    +0.000 A 
ATOM     18  C   UNL     1       6.598   4.877  14.488  0.00  0.00    +0.000 A 
ATOM     19  C   UNL     1       7.491   4.937  13.391  0.00  0.00    +0.000 A 
ATOM     20  N   UNL     1       7.083   4.215  12.346  0.00  0.00    +0.000 NA
ENDBRANCH  13  18
ENDBRANCH   1  13
TORSDOF 3
ENDMDL
MODEL 9
REMARK VINA RESULT:      -7.4      1.227      1.416
REMARK  Name = 
REMARK  4 active torsions:
REMARK  status: ('A' for Active; 'I' for Inactive)
REMARK    1  A    between atoms: C_1  and  N_2
REMARK    2  A    between atoms: C_4  and  C_5
REMARK    3  A    between atoms: C_5  and  C_7
REMARK    4  A    between atoms: C_9  and  C_10
REMARK                            x       y       z     vdW  Elec       q    Type
REMARK                         _______ _______ _______ _____ _____    ______ ____
ROOT
ATOM      1  C   UNL     1       5.842   4.734  17.449  0.00  0.00    +0.000 A 
ATOM      2  N   UNL     1       5.215   3.900  18.250  0.00  0.00    +0.000 NA
ATOM      3  C   UNL     1       4.090   4.592  18.616  0.00  0.00    +0.000 A 
ATOM      4  N   UNL     1       4.042   5.840  18.118  0.00  0.00    +0.000 NA
ATOM      5  O   UNL     1       5.194   5.930  17.330  0.00  0.00    +0.000 OA
ENDROOT
BRANCH   3   6
ATOM      6  C   UNL     1       3.085   4.027  19.510  0.00  0.00    +0.000 A 
ATOM      7  C   UNL     1       1.817   4.634  19.567  0.00  0.00    +0.000 A 
ATOM      8  C   UNL     1       0.823   4.146  20.418  0.00  0.00    +0.000 A 
ATOM      9  C   UNL     1       1.078   3.042  21.225  0.00  0.00    +0.000 A 
ATOM     10  C   UNL     1       2.328   2.425  21.183  0.00  0.00    +0.000 A 
ATOM     11  C   UNL     1       3.331   2.910  20.330  0.00  0.00    +0.000 A 
ATOM     12 CL   UNL     1       4.823   2.030  20.335  0.00  0.00    +0.000 Cl
ENDBRANCH   3   6
BRANCH   1  13
ATOM     13  C   UNL     1       7.054   4.500  16.692  0.00  0.00    +0.000 C 
ATOM     14  O   UNL     1       8.170   4.403  17.199  0.00  0.00    +0.000 OA
BRANCH  13  18
ATOM     15  C   UNL     1       5.511   3.191  12.140  0.00  0.00    +0.000 C 
ATOM     16  N   UNL     1       6.165   3.851  13.243  0.00  0.00    +0.000 N 
ATOM     17  C   UNL     1       5.971   3.631  14.574  0.00  0.00    +0.000 A 
ATOM     18  C   UNL     1       6.877   4.437  15.244  0.00  0.00    +0.000 A 
ATOM     19  C   UNL     1       7.533   5.132  14.199  0.00  0.00    +0.000 A 
ATOM     20  N   UNL     1       7.094   4.786  12.987  0.00  0.00    +0.000 NA
ENDBRANCH  13  18
ENDBRANCH   1  13
TORSDOF 3
ENDMDL
