MODEL 1
REMARK VINA RESULT:      -7.3      0.000      0.000
REMARK  Name = 
REMARK  7 active torsions:
REMARK  status: ('A' for Active; 'I' for Inactive)
REMARK    1  A    between atoms: C_1  and  O_2
REMARK    2  A    between atoms: O_2  and  C_3
REMARK    3  A    between atoms: C_7  and  O_8
REMARK    4  A    between atoms: O_8  and  C_9
REMARK    5  A    between atoms: C_14  and  C_15
REMARK    6  A    between atoms: C_19  and  O_20
REMARK    7  A    between atoms: C_21  and  C_22
REMARK                            x       y       z     vdW  Elec       q    Type
REMARK                         _______ _______ _______ _____ _____    ______ ____
ROOT
ATOM      1  C   UNL     1       7.778  11.916  24.192  0.00  0.00    +0.000 A 
ATOM      2  C   UNL     1       8.186  11.520  22.922  0.00  0.00    +0.000 A 
ATOM      3  C   UNL     1       8.828  12.419  22.052  0.00  0.00    +0.000 A 
ATOM      4  C   UNL     1       9.056  13.756  22.494  0.00  0.00    +0.000 A 
ATOM      5  C   UNL     1       8.686  14.145  23.795  0.00  0.00    +0.000 A 
ATOM      6  C   UNL     1       8.052  13.215  24.629  0.00  0.00    +0.000 A 
ATOM      7  C   UNL     1       9.509  14.801  21.532  0.00  0.00    +0.000 C 
ATOM      8  O   UNL     1       8.916  14.994  20.477  0.00  0.00    +0.000 OA
ATOM      9  O   UNL     1      10.649  15.444  21.919  0.00  0.00    +0.000 OA
ATOM     10  C   UNL     1      11.142  16.445  20.991  0.00  0.00    +0.000 C 
ATOM     11  C   UNL     1      11.834  17.550  21.789  0.00  0.00    +0.000 C 
ATOM     12  C   UNL     1      12.134  15.792  20.003  0.00  0.00    +0.000 C 
ATOM     13  C   UNL     1      11.576  15.758  18.575  0.00  0.00    +0.000 C 
ATOM     14  C   UNL     1      12.283  14.772  17.625  0.00  0.00    +0.000 C 
ATOM     15  C   UNL     1      11.364  13.619  17.165  0.00  0.00    +0.000 C 
ATOM     16  C   UNL     1      11.468  12.230  17.872  0.00  0.00    +0.000 C 
ATOM     17  C   UNL     1      12.156  12.247  19.234  0.00  0.00    +0.000 C 
ATOM     18  C   UNL     1      10.057  11.562  17.838  0.00  0.00    +0.000 C 
ATOM     19  C   UNL     1       9.785  10.387  18.792  0.00  0.00    +0.000 C 
ATOM     20  C   UNL     1       9.280  10.723  20.182  0.00  0.00    +0.000 C 
ATOM     21  C   UNL     1       9.236  11.963  20.703  0.00  0.00    +0.000 C 
ENDROOT
BRANCH   1  23
ATOM     22  C   UNL     1       5.774  11.540  25.424  0.00  0.00    +0.000 C 
ATOM     23  O   UNL     1       7.098  11.136  25.089  0.00  0.00    +0.000 OA
ENDBRANCH   1  23
BRANCH   5  24
ATOM     24  O   UNL     1       8.940  15.444  24.153  0.00  0.00    +0.000 OA
ATOM     25  C   UNL     1       9.590  15.670  25.398  0.00  0.00    +0.000 C 
ENDBRANCH   5  24
BRANCH  15  26
ATOM     26  O   UNL     1      11.593  13.393  15.765  0.00  0.00    +0.000 OA
ATOM     27  H   UNL     1      12.489  13.018  15.671  0.00  0.00    +0.000 HD
ENDBRANCH  15  26
TORSDOF 3
ENDMDL
MODEL 2
REMARK VINA RESULT:      -6.8     11.565     14.952
REMARK  Name = 
REMARK  7 active torsions:
REMARK  status: ('A' for Active; 'I' for Inactive)
REMARK    1  A    between atoms: C_1  and  O_2
REMARK    2  A    between atoms: O_2  and  C_3
REMARK    3  A    between atoms: C_7  and  O_8
REMARK    4  A    between atoms: O_8  and  C_9
REMARK    5  A    between atoms: C_14  and  C_15
REMARK    6  A    between atoms: C_19  and  O_20
REMARK    7  A    between atoms: C_21  and  C_22
REMARK                            x       y       z     vdW  Elec       q    Type
REMARK                         _______ _______ _______ _____ _____    ______ ____
ROOT
ATOM      1  C   UNL     1      -3.040  10.935  16.602  0.00  0.00    +0.000 A 
ATOM      2  C   UNL     1      -2.224  11.383  17.637  0.00  0.00    +0.000 A 
ATOM      3  C   UNL     1      -2.773  11.958  18.797  0.00  0.00    +0.000 A 
ATOM      4  C   UNL     1      -4.190  12.078  18.898  0.00  0.00    +0.000 A 
ATOM      5  C   UNL     1      -5.019  11.582  17.874  0.00  0.00    +0.000 A 
ATOM      6  C   UNL     1      -4.430  11.014  16.737  0.00  0.00    +0.000 A 
ATOM      7  C   UNL     1      -4.803  12.890  19.989  0.00  0.00    +0.000 C 
ATOM      8  O   UNL     1      -4.448  14.044  20.196  0.00  0.00    +0.000 OA
ATOM      9  O   UNL     1      -5.717  12.205  20.735  0.00  0.00    +0.000 OA
ATOM     10  C   UNL     1      -6.310  12.952  21.829  0.00  0.00    +0.000 C 
ATOM     11  C   UNL     1      -7.738  12.453  22.042  0.00  0.00    +0.000 C 
ATOM     12  C   UNL     1      -5.471  12.748  23.110  0.00  0.00    +0.000 C 
ATOM     13  C   UNL     1      -4.764  14.039  23.539  0.00  0.00    +0.000 C 
ATOM     14  C   UNL     1      -3.597  13.843  24.527  0.00  0.00    +0.000 C 
ATOM     15  C   UNL     1      -2.229  14.232  23.924  0.00  0.00    +0.000 C 
ATOM     16  C   UNL     1      -1.291  13.110  23.374  0.00  0.00    +0.000 C 
ATOM     17  C   UNL     1      -1.976  11.778  23.085  0.00  0.00    +0.000 C 
ATOM     18  C   UNL     1      -0.457  13.711  22.198  0.00  0.00    +0.000 C 
ATOM     19  C   UNL     1       0.246  12.739  21.235  0.00  0.00    +0.000 C 
ATOM     20  C   UNL     1      -0.550  12.244  20.044  0.00  0.00    +0.000 C 
ATOM     21  C   UNL     1      -1.871  12.434  19.871  0.00  0.00    +0.000 C 
ENDROOT
BRANCH   1  23
ATOM     22  C   UNL     1      -3.597  10.119  14.434  0.00  0.00    +0.000 C 
ATOM     23  O   UNL     1      -2.604  10.413  15.413  0.00  0.00    +0.000 OA
ENDBRANCH   1  23
BRANCH   5  24
ATOM     24  O   UNL     1      -6.373  11.727  18.041  0.00  0.00    +0.000 OA
ATOM     25  C   UNL     1      -7.021  12.757  17.305  0.00  0.00    +0.000 C 
ENDBRANCH   5  24
BRANCH  15  26
ATOM     26  O   UNL     1      -1.485  14.947  24.923  0.00  0.00    +0.000 OA
ATOM     27  H   UNL     1      -1.287  15.833  24.563  0.00  0.00    +0.000 HD
ENDBRANCH  15  26
TORSDOF 3
ENDMDL
MODEL 3
REMARK VINA RESULT:      -6.6     11.395     14.808
REMARK  Name = 
REMARK  7 active torsions:
REMARK  status: ('A' for Active; 'I' for Inactive)
REMARK    1  A    between atoms: C_1  and  O_2
REMARK    2  A    between atoms: O_2  and  C_3
REMARK    3  A    between atoms: C_7  and  O_8
REMARK    4  A    between atoms: O_8  and  C_9
REMARK    5  A    between atoms: C_14  and  C_15
REMARK    6  A    between atoms: C_19  and  O_20
REMARK    7  A    between atoms: C_21  and  C_22
REMARK                            x       y       z     vdW  Elec       q    Type
REMARK                         _______ _______ _______ _____ _____    ______ ____
ROOT
ATOM      1  C   UNL     1      -4.245  10.940  17.262  0.00  0.00    +0.000 A 
ATOM      2  C   UNL     1      -3.186  11.516  17.957  0.00  0.00    +0.000 A 
ATOM      3  C   UNL     1      -3.386  12.140  19.201  0.00  0.00    +0.000 A 
ATOM      4  C   UNL     1      -4.704  12.176  19.744  0.00  0.00    +0.000 A 
ATOM      5  C   UNL     1      -5.769  11.554  19.066  0.00  0.00    +0.000 A 
ATOM      6  C   UNL     1      -5.523  10.941  17.830  0.00  0.00    +0.000 A 
ATOM      7  C   UNL     1      -5.008  13.027  20.931  0.00  0.00    +0.000 C 
ATOM      8  O   UNL     1      -4.705  14.214  20.956  0.00  0.00    +0.000 OA
ATOM      9  O   UNL     1      -5.579  12.343  21.964  0.00  0.00    +0.000 OA
ATOM     10  C   UNL     1      -5.858  13.130  23.151  0.00  0.00    +0.000 C 
ATOM     11  C   UNL     1      -7.099  12.558  23.835  0.00  0.00    +0.000 C 
ATOM     12  C   UNL     1      -4.644  13.076  24.105  0.00  0.00    +0.000 C 
ATOM     13  C   UNL     1      -3.949  14.437  24.220  0.00  0.00    +0.000 C 
ATOM     14  C   UNL     1      -2.518  14.390  24.791  0.00  0.00    +0.000 C 
ATOM     15  C   UNL     1      -1.448  14.819  23.763  0.00  0.00    +0.000 C 
ATOM     16  C   UNL     1      -0.640  13.721  22.999  0.00  0.00    +0.000 C 
ATOM     17  C   UNL     1      -1.266  12.331  23.011  0.00  0.00    +0.000 C 
ATOM     18  C   UNL     1      -0.273  14.285  21.589  0.00  0.00    +0.000 C 
ATOM     19  C   UNL     1       0.170  13.290  20.503  0.00  0.00    +0.000 C 
ATOM     20  C   UNL     1      -0.917  12.658  19.655  0.00  0.00    +0.000 C 
ATOM     21  C   UNL     1      -2.236  12.751  19.905  0.00  0.00    +0.000 C 
ENDROOT
BRANCH   1  23
ATOM     22  C   UNL     1      -3.051  10.724  15.212  0.00  0.00    +0.000 C 
ATOM     23  O   UNL     1      -4.164  10.361  16.023  0.00  0.00    +0.000 OA
ENDBRANCH   1  23
BRANCH   5  24
ATOM     24  O   UNL     1      -7.008  11.624  19.649  0.00  0.00    +0.000 OA
ATOM     25  C   UNL     1      -7.526  10.440  20.241  0.00  0.00    +0.000 C 
ENDBRANCH   5  24
BRANCH  15  26
ATOM     26  O   UNL     1      -0.489  15.653  24.434  0.00  0.00    +0.000 OA
ATOM     27  H   UNL     1      -0.234  16.362  23.814  0.00  0.00    +0.000 HD
ENDBRANCH  15  26
TORSDOF 3
ENDMDL
MODEL 4
REMARK VINA RESULT:      -6.4      1.940      2.219
REMARK  Name = 
REMARK  7 active torsions:
REMARK  status: ('A' for Active; 'I' for Inactive)
REMARK    1  A    between atoms: C_1  and  O_2
REMARK    2  A    between atoms: O_2  and  C_3
REMARK    3  A    between atoms: C_7  and  O_8
REMARK    4  A    between atoms: O_8  and  C_9
REMARK    5  A    between atoms: C_14  and  C_15
REMARK    6  A    between atoms: C_19  and  O_20
REMARK    7  A    between atoms: C_21  and  C_22
REMARK                            x       y       z     vdW  Elec       q    Type
REMARK                         _______ _______ _______ _____ _____    ______ ____
ROOT
ATOM      1  C   UNL     1       7.290  12.032  24.033  0.00  0.00    +0.000 A 
ATOM      2  C   UNL     1       8.130  11.801  22.948  0.00  0.00    +0.000 A 
ATOM      3  C   UNL     1       8.304  12.771  21.945  0.00  0.00    +0.000 A 
ATOM      4  C   UNL     1       7.599  14.005  22.055  0.00  0.00    +0.000 A 
ATOM      5  C   UNL     1       6.785  14.259  23.176  0.00  0.00    +0.000 A 
ATOM      6  C   UNL     1       6.643  13.265  24.153  0.00  0.00    +0.000 A 
ATOM      7  C   UNL     1       7.561  14.958  20.909  0.00  0.00    +0.000 C 
ATOM      8  O   UNL     1       7.229  14.591  19.789  0.00  0.00    +0.000 OA
ATOM      9  O   UNL     1       7.984  16.216  21.228  0.00  0.00    +0.000 OA
ATOM     10  C   UNL     1       7.996  17.164  20.129  0.00  0.00    +0.000 C 
ATOM     11  C   UNL     1       7.705  18.557  20.685  0.00  0.00    +0.000 C 
ATOM     12  C   UNL     1       9.376  17.138  19.436  0.00  0.00    +0.000 C 
ATOM     13  C   UNL     1       9.290  16.564  18.017  0.00  0.00    +0.000 C 
ATOM     14  C   UNL     1      10.635  16.109  17.417  0.00  0.00    +0.000 C 
ATOM     15  C   UNL     1      10.698  14.585  17.177  0.00  0.00    +0.000 C 
ATOM     16  C   UNL     1      11.429  13.677  18.218  0.00  0.00    +0.000 C 
ATOM     17  C   UNL     1      11.642  14.309  19.590  0.00  0.00    +0.000 C 
ATOM     18  C   UNL     1      10.729  12.281  18.219  0.00  0.00    +0.000 C 
ATOM     19  C   UNL     1      10.985  11.340  19.408  0.00  0.00    +0.000 C 
ATOM     20  C   UNL     1      10.076  11.481  20.614  0.00  0.00    +0.000 C 
ATOM     21  C   UNL     1       9.198  12.484  20.800  0.00  0.00    +0.000 C 
ENDROOT
BRANCH   1  23
ATOM     22  C   UNL     1       6.067  11.538  26.017  0.00  0.00    +0.000 C 
ATOM     23  O   UNL     1       7.011  11.134  25.029  0.00  0.00    +0.000 OA
ENDBRANCH   1  23
BRANCH   5  24
ATOM     24  O   UNL     1       6.140  15.469  23.218  0.00  0.00    +0.000 OA
ATOM     25  C   UNL     1       4.723  15.457  23.338  0.00  0.00    +0.000 C 
ENDBRANCH   5  24
BRANCH  15  26
ATOM     26  O   UNL     1      11.330  14.356  15.907  0.00  0.00    +0.000 OA
ATOM     27  H   UNL     1      11.552  15.228  15.529  0.00  0.00    +0.000 HD
ENDBRANCH  15  26
TORSDOF 3
ENDMDL
MODEL 5
REMARK VINA RESULT:      -6.2     11.413     13.807
REMARK  Name = 
REMARK  7 active torsions:
REMARK  status: ('A' for Active; 'I' for Inactive)
REMARK    1  A    between atoms: C_1  and  O_2
REMARK    2  A    between atoms: O_2  and  C_3
REMARK    3  A    between atoms: C_7  and  O_8
REMARK    4  A    between atoms: O_8  and  C_9
REMARK    5  A    between atoms: C_14  and  C_15
REMARK    6  A    between atoms: C_19  and  O_20
REMARK    7  A    between atoms: C_21  and  C_22
REMARK                            x       y       z     vdW  Elec       q    Type
REMARK                         _______ _______ _______ _____ _____    ______ ____
ROOT
ATOM      1  C   UNL     1      -5.889  13.614  23.276  0.00  0.00    +0.000 A 
ATOM      2  C   UNL     1      -6.022  13.246  21.941  0.00  0.00    +0.000 A 
ATOM      3  C   UNL     1      -4.914  12.808  21.194  0.00  0.00    +0.000 A 
ATOM      4  C   UNL     1      -3.640  12.746  21.831  0.00  0.00    +0.000 A 
ATOM      5  C   UNL     1      -3.511  13.072  23.194  0.00  0.00    +0.000 A 
ATOM      6  C   UNL     1      -4.642  13.502  23.900  0.00  0.00    +0.000 A 
ATOM      7  C   UNL     1      -2.405  12.521  21.026  0.00  0.00    +0.000 C 
ATOM      8  O   UNL     1      -2.151  13.211  20.046  0.00  0.00    +0.000 OA
ATOM      9  O   UNL     1      -1.657  11.462  21.454  0.00  0.00    +0.000 OA
ATOM     10  C   UNL     1      -0.464  11.188  20.674  0.00  0.00    +0.000 C 
ATOM     11  C   UNL     1       0.602  10.610  21.601  0.00  0.00    +0.000 C 
ATOM     12  C   UNL     1      -0.800  10.187  19.547  0.00  0.00    +0.000 C 
ATOM     13  C   UNL     1      -0.707  10.836  18.161  0.00  0.00    +0.000 C 
ATOM     14  C   UNL     1      -1.418  10.063  17.032  0.00  0.00    +0.000 C 
ATOM     15  C   UNL     1      -2.618  10.835  16.441  0.00  0.00    +0.000 C 
ATOM     16  C   UNL     1      -4.064  10.478  16.913  0.00  0.00    +0.000 C 
ATOM     17  C   UNL     1      -4.143   9.703  18.224  0.00  0.00    +0.000 C 
ATOM     18  C   UNL     1      -4.930  11.776  16.843  0.00  0.00    +0.000 C 
ATOM     19  C   UNL     1      -6.262  11.803  17.611  0.00  0.00    +0.000 C 
ATOM     20  C   UNL     1      -6.220  12.250  19.059  0.00  0.00    +0.000 C 
ATOM     21  C   UNL     1      -5.094  12.436  19.772  0.00  0.00    +0.000 C 
ENDROOT
BRANCH   1  23
ATOM     22  C   UNL     1      -7.770  15.060  23.484  0.00  0.00    +0.000 C 
ATOM     23  O   UNL     1      -6.890  14.106  24.071  0.00  0.00    +0.000 OA
ENDBRANCH   1  23
BRANCH   5  24
ATOM     24  O   UNL     1      -2.257  12.986  23.741  0.00  0.00    +0.000 OA
ATOM     25  C   UNL     1      -1.560  14.201  23.988  0.00  0.00    +0.000 C 
ENDBRANCH   5  24
BRANCH  15  26
ATOM     26  O   UNL     1      -2.594  10.678  15.013  0.00  0.00    +0.000 OA
ATOM     27  H   UNL     1      -3.450  10.995  14.669  0.00  0.00    +0.000 HD
ENDBRANCH  15  26
TORSDOF 3
ENDMDL
MODEL 6
REMARK VINA RESULT:      -6.0     11.868     15.100
REMARK  Name = 
REMARK  7 active torsions:
REMARK  status: ('A' for Active; 'I' for Inactive)
REMARK    1  A    between atoms: C_1  and  O_2
REMARK    2  A    between atoms: O_2  and  C_3
REMARK    3  A    between atoms: C_7  and  O_8
REMARK    4  A    between atoms: O_8  and  C_9
REMARK    5  A    between atoms: C_14  and  C_15
REMARK    6  A    between atoms: C_19  and  O_20
REMARK    7  A    between atoms: C_21  and  C_22
REMARK                            x       y       z     vdW  Elec       q    Type
REMARK                         _______ _______ _______ _____ _____    ______ ____
ROOT
ATOM      1  C   UNL     1      -3.154  10.561  16.977  0.00  0.00    +0.000 A 
ATOM      2  C   UNL     1      -4.242  10.774  17.818  0.00  0.00    +0.000 A 
ATOM      3  C   UNL     1      -4.127  11.580  18.965  0.00  0.00    +0.000 A 
ATOM      4  C   UNL     1      -2.867  12.180  19.258  0.00  0.00    +0.000 A 
ATOM      5  C   UNL     1      -1.778  12.004  18.383  0.00  0.00    +0.000 A 
ATOM      6  C   UNL     1      -1.938  11.195  17.250  0.00  0.00    +0.000 A 
ATOM      7  C   UNL     1      -2.631  12.837  20.575  0.00  0.00    +0.000 C 
ATOM      8  O   UNL     1      -2.871  12.256  21.627  0.00  0.00    +0.000 OA
ATOM      9  O   UNL     1      -2.199  14.127  20.474  0.00  0.00    +0.000 OA
ATOM     10  C   UNL     1      -1.992  14.814  21.736  0.00  0.00    +0.000 C 
ATOM     11  C   UNL     1      -0.855  15.819  21.564  0.00  0.00    +0.000 C 
ATOM     12  C   UNL     1      -3.292  15.537  22.152  0.00  0.00    +0.000 C 
ATOM     13  C   UNL     1      -3.920  14.907  23.401  0.00  0.00    +0.000 C 
ATOM     14  C   UNL     1      -5.399  15.270  23.638  0.00  0.00    +0.000 C 
ATOM     15  C   UNL     1      -6.342  14.052  23.519  0.00  0.00    +0.000 C 
ATOM     16  C   UNL     1      -7.132  13.826  22.190  0.00  0.00    +0.000 C 
ATOM     17  C   UNL     1      -6.586  14.572  20.978  0.00  0.00    +0.000 C 
ATOM     18  C   UNL     1      -7.332  12.288  22.003  0.00  0.00    +0.000 C 
ATOM     19  C   UNL     1      -7.723  11.771  20.608  0.00  0.00    +0.000 C 
ATOM     20  C   UNL     1      -6.597  11.455  19.643  0.00  0.00    +0.000 C 
ATOM     21  C   UNL     1      -5.304  11.773  19.842  0.00  0.00    +0.000 C 
ENDROOT
BRANCH   1  23
ATOM     22  C   UNL     1      -3.368  10.381  14.611  0.00  0.00    +0.000 C 
ATOM     23  O   UNL     1      -3.149   9.753  15.871  0.00  0.00    +0.000 OA
ENDBRANCH   1  23
BRANCH   5  24
ATOM     24  O   UNL     1      -0.598  12.614  18.724  0.00  0.00    +0.000 OA
ATOM     25  C   UNL     1       0.533  11.781  18.950  0.00  0.00    +0.000 C 
ENDBRANCH   5  24
BRANCH  15  26
ATOM     26  O   UNL     1      -7.313  14.131  24.575  0.00  0.00    +0.000 OA
ATOM     27  H   UNL     1      -8.062  14.662  24.245  0.00  0.00    +0.000 HD
ENDBRANCH  15  26
TORSDOF 3
ENDMDL
MODEL 7
REMARK VINA RESULT:      -6.0     10.972     14.767
REMARK  Name = 
REMARK  7 active torsions:
REMARK  status: ('A' for Active; 'I' for Inactive)
REMARK    1  A    between atoms: C_1  and  O_2
REMARK    2  A    between atoms: O_2  and  C_3
REMARK    3  A    between atoms: C_7  and  O_8
REMARK    4  A    between atoms: O_8  and  C_9
REMARK    5  A    between atoms: C_14  and  C_15
REMARK    6  A    between atoms: C_19  and  O_20
REMARK    7  A    between atoms: C_21  and  C_22
REMARK                            x       y       z     vdW  Elec       q    Type
REMARK                         _______ _______ _______ _____ _____    ______ ____
ROOT
ATOM      1  C   UNL     1      -0.031  11.092  19.096  0.00  0.00    +0.000 A 
ATOM      2  C   UNL     1      -0.249  11.883  20.220  0.00  0.00    +0.000 A 
ATOM      3  C   UNL     1      -1.535  12.355  20.538  0.00  0.00    +0.000 A 
ATOM      4  C   UNL     1      -2.623  12.009  19.683  0.00  0.00    +0.000 A 
ATOM      5  C   UNL     1      -2.413  11.170  18.572  0.00  0.00    +0.000 A 
ATOM      6  C   UNL     1      -1.115  10.721  18.294  0.00  0.00    +0.000 A 
ATOM      7  C   UNL     1      -3.947  12.675  19.840  0.00  0.00    +0.000 C 
ATOM      8  O   UNL     1      -4.044  13.896  19.870  0.00  0.00    +0.000 OA
ATOM      9  O   UNL     1      -4.984  11.803  20.003  0.00  0.00    +0.000 OA
ATOM     10  C   UNL     1      -6.286  12.414  20.195  0.00  0.00    +0.000 C 
ATOM     11  C   UNL     1      -7.349  11.495  19.596  0.00  0.00    +0.000 C 
ATOM     12  C   UNL     1      -6.543  12.625  21.703  0.00  0.00    +0.000 C 
ATOM     13  C   UNL     1      -6.568  14.112  22.074  0.00  0.00    +0.000 C 
ATOM     14  C   UNL     1      -6.394  14.410  23.577  0.00  0.00    +0.000 C 
ATOM     15  C   UNL     1      -5.085  15.168  23.889  0.00  0.00    +0.000 C 
ATOM     16  C   UNL     1      -3.849  14.371  24.417  0.00  0.00    +0.000 C 
ATOM     17  C   UNL     1      -3.897  12.867  24.172  0.00  0.00    +0.000 C 
ATOM     18  C   UNL     1      -2.558  15.096  23.919  0.00  0.00    +0.000 C 
ATOM     19  C   UNL     1      -1.230  14.322  23.959  0.00  0.00    +0.000 C 
ATOM     20  C   UNL     1      -0.881  13.478  22.748  0.00  0.00    +0.000 C 
ATOM     21  C   UNL     1      -1.725  13.204  21.736  0.00  0.00    +0.000 C 
ENDROOT
BRANCH   1  23
ATOM     22  C   UNL     1       1.210   9.350  18.047  0.00  0.00    +0.000 C 
ATOM     23  O   UNL     1       1.186  10.631  18.670  0.00  0.00    +0.000 OA
ENDBRANCH   1  23
BRANCH   5  24
ATOM     24  O   UNL     1      -3.505  10.875  17.797  0.00  0.00    +0.000 OA
ATOM     25  C   UNL     1      -3.385  11.058  16.391  0.00  0.00    +0.000 C 
ENDBRANCH   5  24
BRANCH  15  26
ATOM     26  O   UNL     1      -5.376  16.183  24.864  0.00  0.00    +0.000 OA
ATOM     27  H   UNL     1      -5.364  17.043  24.403  0.00  0.00    +0.000 HD
ENDBRANCH  15  26
TORSDOF 3
ENDMDL
MODEL 8
REMARK VINA RESULT:      -5.9     10.556     13.736
REMARK  Name = 
REMARK  7 active torsions:
REMARK  status: ('A' for Active; 'I' for Inactive)
REMARK    1  A    between atoms: C_1  and  O_2
REMARK    2  A    between atoms: O_2  and  C_3
REMARK    3  A    between atoms: C_7  and  O_8
REMARK    4  A    between atoms: O_8  and  C_9
REMARK    5  A    between atoms: C_14  and  C_15
REMARK    6  A    between atoms: C_19  and  O_20
REMARK    7  A    between atoms: C_21  and  C_22
REMARK                            x       y       z     vdW  Elec       q    Type
REMARK                         _______ _______ _______ _____ _____    ______ ____
ROOT
ATOM      1  C   UNL     1      -2.973  10.543  17.194  0.00  0.00    +0.000 A 
ATOM      2  C   UNL     1      -3.782  11.222  18.100  0.00  0.00    +0.000 A 
ATOM      3  C   UNL     1      -3.232  11.881  19.214  0.00  0.00    +0.000 A 
ATOM      4  C   UNL     1      -1.819  11.841  19.404  0.00  0.00    +0.000 A 
ATOM      5  C   UNL     1      -0.994  11.195  18.464  0.00  0.00    +0.000 A 
ATOM      6  C   UNL     1      -1.586  10.553  17.368  0.00  0.00    +0.000 A 
ATOM      7  C   UNL     1      -1.216  12.313  20.684  0.00  0.00    +0.000 C 
ATOM      8  O   UNL     1      -1.616  11.899  21.765  0.00  0.00    +0.000 OA
ATOM      9  O   UNL     1      -0.254  13.267  20.518  0.00  0.00    +0.000 OA
ATOM     10  C   UNL     1       0.332  13.777  21.743  0.00  0.00    +0.000 C 
ATOM     11  C   UNL     1       1.786  14.157  21.467  0.00  0.00    +0.000 C 
ATOM     12  C   UNL     1      -0.465  15.010  22.224  0.00  0.00    +0.000 C 
ATOM     13  C   UNL     1      -1.218  14.728  23.530  0.00  0.00    +0.000 C 
ATOM     14  C   UNL     1      -2.350  15.722  23.855  0.00  0.00    +0.000 C 
ATOM     15  C   UNL     1      -3.748  15.066  23.833  0.00  0.00    +0.000 C 
ATOM     16  C   UNL     1      -4.649  15.230  22.567  0.00  0.00    +0.000 C 
ATOM     17  C   UNL     1      -3.913  15.654  21.300  0.00  0.00    +0.000 C 
ATOM     18  C   UNL     1      -5.537  13.952  22.437  0.00  0.00    +0.000 C 
ATOM     19  C   UNL     1      -6.221  13.677  21.087  0.00  0.00    +0.000 C 
ATOM     20  C   UNL     1      -5.433  12.889  20.058  0.00  0.00    +0.000 C 
ATOM     21  C   UNL     1      -4.126  12.584  20.162  0.00  0.00    +0.000 C 
ENDROOT
BRANCH   1  23
ATOM     22  C   UNL     1      -3.146  10.369  14.825  0.00  0.00    +0.000 C 
ATOM     23  O   UNL     1      -3.415   9.826  16.114  0.00  0.00    +0.000 OA
ENDBRANCH   1  23
BRANCH   5  24
ATOM     24  O   UNL     1       0.355  11.200  18.708  0.00  0.00    +0.000 OA
ATOM     25  C   UNL     1       1.041   9.955  18.649  0.00  0.00    +0.000 C 
ENDBRANCH   5  24
BRANCH  15  26
ATOM     26  O   UNL     1      -4.499  15.572  24.949  0.00  0.00    +0.000 OA
ATOM     27  H   UNL     1      -5.105  16.257  24.608  0.00  0.00    +0.000 HD
ENDBRANCH  15  26
TORSDOF 3
ENDMDL
MODEL 9
REMARK VINA RESULT:      -5.8      2.103      5.864
REMARK  Name = 
REMARK  7 active torsions:
REMARK  status: ('A' for Active; 'I' for Inactive)
REMARK    1  A    between atoms: C_1  and  O_2
REMARK    2  A    between atoms: O_2  and  C_3
REMARK    3  A    between atoms: C_7  and  O_8
REMARK    4  A    between atoms: O_8  and  C_9
REMARK    5  A    between atoms: C_14  and  C_15
REMARK    6  A    between atoms: C_19  and  O_20
REMARK    7  A    between atoms: C_21  and  C_22
REMARK                            x       y       z     vdW  Elec       q    Type
REMARK                         _______ _______ _______ _____ _____    ______ ____
ROOT
ATOM      1  C   UNL     1       9.356  10.632  19.219  0.00  0.00    +0.000 A 
ATOM      2  C   UNL     1       9.151  11.292  20.427  0.00  0.00    +0.000 A 
ATOM      3  C   UNL     1       9.432  12.664  20.562  0.00  0.00    +0.000 A 
ATOM      4  C   UNL     1       9.936  13.374  19.433  0.00  0.00    +0.000 A 
ATOM      5  C   UNL     1      10.100  12.719  18.198  0.00  0.00    +0.000 A 
ATOM      6  C   UNL     1       9.805  11.353  18.108  0.00  0.00    +0.000 A 
ATOM      7  C   UNL     1      10.471  14.757  19.589  0.00  0.00    +0.000 C 
ATOM      8  O   UNL     1      11.318  15.019  20.436  0.00  0.00    +0.000 OA
ATOM      9  O   UNL     1       9.886  15.669  18.759  0.00  0.00    +0.000 OA
ATOM     10  C   UNL     1      10.356  17.034  18.906  0.00  0.00    +0.000 C 
ATOM     11  C   UNL     1      10.275  17.726  17.547  0.00  0.00    +0.000 C 
ATOM     12  C   UNL     1       9.480  17.775  19.941  0.00  0.00    +0.000 C 
ATOM     13  C   UNL     1      10.264  18.111  21.215  0.00  0.00    +0.000 C 
ATOM     14  C   UNL     1       9.395  18.456  22.440  0.00  0.00    +0.000 C 
ATOM     15  C   UNL     1       9.530  17.422  23.580  0.00  0.00    +0.000 C 
ATOM     16  C   UNL     1       8.435  16.319  23.744  0.00  0.00    +0.000 C 
ATOM     17  C   UNL     1       7.560  16.089  22.516  0.00  0.00    +0.000 C 
ATOM     18  C   UNL     1       9.118  15.044  24.335  0.00  0.00    +0.000 C 
ATOM     19  C   UNL     1       8.369  13.705  24.230  0.00  0.00    +0.000 C 
ATOM     20  C   UNL     1       8.580  12.888  22.970  0.00  0.00    +0.000 C 
ATOM     21  C   UNL     1       9.212  13.329  21.867  0.00  0.00    +0.000 C 
ENDROOT
BRANCH   1  23
ATOM     22  C   UNL     1       8.214   8.928  18.008  0.00  0.00    +0.000 C 
ATOM     23  O   UNL     1       9.167   9.293  19.002  0.00  0.00    +0.000 OA
ENDBRANCH   1  23
BRANCH   5  24
ATOM     24  O   UNL     1      10.584  13.466  17.154  0.00  0.00    +0.000 OA
ATOM     25  C   UNL     1      11.910  13.199  16.713  0.00  0.00    +0.000 C 
ENDBRANCH   5  24
BRANCH  15  26
ATOM     26  O   UNL     1       9.596  18.133  24.826  0.00  0.00    +0.000 OA
ATOM     27  H   UNL     1       8.829  17.857  25.362  0.00  0.00    +0.000 HD
ENDBRANCH  15  26
TORSDOF 3
ENDMDL
