MODEL 1
REMARK VINA RESULT:      -7.7      0.000      0.000
REMARK  Name = 
REMARK  8 active torsions:
REMARK  status: ('A' for Active; 'I' for Inactive)
REMARK    1  A    between atoms: C_1  and  C_2
REMARK    2  A    between atoms: C_5  and  N_6
REMARK    3  A    between atoms: C_8  and  C_9
REMARK    4  A    between atoms: N_11  and  C_12
REMARK    5  A    between atoms: C_12  and  C_13
REMARK    6  A    between atoms: N_18  and  C_19
REMARK    7  A    between atoms: C_19  and  C_20
REMARK    8  A    between atoms: C_29  and  C_30
REMARK                            x       y       z     vdW  Elec       q    Type
REMARK                         _______ _______ _______ _____ _____    ______ ____
ROOT
ATOM      1  N   UNL     1       0.456  10.145  19.447  0.00  0.00    +0.000 N 
ATOM      2  N   UNL     1      -0.554  10.302  18.509  0.00  0.00    +0.000 NA
ATOM      3  C   UNL     1      -1.371  11.306  18.627  0.00  0.00    +0.000 A 
ATOM      4  C   UNL     1      -1.200  12.348  19.697  0.00  0.00    +0.000 A 
ATOM      5  O   UNL     1      -1.954  13.312  19.716  0.00  0.00    +0.000 OA
ATOM      6  N   UNL     1      -0.185  12.122  20.597  0.00  0.00    +0.000 N 
ATOM      7  C   UNL     1       0.592  10.971  20.585  0.00  0.00    +0.000 A 
ATOM      8  O   UNL     1       1.316  10.719  21.550  0.00  0.00    +0.000 OA
ENDROOT
BRANCH   1  13
ATOM      9  C   UNL     1       3.827   5.584  18.191  0.00  0.00    +0.000 C 
ATOM     10  C   UNL     1       2.982   6.767  18.574  0.00  0.00    +0.000 A 
ATOM     11  C   UNL     1       2.962   7.885  17.738  0.00  0.00    +0.000 A 
ATOM     12  C   UNL     1       2.155   8.989  18.030  0.00  0.00    +0.000 A 
ATOM     13  C   UNL     1       1.344   9.033  19.172  0.00  0.00    +0.000 A 
ATOM     14  C   UNL     1       1.390   7.910  20.022  0.00  0.00    +0.000 A 
ATOM     15  C   UNL     1       2.191   6.779  19.736  0.00  0.00    +0.000 A 
ATOM     16  C   UNL     1       2.171   5.598  20.669  0.00  0.00    +0.000 C 
ENDBRANCH   1  13
BRANCH   3  17
ATOM     17  C   UNL     1      -2.526  11.392  17.635  0.00  0.00    +0.000 C 
ATOM     18  O   UNL     1      -2.318  11.222  16.443  0.00  0.00    +0.000 OA
ATOM     19  N   UNL     1      -3.757  11.710  18.174  0.00  0.00    +0.000 N 
ATOM     20  H   UNL     1      -3.796  12.044  19.130  0.00  0.00    +0.000 HD
BRANCH  19  21
ATOM     21  C   UNL     1      -4.894  11.878  17.299  0.00  0.00    +0.000 C 
BRANCH  21  22
ATOM     22  C   UNL     1      -6.130  11.309  17.912  0.00  0.00    +0.000 C 
ATOM     23  C   UNL     1      -6.427  11.474  19.382  0.00  0.00    +0.000 C 
ATOM     24  C   UNL     1      -7.235  12.233  18.368  0.00  0.00    +0.000 C 
ENDBRANCH  21  22
ENDBRANCH  19  21
ENDBRANCH   3  17
BRANCH   6  25
ATOM     25  C   UNL     1      -0.040  13.050  21.715  0.00  0.00    +0.000 C 
BRANCH  25  26
ATOM     26  C   UNL     1      -1.243  13.121  22.631  0.00  0.00    +0.000 A 
ATOM     27  C   UNL     1      -1.717  14.360  23.094  0.00  0.00    +0.000 A 
ATOM     28  C   UNL     1      -2.889  14.444  23.847  0.00  0.00    +0.000 A 
ATOM     29  C   UNL     1      -3.605  13.290  24.154  0.00  0.00    +0.000 A 
ATOM     30  C   UNL     1      -3.136  12.051  23.730  0.00  0.00    +0.000 A 
ATOM     31  C   UNL     1      -1.958  11.962  22.982  0.00  0.00    +0.000 A 
ENDBRANCH  25  26
ENDBRANCH   6  25
TORSDOF 6
ENDMDL
MODEL 2
REMARK VINA RESULT:      -7.4      1.523      2.234
REMARK  Name = 
REMARK  8 active torsions:
REMARK  status: ('A' for Active; 'I' for Inactive)
REMARK    1  A    between atoms: C_1  and  C_2
REMARK    2  A    between atoms: C_5  and  N_6
REMARK    3  A    between atoms: C_8  and  C_9
REMARK    4  A    between atoms: N_11  and  C_12
REMARK    5  A    between atoms: C_12  and  C_13
REMARK    6  A    between atoms: N_18  and  C_19
REMARK    7  A    between atoms: C_19  and  C_20
REMARK    8  A    between atoms: C_29  and  C_30
REMARK                            x       y       z     vdW  Elec       q    Type
REMARK                         _______ _______ _______ _____ _____    ______ ____
ROOT
ATOM      1  N   UNL     1       0.427  10.066  19.542  0.00  0.00    +0.000 N 
ATOM      2  N   UNL     1      -0.592  10.199  18.610  0.00  0.00    +0.000 NA
ATOM      3  C   UNL     1      -1.433  11.183  18.733  0.00  0.00    +0.000 A 
ATOM      4  C   UNL     1      -1.283  12.227  19.805  0.00  0.00    +0.000 A 
ATOM      5  O   UNL     1      -2.060  13.172  19.829  0.00  0.00    +0.000 OA
ATOM      6  N   UNL     1      -0.258  12.025  20.699  0.00  0.00    +0.000 N 
ATOM      7  C   UNL     1       0.548  10.894  20.681  0.00  0.00    +0.000 A 
ATOM      8  O   UNL     1       1.284  10.659  21.641  0.00  0.00    +0.000 OA
ENDROOT
BRANCH   1  13
ATOM      9  C   UNL     1       3.905   5.594  18.259  0.00  0.00    +0.000 C 
ATOM     10  C   UNL     1       3.032   6.755  18.649  0.00  0.00    +0.000 A 
ATOM     11  C   UNL     1       2.985   7.876  17.819  0.00  0.00    +0.000 A 
ATOM     12  C   UNL     1       2.152   8.959  18.118  0.00  0.00    +0.000 A 
ATOM     13  C   UNL     1       1.341   8.978  19.261  0.00  0.00    +0.000 A 
ATOM     14  C   UNL     1       1.415   7.852  20.104  0.00  0.00    +0.000 A 
ATOM     15  C   UNL     1       2.242   6.742  19.812  0.00  0.00    +0.000 A 
ATOM     16  C   UNL     1       2.253   5.557  20.739  0.00  0.00    +0.000 C 
ENDBRANCH   1  13
BRANCH   3  17
ATOM     17  C   UNL     1      -2.595  11.241  17.748  0.00  0.00    +0.000 C 
ATOM     18  O   UNL     1      -3.741  11.102  18.151  0.00  0.00    +0.000 OA
ATOM     19  N   UNL     1      -2.250  11.408  16.422  0.00  0.00    +0.000 N 
ATOM     20  H   UNL     1      -1.278  11.297  16.157  0.00  0.00    +0.000 HD
BRANCH  19  21
ATOM     21  C   UNL     1      -3.284  11.406  15.413  0.00  0.00    +0.000 C 
BRANCH  21  22
ATOM     22  C   UNL     1      -3.457  10.044  14.826  0.00  0.00    +0.000 C 
ATOM     23  C   UNL     1      -4.268   9.825  13.574  0.00  0.00    +0.000 C 
ATOM     24  C   UNL     1      -2.773   9.695  13.526  0.00  0.00    +0.000 C 
ENDBRANCH  21  22
ENDBRANCH  19  21
ENDBRANCH   3  17
BRANCH   6  25
ATOM     25  C   UNL     1      -0.130  12.955  21.817  0.00  0.00    +0.000 C 
BRANCH  25  26
ATOM     26  C   UNL     1      -1.390  13.121  22.641  0.00  0.00    +0.000 A 
ATOM     27  C   UNL     1      -2.133  12.000  23.044  0.00  0.00    +0.000 A 
ATOM     28  C   UNL     1      -3.232  12.134  23.894  0.00  0.00    +0.000 A 
ATOM     29  C   UNL     1      -3.608  13.394  24.353  0.00  0.00    +0.000 A 
ATOM     30  C   UNL     1      -2.902  14.520  23.940  0.00  0.00    +0.000 A 
ATOM     31  C   UNL     1      -1.806  14.389  23.082  0.00  0.00    +0.000 A 
ENDBRANCH  25  26
ENDBRANCH   6  25
TORSDOF 6
ENDMDL
MODEL 3
REMARK VINA RESULT:      -7.4      1.624      2.412
REMARK  Name = 
REMARK  8 active torsions:
REMARK  status: ('A' for Active; 'I' for Inactive)
REMARK    1  A    between atoms: C_1  and  C_2
REMARK    2  A    between atoms: C_5  and  N_6
REMARK    3  A    between atoms: C_8  and  C_9
REMARK    4  A    between atoms: N_11  and  C_12
REMARK    5  A    between atoms: C_12  and  C_13
REMARK    6  A    between atoms: N_18  and  C_19
REMARK    7  A    between atoms: C_19  and  C_20
REMARK    8  A    between atoms: C_29  and  C_30
REMARK                            x       y       z     vdW  Elec       q    Type
REMARK                         _______ _______ _______ _____ _____    ______ ____
ROOT
ATOM      1  N   UNL     1       0.157  10.064  20.001  0.00  0.00    +0.000 N 
ATOM      2  N   UNL     1      -0.773  10.247  18.988  0.00  0.00    +0.000 NA
ATOM      3  C   UNL     1      -1.510  11.318  18.997  0.00  0.00    +0.000 A 
ATOM      4  C   UNL     1      -1.324  12.402  20.023  0.00  0.00    +0.000 A 
ATOM      5  O   UNL     1      -1.995  13.422  19.940  0.00  0.00    +0.000 OA
ATOM      6  N   UNL     1      -0.392  12.147  21.002  0.00  0.00    +0.000 N 
ATOM      7  C   UNL     1       0.286  10.940  21.103  0.00  0.00    +0.000 A 
ATOM      8  O   UNL     1       0.923  10.686  22.127  0.00  0.00    +0.000 OA
ENDROOT
BRANCH   1  13
ATOM      9  C   UNL     1       3.594   5.405  19.524  0.00  0.00    +0.000 C 
ATOM     10  C   UNL     1       2.680   6.597  19.589  0.00  0.00    +0.000 A 
ATOM     11  C   UNL     1       1.839   6.746  20.692  0.00  0.00    +0.000 A 
ATOM     12  C   UNL     1       1.007   7.863  20.817  0.00  0.00    +0.000 A 
ATOM     13  C   UNL     1       0.967   8.872  19.846  0.00  0.00    +0.000 A 
ATOM     14  C   UNL     1       1.804   8.699  18.725  0.00  0.00    +0.000 A 
ATOM     15  C   UNL     1       2.661   7.583  18.587  0.00  0.00    +0.000 A 
ATOM     16  C   UNL     1       3.552   7.473  17.379  0.00  0.00    +0.000 C 
ENDBRANCH   1  13
BRANCH   3  17
ATOM     17  C   UNL     1      -2.587  11.438  17.925  0.00  0.00    +0.000 C 
ATOM     18  O   UNL     1      -3.759  11.557  18.251  0.00  0.00    +0.000 OA
ATOM     19  N   UNL     1      -2.145  11.356  16.619  0.00  0.00    +0.000 N 
ATOM     20  H   UNL     1      -1.196  11.043  16.447  0.00  0.00    +0.000 HD
BRANCH  19  21
ATOM     21  C   UNL     1      -3.105  11.393  15.541  0.00  0.00    +0.000 C 
BRANCH  21  22
ATOM     22  C   UNL     1      -3.282  10.040  14.935  0.00  0.00    +0.000 C 
ATOM     23  C   UNL     1      -4.200   9.818  13.759  0.00  0.00    +0.000 C 
ATOM     24  C   UNL     1      -2.712   9.749  13.568  0.00  0.00    +0.000 C 
ENDBRANCH  21  22
ENDBRANCH  19  21
ENDBRANCH   3  17
BRANCH   6  25
ATOM     25  C   UNL     1      -0.245  13.122  22.078  0.00  0.00    +0.000 C 
BRANCH  25  26
ATOM     26  C   UNL     1      -1.450  13.240  22.987  0.00  0.00    +0.000 A 
ATOM     27  C   UNL     1      -1.773  14.467  23.590  0.00  0.00    +0.000 A 
ATOM     28  C   UNL     1      -2.942  14.613  24.339  0.00  0.00    +0.000 A 
ATOM     29  C   UNL     1      -3.806  13.534  24.501  0.00  0.00    +0.000 A 
ATOM     30  C   UNL     1      -3.489  12.303  23.935  0.00  0.00    +0.000 A 
ATOM     31  C   UNL     1      -2.315  12.151  23.191  0.00  0.00    +0.000 A 
ENDBRANCH  25  26
ENDBRANCH   6  25
TORSDOF 6
ENDMDL
MODEL 4
REMARK VINA RESULT:      -7.3      0.692      1.355
REMARK  Name = 
REMARK  8 active torsions:
REMARK  status: ('A' for Active; 'I' for Inactive)
REMARK    1  A    between atoms: C_1  and  C_2
REMARK    2  A    between atoms: C_5  and  N_6
REMARK    3  A    between atoms: C_8  and  C_9
REMARK    4  A    between atoms: N_11  and  C_12
REMARK    5  A    between atoms: C_12  and  C_13
REMARK    6  A    between atoms: N_18  and  C_19
REMARK    7  A    between atoms: C_19  and  C_20
REMARK    8  A    between atoms: C_29  and  C_30
REMARK                            x       y       z     vdW  Elec       q    Type
REMARK                         _______ _______ _______ _____ _____    ______ ____
ROOT
ATOM      1  N   UNL     1       0.216  10.002  19.911  0.00  0.00    +0.000 N 
ATOM      2  N   UNL     1      -0.701  10.165  18.883  0.00  0.00    +0.000 NA
ATOM      3  C   UNL     1      -1.433  11.238  18.858  0.00  0.00    +0.000 A 
ATOM      4  C   UNL     1      -1.256  12.345  19.860  0.00  0.00    +0.000 A 
ATOM      5  O   UNL     1      -1.921  13.366  19.745  0.00  0.00    +0.000 OA
ATOM      6  N   UNL     1      -0.337  12.110  20.856  0.00  0.00    +0.000 N 
ATOM      7  C   UNL     1       0.335  10.903  20.994  0.00  0.00    +0.000 A 
ATOM      8  O   UNL     1       0.958  10.670  22.032  0.00  0.00    +0.000 OA
ENDROOT
BRANCH   1  13
ATOM      9  C   UNL     1       3.637   5.317  19.588  0.00  0.00    +0.000 C 
ATOM     10  C   UNL     1       2.728   6.516  19.614  0.00  0.00    +0.000 A 
ATOM     11  C   UNL     1       1.864   6.688  20.696  0.00  0.00    +0.000 A 
ATOM     12  C   UNL     1       1.036   7.811  20.784  0.00  0.00    +0.000 A 
ATOM     13  C   UNL     1       1.022   8.804  19.794  0.00  0.00    +0.000 A 
ATOM     14  C   UNL     1       1.881   8.607  18.695  0.00  0.00    +0.000 A 
ATOM     15  C   UNL     1       2.735   7.484  18.594  0.00  0.00    +0.000 A 
ATOM     16  C   UNL     1       3.651   7.348  17.408  0.00  0.00    +0.000 C 
ENDBRANCH   1  13
BRANCH   3  17
ATOM     17  C   UNL     1      -2.496  11.338  17.769  0.00  0.00    +0.000 C 
ATOM     18  O   UNL     1      -2.208  11.070  16.612  0.00  0.00    +0.000 OA
ATOM     19  N   UNL     1      -3.737  11.782  18.181  0.00  0.00    +0.000 N 
ATOM     20  H   UNL     1      -3.825  12.184  19.107  0.00  0.00    +0.000 HD
BRANCH  19  21
ATOM     21  C   UNL     1      -4.784  11.971  17.204  0.00  0.00    +0.000 C 
BRANCH  21  22
ATOM     22  C   UNL     1      -6.108  12.154  17.868  0.00  0.00    +0.000 C 
ATOM     23  C   UNL     1      -6.442  13.415  18.625  0.00  0.00    +0.000 C 
ATOM     24  C   UNL     1      -7.101  13.142  17.303  0.00  0.00    +0.000 C 
ENDBRANCH  21  22
ENDBRANCH  19  21
ENDBRANCH   3  17
BRANCH   6  25
ATOM     25  C   UNL     1      -0.198  13.109  21.911  0.00  0.00    +0.000 C 
BRANCH  25  26
ATOM     26  C   UNL     1      -1.379  13.191  22.856  0.00  0.00    +0.000 A 
ATOM     27  C   UNL     1      -1.696  14.399  23.500  0.00  0.00    +0.000 A 
ATOM     28  C   UNL     1      -2.845  14.514  24.285  0.00  0.00    +0.000 A 
ATOM     29  C   UNL     1      -3.694  13.421  24.442  0.00  0.00    +0.000 A 
ATOM     30  C   UNL     1      -3.380  12.209  23.836  0.00  0.00    +0.000 A 
ATOM     31  C   UNL     1      -2.226  12.088  23.056  0.00  0.00    +0.000 A 
ENDBRANCH  25  26
ENDBRANCH   6  25
TORSDOF 6
ENDMDL
MODEL 5
REMARK VINA RESULT:      -7.2      2.345      3.732
REMARK  Name = 
REMARK  8 active torsions:
REMARK  status: ('A' for Active; 'I' for Inactive)
REMARK    1  A    between atoms: C_1  and  C_2
REMARK    2  A    between atoms: C_5  and  N_6
REMARK    3  A    between atoms: C_8  and  C_9
REMARK    4  A    between atoms: N_11  and  C_12
REMARK    5  A    between atoms: C_12  and  C_13
REMARK    6  A    between atoms: N_18  and  C_19
REMARK    7  A    between atoms: C_19  and  C_20
REMARK    8  A    between atoms: C_29  and  C_30
REMARK                            x       y       z     vdW  Elec       q    Type
REMARK                         _______ _______ _______ _____ _____    ______ ____
ROOT
ATOM      1  N   UNL     1       0.532  10.294  19.399  0.00  0.00    +0.000 N 
ATOM      2  N   UNL     1      -0.561  10.314  18.545  0.00  0.00    +0.000 NA
ATOM      3  C   UNL     1      -1.153  11.447  18.307  0.00  0.00    +0.000 A 
ATOM      4  C   UNL     1      -0.635  12.745  18.861  0.00  0.00    +0.000 A 
ATOM      5  O   UNL     1      -1.188  13.790  18.545  0.00  0.00    +0.000 OA
ATOM      6  N   UNL     1       0.445  12.648  19.707  0.00  0.00    +0.000 N 
ATOM      7  C   UNL     1       0.987  11.432  20.103  0.00  0.00    +0.000 A 
ATOM      8  O   UNL     1       1.789  11.402  21.037  0.00  0.00    +0.000 OA
ENDROOT
BRANCH   1  13
ATOM      9  C   UNL     1       3.211   5.182  20.059  0.00  0.00    +0.000 C 
ATOM     10  C   UNL     1       2.494   6.484  19.832  0.00  0.00    +0.000 A 
ATOM     11  C   UNL     1       1.647   6.974  20.828  0.00  0.00    +0.000 A 
ATOM     12  C   UNL     1       0.997   8.203  20.680  0.00  0.00    +0.000 A 
ATOM     13  C   UNL     1       1.150   8.990  19.531  0.00  0.00    +0.000 A 
ATOM     14  C   UNL     1       1.988   8.474  18.522  0.00  0.00    +0.000 A 
ATOM     15  C   UNL     1       2.664   7.240  18.659  0.00  0.00    +0.000 A 
ATOM     16  C   UNL     1       3.569   6.759  17.557  0.00  0.00    +0.000 C 
ENDBRANCH   1  13
BRANCH   3  17
ATOM     17  C   UNL     1      -2.409  11.415  17.443  0.00  0.00    +0.000 C 
ATOM     18  O   UNL     1      -2.330  11.082  16.269  0.00  0.00    +0.000 OA
ATOM     19  N   UNL     1      -3.574  11.822  18.062  0.00  0.00    +0.000 N 
ATOM     20  H   UNL     1      -3.509  12.282  18.963  0.00  0.00    +0.000 HD
BRANCH  19  21
ATOM     21  C   UNL     1      -4.798  11.888  17.299  0.00  0.00    +0.000 C 
BRANCH  21  22
ATOM     22  C   UNL     1      -5.907  11.181  18.005  0.00  0.00    +0.000 C 
ATOM     23  C   UNL     1      -6.249  11.490  19.441  0.00  0.00    +0.000 C 
ATOM     24  C   UNL     1      -7.177  11.925  18.343  0.00  0.00    +0.000 C 
ENDBRANCH  21  22
ENDBRANCH  19  21
ENDBRANCH   3  17
BRANCH   6  25
ATOM     25  C   UNL     1       0.924  13.867  20.350  0.00  0.00    +0.000 C 
BRANCH  25  26
ATOM     26  C   UNL     1       1.805  14.733  19.475  0.00  0.00    +0.000 A 
ATOM     27  C   UNL     1       2.982  14.213  18.910  0.00  0.00    +0.000 A 
ATOM     28  C   UNL     1       3.743  14.967  18.014  0.00  0.00    +0.000 A 
ATOM     29  C   UNL     1       3.340  16.255  17.670  0.00  0.00    +0.000 A 
ATOM     30  C   UNL     1       2.193  16.797  18.242  0.00  0.00    +0.000 A 
ATOM     31  C   UNL     1       1.434  16.048  19.146  0.00  0.00    +0.000 A 
ENDBRANCH  25  26
ENDBRANCH   6  25
TORSDOF 6
ENDMDL
MODEL 6
REMARK VINA RESULT:      -7.2      2.749      4.010
REMARK  Name = 
REMARK  8 active torsions:
REMARK  status: ('A' for Active; 'I' for Inactive)
REMARK    1  A    between atoms: C_1  and  C_2
REMARK    2  A    between atoms: C_5  and  N_6
REMARK    3  A    between atoms: C_8  and  C_9
REMARK    4  A    between atoms: N_11  and  C_12
REMARK    5  A    between atoms: C_12  and  C_13
REMARK    6  A    between atoms: N_18  and  C_19
REMARK    7  A    between atoms: C_19  and  C_20
REMARK    8  A    between atoms: C_29  and  C_30
REMARK                            x       y       z     vdW  Elec       q    Type
REMARK                         _______ _______ _______ _____ _____    ______ ____
ROOT
ATOM      1  N   UNL     1       0.233  11.086  19.991  0.00  0.00    +0.000 N 
ATOM      2  N   UNL     1      -1.111  11.117  19.654  0.00  0.00    +0.000 NA
ATOM      3  C   UNL     1      -1.726  12.262  19.619  0.00  0.00    +0.000 A 
ATOM      4  C   UNL     1      -1.001  13.560  19.850  0.00  0.00    +0.000 A 
ATOM      5  O   UNL     1      -1.613  14.613  19.732  0.00  0.00    +0.000 OA
ATOM      6  N   UNL     1       0.327  13.452  20.191  0.00  0.00    +0.000 N 
ATOM      7  C   UNL     1       0.958  12.232  20.393  0.00  0.00    +0.000 A 
ATOM      8  O   UNL     1       2.070  12.205  20.924  0.00  0.00    +0.000 OA
ENDROOT
BRANCH   1  13
ATOM      9  C   UNL     1       2.821   5.887  19.857  0.00  0.00    +0.000 C 
ATOM     10  C   UNL     1       2.122   7.218  19.837  0.00  0.00    +0.000 A 
ATOM     11  C   UNL     1       1.384   7.613  20.953  0.00  0.00    +0.000 A 
ATOM     12  C   UNL     1       0.756   8.862  20.997  0.00  0.00    +0.000 A 
ATOM     13  C   UNL     1       0.825   9.765  19.927  0.00  0.00    +0.000 A 
ATOM     14  C   UNL     1       1.553   9.346  18.796  0.00  0.00    +0.000 A 
ATOM     15  C   UNL     1       2.205   8.092  18.738  0.00  0.00    +0.000 A 
ATOM     16  C   UNL     1       2.992   7.718  17.512  0.00  0.00    +0.000 C 
ENDBRANCH   1  13
BRANCH   3  17
ATOM     17  C   UNL     1      -3.224  12.247  19.339  0.00  0.00    +0.000 C 
ATOM     18  O   UNL     1      -3.665  11.569  18.423  0.00  0.00    +0.000 OA
ATOM     19  N   UNL     1      -3.993  13.065  20.143  0.00  0.00    +0.000 N 
ATOM     20  H   UNL     1      -3.525  13.749  20.727  0.00  0.00    +0.000 HD
BRANCH  19  21
ATOM     21  C   UNL     1      -5.414  13.164  19.904  0.00  0.00    +0.000 C 
BRANCH  21  22
ATOM     22  C   UNL     1      -6.172  12.230  20.788  0.00  0.00    +0.000 C 
ATOM     23  C   UNL     1      -7.651  12.400  21.028  0.00  0.00    +0.000 C 
ATOM     24  C   UNL     1      -7.158  11.259  20.184  0.00  0.00    +0.000 C 
ENDBRANCH  21  22
ENDBRANCH  19  21
ENDBRANCH   3  17
BRANCH   6  25
ATOM     25  C   UNL     1       1.051  14.675  20.523  0.00  0.00    +0.000 C 
BRANCH  25  26
ATOM     26  C   UNL     1       1.660  15.386  19.333  0.00  0.00    +0.000 A 
ATOM     27  C   UNL     1       1.160  16.630  18.911  0.00  0.00    +0.000 A 
ATOM     28  C   UNL     1       1.783  17.344  17.886  0.00  0.00    +0.000 A 
ATOM     29  C   UNL     1       2.915  16.825  17.263  0.00  0.00    +0.000 A 
ATOM     30  C   UNL     1       3.407  15.582  17.648  0.00  0.00    +0.000 A 
ATOM     31  C   UNL     1       2.781  14.860  18.668  0.00  0.00    +0.000 A 
ENDBRANCH  25  26
ENDBRANCH   6  25
TORSDOF 6
ENDMDL
MODEL 7
REMARK VINA RESULT:      -7.1      2.833      4.230
REMARK  Name = 
REMARK  8 active torsions:
REMARK  status: ('A' for Active; 'I' for Inactive)
REMARK    1  A    between atoms: C_1  and  C_2
REMARK    2  A    between atoms: C_5  and  N_6
REMARK    3  A    between atoms: C_8  and  C_9
REMARK    4  A    between atoms: N_11  and  C_12
REMARK    5  A    between atoms: C_12  and  C_13
REMARK    6  A    between atoms: N_18  and  C_19
REMARK    7  A    between atoms: C_19  and  C_20
REMARK    8  A    between atoms: C_29  and  C_30
REMARK                            x       y       z     vdW  Elec       q    Type
REMARK                         _______ _______ _______ _____ _____    ______ ____
ROOT
ATOM      1  N   UNL     1       0.607  10.333  19.433  0.00  0.00    +0.000 N 
ATOM      2  N   UNL     1      -0.533  10.363  18.643  0.00  0.00    +0.000 NA
ATOM      3  C   UNL     1      -1.119  11.504  18.428  0.00  0.00    +0.000 A 
ATOM      4  C   UNL     1      -0.549  12.799  18.938  0.00  0.00    +0.000 A 
ATOM      5  O   UNL     1      -1.101  13.850  18.644  0.00  0.00    +0.000 OA
ATOM      6  N   UNL     1       0.576  12.690  19.722  0.00  0.00    +0.000 N 
ATOM      7  C   UNL     1       1.120  11.469  20.098  0.00  0.00    +0.000 A 
ATOM      8  O   UNL     1       1.974  11.434  20.986  0.00  0.00    +0.000 OA
ENDROOT
BRANCH   1  13
ATOM      9  C   UNL     1       3.225   5.179  20.008  0.00  0.00    +0.000 C 
ATOM     10  C   UNL     1       2.524   6.493  19.802  0.00  0.00    +0.000 A 
ATOM     11  C   UNL     1       1.673   6.970  20.800  0.00  0.00    +0.000 A 
ATOM     12  C   UNL     1       1.036   8.209  20.673  0.00  0.00    +0.000 A 
ATOM     13  C   UNL     1       1.210   9.020  19.542  0.00  0.00    +0.000 A 
ATOM     14  C   UNL     1       2.052   8.517  18.531  0.00  0.00    +0.000 A 
ATOM     15  C   UNL     1       2.714   7.272  18.648  0.00  0.00    +0.000 A 
ATOM     16  C   UNL     1       3.625   6.807  17.544  0.00  0.00    +0.000 C 
ENDBRANCH   1  13
BRANCH   3  17
ATOM     17  C   UNL     1      -2.422  11.486  17.637  0.00  0.00    +0.000 C 
ATOM     18  O   UNL     1      -3.492  11.533  18.228  0.00  0.00    +0.000 OA
ATOM     19  N   UNL     1      -2.291  11.369  16.268  0.00  0.00    +0.000 N 
ATOM     20  H   UNL     1      -1.386  11.121  15.887  0.00  0.00    +0.000 HD
BRANCH  19  21
ATOM     21  C   UNL     1      -3.476  11.277  15.447  0.00  0.00    +0.000 C 
BRANCH  21  22
ATOM     22  C   UNL     1      -3.549   9.953  14.760  0.00  0.00    +0.000 C 
ATOM     23  C   UNL     1      -4.322   9.774  13.477  0.00  0.00    +0.000 C 
ATOM     24  C   UNL     1      -2.820   9.744  13.454  0.00  0.00    +0.000 C 
ENDBRANCH  21  22
ENDBRANCH  19  21
ENDBRANCH   3  17
BRANCH   6  25
ATOM     25  C   UNL     1       1.112  13.907  20.325  0.00  0.00    +0.000 C 
BRANCH  25  26
ATOM     26  C   UNL     1       1.847  14.814  19.360  0.00  0.00    +0.000 A 
ATOM     27  C   UNL     1       1.538  16.182  19.289  0.00  0.00    +0.000 A 
ATOM     28  C   UNL     1       2.283  17.046  18.484  0.00  0.00    +0.000 A 
ATOM     29  C   UNL     1       3.348  16.554  17.733  0.00  0.00    +0.000 A 
ATOM     30  C   UNL     1       3.650  15.196  17.768  0.00  0.00    +0.000 A 
ATOM     31  C   UNL     1       2.901  14.327  18.567  0.00  0.00    +0.000 A 
ENDBRANCH  25  26
ENDBRANCH   6  25
TORSDOF 6
ENDMDL
MODEL 8
REMARK VINA RESULT:      -7.0      3.025      4.179
REMARK  Name = 
REMARK  8 active torsions:
REMARK  status: ('A' for Active; 'I' for Inactive)
REMARK    1  A    between atoms: C_1  and  C_2
REMARK    2  A    between atoms: C_5  and  N_6
REMARK    3  A    between atoms: C_8  and  C_9
REMARK    4  A    between atoms: N_11  and  C_12
REMARK    5  A    between atoms: C_12  and  C_13
REMARK    6  A    between atoms: N_18  and  C_19
REMARK    7  A    between atoms: C_19  and  C_20
REMARK    8  A    between atoms: C_29  and  C_30
REMARK                            x       y       z     vdW  Elec       q    Type
REMARK                         _______ _______ _______ _____ _____    ______ ____
ROOT
ATOM      1  N   UNL     1       0.394  11.903  19.831  0.00  0.00    +0.000 N 
ATOM      2  N   UNL     1      -0.981  11.828  20.001  0.00  0.00    +0.000 NA
ATOM      3  C   UNL     1      -1.640  12.913  20.282  0.00  0.00    +0.000 A 
ATOM      4  C   UNL     1      -0.968  14.258  20.342  0.00  0.00    +0.000 A 
ATOM      5  O   UNL     1      -1.649  15.256  20.537  0.00  0.00    +0.000 OA
ATOM      6  N   UNL     1       0.397  14.254  20.173  0.00  0.00    +0.000 N 
ATOM      7  C   UNL     1       1.138  13.087  20.037  0.00  0.00    +0.000 A 
ATOM      8  O   UNL     1       2.366  13.135  20.129  0.00  0.00    +0.000 OA
ENDROOT
BRANCH   1  13
ATOM      9  C   UNL     1       2.623   6.792  18.200  0.00  0.00    +0.000 C 
ATOM     10  C   UNL     1       2.084   8.114  18.674  0.00  0.00    +0.000 A 
ATOM     11  C   UNL     1       2.105   9.206  17.804  0.00  0.00    +0.000 A 
ATOM     12  C   UNL     1       1.572  10.441  18.186  0.00  0.00    +0.000 A 
ATOM     13  C   UNL     1       1.007  10.646  19.452  0.00  0.00    +0.000 A 
ATOM     14  C   UNL     1       1.013   9.544  20.330  0.00  0.00    +0.000 A 
ATOM     15  C   UNL     1       1.537   8.284  19.958  0.00  0.00    +0.000 A 
ATOM     16  C   UNL     1       1.485   7.138  20.932  0.00  0.00    +0.000 C 
ENDBRANCH   1  13
BRANCH   3  17
ATOM     17  C   UNL     1      -3.133  12.777  20.558  0.00  0.00    +0.000 C 
ATOM     18  O   UNL     1      -3.516  12.398  21.655  0.00  0.00    +0.000 OA
ATOM     19  N   UNL     1      -3.968  13.060  19.495  0.00  0.00    +0.000 N 
ATOM     20  H   UNL     1      -3.561  13.155  18.572  0.00  0.00    +0.000 HD
BRANCH  19  21
ATOM     21  C   UNL     1      -5.394  12.891  19.648  0.00  0.00    +0.000 C 
BRANCH  21  22
ATOM     22  C   UNL     1      -6.009  12.372  18.391  0.00  0.00    +0.000 C 
ATOM     23  C   UNL     1      -5.530  11.093  17.751  0.00  0.00    +0.000 C 
ATOM     24  C   UNL     1      -6.868  11.130  18.433  0.00  0.00    +0.000 C 
ENDBRANCH  21  22
ENDBRANCH  19  21
ENDBRANCH   3  17
BRANCH   6  25
ATOM     25  C   UNL     1       1.110  15.519  20.322  0.00  0.00    +0.000 C 
BRANCH  25  26
ATOM     26  C   UNL     1       1.325  16.273  19.026  0.00  0.00    +0.000 A 
ATOM     27  C   UNL     1       0.367  17.194  18.569  0.00  0.00    +0.000 A 
ATOM     28  C   UNL     1       0.606  17.973  17.435  0.00  0.00    +0.000 A 
ATOM     29  C   UNL     1       1.804  17.843  16.739  0.00  0.00    +0.000 A 
ATOM     30  C   UNL     1       2.752  16.916  17.160  0.00  0.00    +0.000 A 
ATOM     31  C   UNL     1       2.513  16.127  18.290  0.00  0.00    +0.000 A 
ENDBRANCH  25  26
ENDBRANCH   6  25
TORSDOF 6
ENDMDL
MODEL 9
REMARK VINA RESULT:      -7.0      1.419      2.449
REMARK  Name = 
REMARK  8 active torsions:
REMARK  status: ('A' for Active; 'I' for Inactive)
REMARK    1  A    between atoms: C_1  and  C_2
REMARK    2  A    between atoms: C_5  and  N_6
REMARK    3  A    between atoms: C_8  and  C_9
REMARK    4  A    between atoms: N_11  and  C_12
REMARK    5  A    between atoms: C_12  and  C_13
REMARK    6  A    between atoms: N_18  and  C_19
REMARK    7  A    between atoms: C_19  and  C_20
REMARK    8  A    between atoms: C_29  and  C_30
REMARK                            x       y       z     vdW  Elec       q    Type
REMARK                         _______ _______ _______ _____ _____    ______ ____
ROOT
ATOM      1  N   UNL     1       0.474  10.032  19.486  0.00  0.00    +0.000 N 
ATOM      2  N   UNL     1      -0.538  10.189  18.551  0.00  0.00    +0.000 NA
ATOM      3  C   UNL     1      -1.381  11.168  18.695  0.00  0.00    +0.000 A 
ATOM      4  C   UNL     1      -1.239  12.183  19.795  0.00  0.00    +0.000 A 
ATOM      5  O   UNL     1      -2.018  13.126  19.839  0.00  0.00    +0.000 OA
ATOM      6  N   UNL     1      -0.220  11.958  20.691  0.00  0.00    +0.000 N 
ATOM      7  C   UNL     1       0.587  10.828  20.648  0.00  0.00    +0.000 A 
ATOM      8  O   UNL     1       1.316  10.568  21.607  0.00  0.00    +0.000 OA
ENDROOT
BRANCH   1  13
ATOM      9  C   UNL     1       3.966   5.597  18.109  0.00  0.00    +0.000 C 
ATOM     10  C   UNL     1       3.089   6.747  18.524  0.00  0.00    +0.000 A 
ATOM     11  C   UNL     1       3.041   7.887  17.719  0.00  0.00    +0.000 A 
ATOM     12  C   UNL     1       2.205   8.960  18.041  0.00  0.00    +0.000 A 
ATOM     13  C   UNL     1       1.391   8.952  19.182  0.00  0.00    +0.000 A 
ATOM     14  C   UNL     1       1.466   7.806  19.999  0.00  0.00    +0.000 A 
ATOM     15  C   UNL     1       2.297   6.706  19.684  0.00  0.00    +0.000 A 
ATOM     16  C   UNL     1       2.307   5.499  20.583  0.00  0.00    +0.000 C 
ENDBRANCH   1  13
BRANCH   3  17
ATOM     17  C   UNL     1      -2.536  11.251  17.704  0.00  0.00    +0.000 C 
ATOM     18  O   UNL     1      -2.306  11.279  16.503  0.00  0.00    +0.000 OA
ATOM     19  N   UNL     1      -3.798  11.337  18.258  0.00  0.00    +0.000 N 
ATOM     20  H   UNL     1      -3.879  11.523  19.251  0.00  0.00    +0.000 HD
BRANCH  19  21
ATOM     21  C   UNL     1      -4.945  11.487  17.394  0.00  0.00    +0.000 C 
BRANCH  21  22
ATOM     22  C   UNL     1      -6.201  11.090  18.097  0.00  0.00    +0.000 C 
ATOM     23  C   UNL     1      -6.460  11.485  19.529  0.00  0.00    +0.000 C 
ATOM     24  C   UNL     1      -7.241  12.134  18.423  0.00  0.00    +0.000 C 
ENDBRANCH  21  22
ENDBRANCH  19  21
ENDBRANCH   3  17
BRANCH   6  25
ATOM     25  C   UNL     1      -0.101  12.857  21.834  0.00  0.00    +0.000 C 
BRANCH  25  26
ATOM     26  C   UNL     1       0.710  14.108  21.566  0.00  0.00    +0.000 A 
ATOM     27  C   UNL     1       1.982  14.021  20.977  0.00  0.00    +0.000 A 
ATOM     28  C   UNL     1       2.690  15.172  20.625  0.00  0.00    +0.000 A 
ATOM     29  C   UNL     1       2.139  16.429  20.860  0.00  0.00    +0.000 A 
ATOM     30  C   UNL     1       0.892  16.534  21.470  0.00  0.00    +0.000 A 
ATOM     31  C   UNL     1       0.185  15.384  21.831  0.00  0.00    +0.000 A 
ENDBRANCH  25  26
ENDBRANCH   6  25
TORSDOF 6
ENDMDL
