MODEL 1
REMARK VINA RESULT:      -8.5      0.000      0.000
REMARK  Name = 
REMARK  3 active torsions:
REMARK  status: ('A' for Active; 'I' for Inactive)
REMARK    1  A    between atoms: C_1  and  C_2
REMARK    2  A    between atoms: C_9  and  C_10
REMARK    3  A    between atoms: N_18  and  C_19
REMARK                            x       y       z     vdW  Elec       q    Type
REMARK                         _______ _______ _______ _____ _____    ______ ____
ROOT
ATOM      1  C   UNL     1       3.639   6.985  17.569  0.00  0.00    +0.000 C 
ATOM      2  O   UNL     1       4.250   7.612  16.699  0.00  0.00    +0.000 OA
ATOM      3  N   UNL     1       3.808   5.608  17.747  0.00  0.00    +0.000 N 
ATOM      4  C   UNL     1       4.636   4.892  16.777  0.00  0.00    +0.000 C 
ATOM      5  C   UNL     1       4.259   3.413  16.677  0.00  0.00    +0.000 C 
ATOM      6  C   UNL     1       4.242   2.734  18.051  0.00  0.00    +0.000 C 
ATOM      7  C   UNL     1       3.306   3.481  19.004  0.00  0.00    +0.000 C 
ATOM      8  C   UNL     1       3.281   2.907  20.417  0.00  0.00    +0.000 C 
ATOM      9  N   UNL     1       1.884   2.913  20.729  0.00  0.00    +0.000 N 
ATOM     10  C   UNL     1       1.356   2.403  21.967  0.00  0.00    +0.000 C 
ATOM     11  C   UNL     1       1.138   2.982  19.578  0.00  0.00    +0.000 C 
ATOM     12  O   UNL     1      -0.054   2.740  19.476  0.00  0.00    +0.000 OA
ATOM     13  O   UNL     1       1.955   3.294  18.530  0.00  0.00    +0.000 OA
ATOM     14  C   UNL     1       3.690   4.971  19.062  0.00  0.00    +0.000 C 
ENDROOT
BRANCH   1  23
ATOM     15  C   UNL     1      -0.210   8.900  22.649  0.00  0.00    +0.000 C 
ATOM     16  C   UNL     1      -0.033   9.460  21.267  0.00  0.00    +0.000 A 
ATOM     17  C   UNL     1      -0.824  10.555  20.869  0.00  0.00    +0.000 A 
ATOM     18  C   UNL     1      -0.699  11.113  19.597  0.00  0.00    +0.000 A 
ATOM     19  C   UNL     1       0.234  10.598  18.705  0.00  0.00    +0.000 A 
ATOM     20  C   UNL     1       1.034   9.523  19.091  0.00  0.00    +0.000 A 
ATOM     21  C   UNL     1       2.057   8.999  18.154  0.00  0.00    +0.000 A 
ATOM     22  O   UNL     1       2.320   9.625  17.134  0.00  0.00    +0.000 OA
ATOM     23  C   UNL     1       2.727   7.712  18.487  0.00  0.00    +0.000 A 
ATOM     24  C   UNL     1       2.512   7.232  19.724  0.00  0.00    +0.000 A 
ATOM     25  N   UNL     1       1.674   7.785  20.659  0.00  0.00    +0.000 N 
ATOM     26  C   UNL     1       0.908   8.927  20.366  0.00  0.00    +0.000 A 
ATOM     27  H   UNL     1       1.691   7.425  21.605  0.00  0.00    +0.000 HD
ENDBRANCH   1  23
TORSDOF 1
ENDMDL
MODEL 2
REMARK VINA RESULT:      -8.3      2.311      3.893
REMARK  Name = 
REMARK  3 active torsions:
REMARK  status: ('A' for Active; 'I' for Inactive)
REMARK    1  A    between atoms: C_1  and  C_2
REMARK    2  A    between atoms: C_9  and  C_10
REMARK    3  A    between atoms: N_18  and  C_19
REMARK                            x       y       z     vdW  Elec       q    Type
REMARK                         _______ _______ _______ _____ _____    ______ ____
ROOT
ATOM      1  C   UNL     1       2.289   5.027  17.788  0.00  0.00    +0.000 C 
ATOM      2  O   UNL     1       1.304   4.377  17.424  0.00  0.00    +0.000 OA
ATOM      3  N   UNL     1       3.581   4.720  17.353  0.00  0.00    +0.000 N 
ATOM      4  C   UNL     1       3.761   3.509  16.552  0.00  0.00    +0.000 C 
ATOM      5  C   UNL     1       5.178   2.946  16.669  0.00  0.00    +0.000 C 
ATOM      6  C   UNL     1       6.242   4.009  16.375  0.00  0.00    +0.000 C 
ATOM      7  C   UNL     1       6.051   5.221  17.289  0.00  0.00    +0.000 C 
ATOM      8  C   UNL     1       7.031   6.358  17.016  0.00  0.00    +0.000 C 
ATOM      9  N   UNL     1       7.423   6.753  18.335  0.00  0.00    +0.000 N 
ATOM     10  C   UNL     1       8.397   7.781  18.588  0.00  0.00    +0.000 C 
ATOM     11  C   UNL     1       7.157   5.748  19.233  0.00  0.00    +0.000 C 
ATOM     12  O   UNL     1       7.604   5.655  20.365  0.00  0.00    +0.000 OA
ATOM     13  O   UNL     1       6.363   4.810  18.637  0.00  0.00    +0.000 OA
ATOM     14  C   UNL     1       4.609   5.749  17.173  0.00  0.00    +0.000 C 
ENDROOT
BRANCH   1  23
ATOM     15  C   UNL     1       1.297   9.096  22.960  0.00  0.00    +0.000 C 
ATOM     16  C   UNL     1       1.321   9.353  21.481  0.00  0.00    +0.000 A 
ATOM     17  C   UNL     1       1.042  10.650  21.010  0.00  0.00    +0.000 A 
ATOM     18  C   UNL     1       1.052  10.942  19.646  0.00  0.00    +0.000 A 
ATOM     19  C   UNL     1       1.362   9.947  18.728  0.00  0.00    +0.000 A 
ATOM     20  C   UNL     1       1.657   8.661  19.182  0.00  0.00    +0.000 A 
ATOM     21  C   UNL     1       2.027   7.608  18.206  0.00  0.00    +0.000 A 
ATOM     22  O   UNL     1       2.255   7.916  17.042  0.00  0.00    +0.000 OA
ATOM     23  C   UNL     1       2.100   6.199  18.680  0.00  0.00    +0.000 A 
ATOM     24  C   UNL     1       2.039   6.015  20.010  0.00  0.00    +0.000 A 
ATOM     25  N   UNL     1       1.838   7.001  20.942  0.00  0.00    +0.000 N 
ATOM     26  C   UNL     1       1.629   8.337  20.556  0.00  0.00    +0.000 A 
ATOM     27  H   UNL     1       1.948   6.776  21.924  0.00  0.00    +0.000 HD
ENDBRANCH   1  23
TORSDOF 1
ENDMDL
MODEL 3
REMARK VINA RESULT:      -7.8      5.056      9.864
REMARK  Name = 
REMARK  3 active torsions:
REMARK  status: ('A' for Active; 'I' for Inactive)
REMARK    1  A    between atoms: C_1  and  C_2
REMARK    2  A    between atoms: C_9  and  C_10
REMARK    3  A    between atoms: N_18  and  C_19
REMARK                            x       y       z     vdW  Elec       q    Type
REMARK                         _______ _______ _______ _____ _____    ______ ____
ROOT
ATOM      1  C   UNL     1      -1.245  13.886  20.140  0.00  0.00    +0.000 C 
ATOM      2  O   UNL     1      -2.457  13.830  20.369  0.00  0.00    +0.000 OA
ATOM      3  N   UNL     1      -0.558  15.103  20.081  0.00  0.00    +0.000 N 
ATOM      4  C   UNL     1      -1.343  16.334  20.162  0.00  0.00    +0.000 C 
ATOM      5  C   UNL     1      -0.642  17.512  19.484  0.00  0.00    +0.000 C 
ATOM      6  C   UNL     1       0.792  17.693  19.992  0.00  0.00    +0.000 C 
ATOM      7  C   UNL     1       1.589  16.399  19.816  0.00  0.00    +0.000 C 
ATOM      8  C   UNL     1       3.012  16.473  20.360  0.00  0.00    +0.000 C 
ATOM      9  N   UNL     1       3.772  15.838  19.326  0.00  0.00    +0.000 N 
ATOM     10  C   UNL     1       5.205  15.715  19.370  0.00  0.00    +0.000 C 
ATOM     11  C   UNL     1       3.064  15.830  18.149  0.00  0.00    +0.000 C 
ATOM     12  O   UNL     1       3.516  15.614  17.036  0.00  0.00    +0.000 OA
ATOM     13  O   UNL     1       1.768  16.181  18.400  0.00  0.00    +0.000 OA
ATOM     14  C   UNL     1       0.845  15.226  20.484  0.00  0.00    +0.000 C 
ENDROOT
BRANCH   1  23
ATOM     15  C   UNL     1       1.992   8.597  17.725  0.00  0.00    +0.000 C 
ATOM     16  C   UNL     1       1.538   8.938  19.116  0.00  0.00    +0.000 A 
ATOM     17  C   UNL     1       1.747   8.004  20.149  0.00  0.00    +0.000 A 
ATOM     18  C   UNL     1       1.345   8.272  21.458  0.00  0.00    +0.000 A 
ATOM     19  C   UNL     1       0.746   9.488  21.762  0.00  0.00    +0.000 A 
ATOM     20  C   UNL     1       0.548  10.429  20.751  0.00  0.00    +0.000 A 
ATOM     21  C   UNL     1      -0.055  11.742  21.082  0.00  0.00    +0.000 A 
ATOM     22  O   UNL     1      -0.199  12.062  22.256  0.00  0.00    +0.000 OA
ATOM     23  C   UNL     1      -0.478  12.628  19.963  0.00  0.00    +0.000 A 
ATOM     24  C   UNL     1      -0.078  12.264  18.733  0.00  0.00    +0.000 A 
ATOM     25  N   UNL     1       0.608  11.117  18.425  0.00  0.00    +0.000 N 
ATOM     26  C   UNL     1       0.924  10.169  19.414  0.00  0.00    +0.000 A 
ATOM     27  H   UNL     1       0.982  11.006  17.490  0.00  0.00    +0.000 HD
ENDBRANCH   1  23
TORSDOF 1
ENDMDL
MODEL 4
REMARK VINA RESULT:      -7.8      6.643      9.955
REMARK  Name = 
REMARK  3 active torsions:
REMARK  status: ('A' for Active; 'I' for Inactive)
REMARK    1  A    between atoms: C_1  and  C_2
REMARK    2  A    between atoms: C_9  and  C_10
REMARK    3  A    between atoms: N_18  and  C_19
REMARK                            x       y       z     vdW  Elec       q    Type
REMARK                         _______ _______ _______ _____ _____    ______ ____
ROOT
ATOM      1  C   UNL     1       0.954  12.656  20.745  0.00  0.00    +0.000 C 
ATOM      2  O   UNL     1       1.450  11.783  21.464  0.00  0.00    +0.000 OA
ATOM      3  N   UNL     1       1.529  13.924  20.615  0.00  0.00    +0.000 N 
ATOM      4  C   UNL     1       2.673  14.245  21.468  0.00  0.00    +0.000 C 
ATOM      5  C   UNL     1       2.810  15.748  21.709  0.00  0.00    +0.000 C 
ATOM      6  C   UNL     1       2.815  16.539  20.397  0.00  0.00    +0.000 C 
ATOM      7  C   UNL     1       1.563  16.222  19.577  0.00  0.00    +0.000 C 
ATOM      8  C   UNL     1       1.521  16.919  18.221  0.00  0.00    +0.000 C 
ATOM      9  N   UNL     1       0.166  17.377  18.149  0.00  0.00    +0.000 N 
ATOM     10  C   UNL     1      -0.341  18.151  17.048  0.00  0.00    +0.000 C 
ATOM     11  C   UNL     1      -0.390  17.422  19.405  0.00  0.00    +0.000 C 
ATOM     12  O   UNL     1      -1.413  18.008  19.721  0.00  0.00    +0.000 OA
ATOM     13  O   UNL     1       0.426  16.765  20.282  0.00  0.00    +0.000 OA
ATOM     14  C   UNL     1       1.435  14.700  19.375  0.00  0.00    +0.000 C 
ENDROOT
BRANCH   1  23
ATOM     15  C   UNL     1      -5.244  12.235  18.359  0.00  0.00    +0.000 C 
ATOM     16  C   UNL     1      -3.992  11.480  18.017  0.00  0.00    +0.000 A 
ATOM     17  C   UNL     1      -4.060  10.441  17.070  0.00  0.00    +0.000 A 
ATOM     18  C   UNL     1      -2.926   9.708  16.717  0.00  0.00    +0.000 A 
ATOM     19  C   UNL     1      -1.698  10.016  17.290  0.00  0.00    +0.000 A 
ATOM     20  C   UNL     1      -1.614  11.054  18.218  0.00  0.00    +0.000 A 
ATOM     21  C   UNL     1      -0.297  11.409  18.800  0.00  0.00    +0.000 A 
ATOM     22  O   UNL     1       0.723  10.923  18.328  0.00  0.00    +0.000 OA
ATOM     23  C   UNL     1      -0.265  12.346  19.956  0.00  0.00    +0.000 A 
ATOM     24  C   UNL     1      -1.418  12.972  20.247  0.00  0.00    +0.000 A 
ATOM     25  N   UNL     1      -2.620  12.759  19.621  0.00  0.00    +0.000 N 
ATOM     26  C   UNL     1      -2.753  11.792  18.609  0.00  0.00    +0.000 A 
ATOM     27  H   UNL     1      -3.394  13.382  19.821  0.00  0.00    +0.000 HD
ENDBRANCH   1  23
TORSDOF 1
ENDMDL
MODEL 5
REMARK VINA RESULT:      -7.7      6.249     10.726
REMARK  Name = 
REMARK  3 active torsions:
REMARK  status: ('A' for Active; 'I' for Inactive)
REMARK    1  A    between atoms: C_1  and  C_2
REMARK    2  A    between atoms: C_9  and  C_10
REMARK    3  A    between atoms: N_18  and  C_19
REMARK                            x       y       z     vdW  Elec       q    Type
REMARK                         _______ _______ _______ _____ _____    ______ ____
ROOT
ATOM      1  C   UNL     1      -1.125  14.941  23.298  0.00  0.00    +0.000 C 
ATOM      2  O   UNL     1      -0.169  15.627  23.671  0.00  0.00    +0.000 OA
ATOM      3  N   UNL     1      -2.449  15.353  23.482  0.00  0.00    +0.000 N 
ATOM      4  C   UNL     1      -2.682  16.569  24.260  0.00  0.00    +0.000 C 
ATOM      5  C   UNL     1      -4.064  16.579  24.914  0.00  0.00    +0.000 C 
ATOM      6  C   UNL     1      -5.179  16.307  23.899  0.00  0.00    +0.000 C 
ATOM      7  C   UNL     1      -4.924  14.989  23.166  0.00  0.00    +0.000 C 
ATOM      8  C   UNL     1      -5.955  14.674  22.088  0.00  0.00    +0.000 C 
ATOM      9  N   UNL     1      -6.215  13.283  22.304  0.00  0.00    +0.000 N 
ATOM     10  C   UNL     1      -7.182  12.539  21.541  0.00  0.00    +0.000 C 
ATOM     11  C   UNL     1      -5.831  12.916  23.570  0.00  0.00    +0.000 C 
ATOM     12  O   UNL     1      -6.153  11.894  24.155  0.00  0.00    +0.000 OA
ATOM     13  O   UNL     1      -5.081  13.917  24.121  0.00  0.00    +0.000 OA
ATOM     14  C   UNL     1      -3.515  14.995  22.543  0.00  0.00    +0.000 C 
ENDROOT
BRANCH   1  23
ATOM     15  C   UNL     1      -0.419   8.540  21.619  0.00  0.00    +0.000 C 
ATOM     16  C   UNL     1      -0.032   9.805  20.908  0.00  0.00    +0.000 A 
ATOM     17  C   UNL     1       0.657   9.715  19.683  0.00  0.00    +0.000 A 
ATOM     18  C   UNL     1       1.039  10.859  18.982  0.00  0.00    +0.000 A 
ATOM     19  C   UNL     1       0.721  12.115  19.483  0.00  0.00    +0.000 A 
ATOM     20  C   UNL     1       0.024  12.219  20.688  0.00  0.00    +0.000 A 
ATOM     21  C   UNL     1      -0.351  13.557  21.203  0.00  0.00    +0.000 A 
ATOM     22  O   UNL     1      -0.216  14.541  20.485  0.00  0.00    +0.000 OA
ATOM     23  C   UNL     1      -0.873  13.658  22.593  0.00  0.00    +0.000 A 
ATOM     24  C   UNL     1      -1.172  12.499  23.203  0.00  0.00    +0.000 A 
ATOM     25  N   UNL     1      -0.963  11.247  22.680  0.00  0.00    +0.000 N 
ATOM     26  C   UNL     1      -0.351  11.074  21.426  0.00  0.00    +0.000 A 
ATOM     27  H   UNL     1      -1.351  10.445  23.161  0.00  0.00    +0.000 HD
ENDBRANCH   1  23
TORSDOF 1
ENDMDL
MODEL 6
REMARK VINA RESULT:      -7.6      6.660     10.603
REMARK  Name = 
REMARK  3 active torsions:
REMARK  status: ('A' for Active; 'I' for Inactive)
REMARK    1  A    between atoms: C_1  and  C_2
REMARK    2  A    between atoms: C_9  and  C_10
REMARK    3  A    between atoms: N_18  and  C_19
REMARK                            x       y       z     vdW  Elec       q    Type
REMARK                         _______ _______ _______ _____ _____    ______ ____
ROOT
ATOM      1  C   UNL     1      -3.753  13.249  23.489  0.00  0.00    +0.000 C 
ATOM      2  O   UNL     1      -3.429  13.538  24.645  0.00  0.00    +0.000 OA
ATOM      3  N   UNL     1      -5.092  13.186  23.088  0.00  0.00    +0.000 N 
ATOM      4  C   UNL     1      -6.119  13.339  24.118  0.00  0.00    +0.000 C 
ATOM      5  C   UNL     1      -7.431  12.655  23.730  0.00  0.00    +0.000 C 
ATOM      6  C   UNL     1      -7.916  13.094  22.344  0.00  0.00    +0.000 C 
ATOM      7  C   UNL     1      -6.831  12.846  21.295  0.00  0.00    +0.000 C 
ATOM      8  C   UNL     1      -7.209  13.317  19.895  0.00  0.00    +0.000 C 
ATOM      9  N   UNL     1      -6.770  12.231  19.072  0.00  0.00    +0.000 N 
ATOM     10  C   UNL     1      -6.964  12.199  17.647  0.00  0.00    +0.000 C 
ATOM     11  C   UNL     1      -6.623  11.091  19.825  0.00  0.00    +0.000 C 
ATOM     12  O   UNL     1      -6.526   9.952  19.398  0.00  0.00    +0.000 OA
ATOM     13  O   UNL     1      -6.678  11.417  21.151  0.00  0.00    +0.000 OA
ATOM     14  C   UNL     1      -5.515  13.520  21.726  0.00  0.00    +0.000 C 
ENDROOT
BRANCH   1  23
ATOM     15  C   UNL     1       0.388  13.559  18.288  0.00  0.00    +0.000 C 
ATOM     16  C   UNL     1       0.120  12.468  19.285  0.00  0.00    +0.000 A 
ATOM     17  C   UNL     1       0.781  11.233  19.137  0.00  0.00    +0.000 A 
ATOM     18  C   UNL     1       0.568  10.187  20.036  0.00  0.00    +0.000 A 
ATOM     19  C   UNL     1      -0.295  10.364  21.110  0.00  0.00    +0.000 A 
ATOM     20  C   UNL     1      -0.944  11.587  21.277  0.00  0.00    +0.000 A 
ATOM     21  C   UNL     1      -1.833  11.789  22.446  0.00  0.00    +0.000 A 
ATOM     22  O   UNL     1      -1.845  10.960  23.348  0.00  0.00    +0.000 OA
ATOM     23  C   UNL     1      -2.697  13.002  22.475  0.00  0.00    +0.000 A 
ATOM     24  C   UNL     1      -2.443  13.936  21.543  0.00  0.00    +0.000 A 
ATOM     25  N   UNL     1      -1.520  13.824  20.534  0.00  0.00    +0.000 N 
ATOM     26  C   UNL     1      -0.762  12.652  20.367  0.00  0.00    +0.000 A 
ATOM     27  H   UNL     1      -1.310  14.639  19.971  0.00  0.00    +0.000 HD
ENDBRANCH   1  23
TORSDOF 1
ENDMDL
MODEL 7
REMARK VINA RESULT:      -7.6      8.698     10.718
REMARK  Name = 
REMARK  3 active torsions:
REMARK  status: ('A' for Active; 'I' for Inactive)
REMARK    1  A    between atoms: C_1  and  C_2
REMARK    2  A    between atoms: C_9  and  C_10
REMARK    3  A    between atoms: N_18  and  C_19
REMARK                            x       y       z     vdW  Elec       q    Type
REMARK                         _______ _______ _______ _____ _____    ______ ____
ROOT
ATOM      1  C   UNL     1       8.134  17.156  18.471  0.00  0.00    +0.000 C 
ATOM      2  O   UNL     1       8.213  18.333  18.106  0.00  0.00    +0.000 OA
ATOM      3  N   UNL     1       9.266  16.407  18.807  0.00  0.00    +0.000 N 
ATOM      4  C   UNL     1      10.577  17.015  18.582  0.00  0.00    +0.000 C 
ATOM      5  C   UNL     1      11.671  15.967  18.375  0.00  0.00    +0.000 C 
ATOM      6  C   UNL     1      11.689  14.929  19.502  0.00  0.00    +0.000 C 
ATOM      7  C   UNL     1      10.314  14.273  19.646  0.00  0.00    +0.000 C 
ATOM      8  C   UNL     1      10.227  13.272  20.793  0.00  0.00    +0.000 C 
ATOM      9  N   UNL     1       9.514  12.181  20.199  0.00  0.00    +0.000 N 
ATOM     10  C   UNL     1       9.232  10.956  20.899  0.00  0.00    +0.000 C 
ATOM     11  C   UNL     1       9.590  12.251  18.830  0.00  0.00    +0.000 C 
ATOM     12  O   UNL     1       9.328  11.352  18.046  0.00  0.00    +0.000 OA
ATOM     13  O   UNL     1      10.083  13.472  18.467  0.00  0.00    +0.000 OA
ATOM     14  C   UNL     1       9.230  15.352  19.824  0.00  0.00    +0.000 C 
ENDROOT
BRANCH   1  23
ATOM     15  C   UNL     1       2.845  13.134  18.102  0.00  0.00    +0.000 C 
ATOM     16  C   UNL     1       2.997  14.534  18.623  0.00  0.00    +0.000 A 
ATOM     17  C   UNL     1       1.856  15.216  19.088  0.00  0.00    +0.000 A 
ATOM     18  C   UNL     1       1.943  16.517  19.582  0.00  0.00    +0.000 A 
ATOM     19  C   UNL     1       3.176  17.154  19.640  0.00  0.00    +0.000 A 
ATOM     20  C   UNL     1       4.317  16.485  19.198  0.00  0.00    +0.000 A 
ATOM     21  C   UNL     1       5.639  17.148  19.297  0.00  0.00    +0.000 A 
ATOM     22  O   UNL     1       5.747  18.191  19.931  0.00  0.00    +0.000 OA
ATOM     23  C   UNL     1       6.798  16.522  18.603  0.00  0.00    +0.000 A 
ATOM     24  C   UNL     1       6.605  15.282  18.123  0.00  0.00    +0.000 A 
ATOM     25  N   UNL     1       5.419  14.593  18.151  0.00  0.00    +0.000 N 
ATOM     26  C   UNL     1       4.250  15.176  18.671  0.00  0.00    +0.000 A 
ATOM     27  H   UNL     1       5.414  13.614  17.888  0.00  0.00    +0.000 HD
ENDBRANCH   1  23
TORSDOF 1
ENDMDL
MODEL 8
REMARK VINA RESULT:      -7.6      6.624     11.056
REMARK  Name = 
REMARK  3 active torsions:
REMARK  status: ('A' for Active; 'I' for Inactive)
REMARK    1  A    between atoms: C_1  and  C_2
REMARK    2  A    between atoms: C_9  and  C_10
REMARK    3  A    between atoms: N_18  and  C_19
REMARK                            x       y       z     vdW  Elec       q    Type
REMARK                         _______ _______ _______ _____ _____    ______ ____
ROOT
ATOM      1  C   UNL     1      -2.246  15.176  23.104  0.00  0.00    +0.000 C 
ATOM      2  O   UNL     1      -1.395  16.013  23.421  0.00  0.00    +0.000 OA
ATOM      3  N   UNL     1      -3.616  15.434  23.210  0.00  0.00    +0.000 N 
ATOM      4  C   UNL     1      -4.026  16.687  23.843  0.00  0.00    +0.000 C 
ATOM      5  C   UNL     1      -5.422  16.593  24.459  0.00  0.00    +0.000 C 
ATOM      6  C   UNL     1      -6.457  16.075  23.455  0.00  0.00    +0.000 C 
ATOM      7  C   UNL     1      -6.013  14.728  22.878  0.00  0.00    +0.000 C 
ATOM      8  C   UNL     1      -6.957  14.172  21.817  0.00  0.00    +0.000 C 
ATOM      9  N   UNL     1      -7.051  12.790  22.180  0.00  0.00    +0.000 N 
ATOM     10  C   UNL     1      -7.890  11.853  21.482  0.00  0.00    +0.000 C 
ATOM     11  C   UNL     1      -6.672  12.613  23.488  0.00  0.00    +0.000 C 
ATOM     12  O   UNL     1      -6.888  11.627  24.175  0.00  0.00    +0.000 OA
ATOM     13  O   UNL     1      -6.073  13.753  23.942  0.00  0.00    +0.000 OA
ATOM     14  C   UNL     1      -4.594  14.846  22.292  0.00  0.00    +0.000 C 
ENDROOT
BRANCH   1  23
ATOM     15  C   UNL     1      -0.364   8.852  22.234  0.00  0.00    +0.000 C 
ATOM     16  C   UNL     1      -0.367  10.028  21.300  0.00  0.00    +0.000 A 
ATOM     17  C   UNL     1       0.154   9.868  20.002  0.00  0.00    +0.000 A 
ATOM     18  C   UNL     1       0.175  10.929  19.096  0.00  0.00    +0.000 A 
ATOM     19  C   UNL     1      -0.345  12.163  19.464  0.00  0.00    +0.000 A 
ATOM     20  C   UNL     1      -0.879  12.331  20.741  0.00  0.00    +0.000 A 
ATOM     21  C   UNL     1      -1.470  13.636  21.121  0.00  0.00    +0.000 A 
ATOM     22  O   UNL     1      -1.656  14.489  20.262  0.00  0.00    +0.000 OA
ATOM     23  C   UNL     1      -1.811  13.868  22.552  0.00  0.00    +0.000 A 
ATOM     24  C   UNL     1      -1.761  12.794  23.357  0.00  0.00    +0.000 A 
ATOM     25  N   UNL     1      -1.350  11.539  22.986  0.00  0.00    +0.000 N 
ATOM     26  C   UNL     1      -0.888  11.278  21.684  0.00  0.00    +0.000 A 
ATOM     27  H   UNL     1      -1.482  10.769  23.632  0.00  0.00    +0.000 HD
ENDBRANCH   1  23
TORSDOF 1
ENDMDL
MODEL 9
REMARK VINA RESULT:      -7.6      7.059     10.953
REMARK  Name = 
REMARK  3 active torsions:
REMARK  status: ('A' for Active; 'I' for Inactive)
REMARK    1  A    between atoms: C_1  and  C_2
REMARK    2  A    between atoms: C_9  and  C_10
REMARK    3  A    between atoms: N_18  and  C_19
REMARK                            x       y       z     vdW  Elec       q    Type
REMARK                         _______ _______ _______ _____ _____    ______ ____
ROOT
ATOM      1  C   UNL     1      -4.032  14.835  23.004  0.00  0.00    +0.000 C 
ATOM      2  O   UNL     1      -3.721  15.745  23.779  0.00  0.00    +0.000 OA
ATOM      3  N   UNL     1      -5.279  14.793  22.373  0.00  0.00    +0.000 N 
ATOM      4  C   UNL     1      -6.274  15.792  22.762  0.00  0.00    +0.000 C 
ATOM      5  C   UNL     1      -7.704  15.306  22.525  0.00  0.00    +0.000 C 
ATOM      6  C   UNL     1      -7.906  14.801  21.092  0.00  0.00    +0.000 C 
ATOM      7  C   UNL     1      -6.887  13.708  20.763  0.00  0.00    +0.000 C 
ATOM      8  C   UNL     1      -6.976  13.196  19.329  0.00  0.00    +0.000 C 
ATOM      9  N   UNL     1      -6.862  11.779  19.498  0.00  0.00    +0.000 N 
ATOM     10  C   UNL     1      -6.944  10.850  18.402  0.00  0.00    +0.000 C 
ATOM     11  C   UNL     1      -7.162  11.427  20.791  0.00  0.00    +0.000 C 
ATOM     12  O   UNL     1      -7.418  10.303  21.193  0.00  0.00    +0.000 OA
ATOM     13  O   UNL     1      -7.208  12.552  21.565  0.00  0.00    +0.000 OA
ATOM     14  C   UNL     1      -5.460  14.216  21.039  0.00  0.00    +0.000 C 
ENDROOT
BRANCH   1  23
ATOM     15  C   UNL     1      -0.267   9.348  22.959  0.00  0.00    +0.000 C 
ATOM     16  C   UNL     1      -0.169  10.630  22.182  0.00  0.00    +0.000 A 
ATOM     17  C   UNL     1       0.914  10.811  21.301  0.00  0.00    +0.000 A 
ATOM     18  C   UNL     1       1.051  11.982  20.556  0.00  0.00    +0.000 A 
ATOM     19  C   UNL     1       0.096  12.986  20.663  0.00  0.00    +0.000 A 
ATOM     20  C   UNL     1      -0.991  12.812  21.520  0.00  0.00    +0.000 A 
ATOM     21  C   UNL     1      -2.031  13.865  21.605  0.00  0.00    +0.000 A 
ATOM     22  O   UNL     1      -2.030  14.783  20.793  0.00  0.00    +0.000 OA
ATOM     23  C   UNL     1      -3.043  13.773  22.693  0.00  0.00    +0.000 A 
ATOM     24  C   UNL     1      -3.070  12.621  23.384  0.00  0.00    +0.000 A 
ATOM     25  N   UNL     1      -2.200  11.573  23.220  0.00  0.00    +0.000 N 
ATOM     26  C   UNL     1      -1.137  11.645  22.303  0.00  0.00    +0.000 A 
ATOM     27  H   UNL     1      -2.392  10.698  23.693  0.00  0.00    +0.000 HD
ENDBRANCH   1  23
TORSDOF 1
ENDMDL
