MODEL 1
REMARK VINA RESULT:      -8.6      0.000      0.000
REMARK  Name = 
REMARK  6 active torsions:
REMARK  status: ('A' for Active; 'I' for Inactive)
REMARK    1  A    between atoms: C_5  and  C_6
REMARK    2  A    between atoms: C_6  and  C_7
REMARK    3  A    between atoms: C_6  and  SE_13
REMARK    4  A    between atoms: C_7  and  N_8
REMARK    5  A    between atoms: SE_13  and  C_14
REMARK    6  A    between atoms: C_14  and  C_15
REMARK                            x       y       z     vdW  Elec       q    Type
REMARK                         _______ _______ _______ _____ _____    ______ ____
ROOT
ATOM      1  C   UNL     1       5.152   4.290  16.414  0.00  0.00    +0.000 C 
ENDROOT
BRANCH   1   6
ATOM      2  F   UNL     1       8.703   8.036  18.886  0.00  0.00    +0.000 F 
ATOM      3  C   UNL     1       7.867   7.144  18.298  0.00  0.00    +0.000 A 
ATOM      4  C   UNL     1       7.972   5.788  18.596  0.00  0.00    +0.000 A 
ATOM      5  C   UNL     1       7.117   4.864  17.991  0.00  0.00    +0.000 A 
ATOM      6  C   UNL     1       6.118   5.280  17.085  0.00  0.00    +0.000 A 
ATOM      7  C   UNL     1       6.024   6.667  16.798  0.00  0.00    +0.000 A 
ATOM      8  F   UNL     1       5.085   7.147  15.945  0.00  0.00    +0.000 F 
ATOM      9  C   UNL     1       6.896   7.582  17.398  0.00  0.00    +0.000 A 
ENDBRANCH   1   6
BRANCH   1  10
ATOM     10  C   UNL     1       5.963   3.306  15.533  0.00  0.00    +0.000 C 
BRANCH  10  11
ATOM     11  N   UNL     1       6.474   3.933  14.312  0.00  0.00    +0.000 N 
ATOM     12  C   UNL     1       6.169   3.585  13.046  0.00  0.00    +0.000 A 
ATOM     13  C   UNL     1       6.877   4.405  12.198  0.00  0.00    +0.000 A 
ATOM     14  N   UNL     1       7.622   5.262  12.928  0.00  0.00    +0.000 NA
ATOM     15  C   UNL     1       7.356   4.947  14.213  0.00  0.00    +0.000 A 
ENDBRANCH  10  11
ENDBRANCH   1  10
BRANCH   1  16
ATOM     16 SE   UNL     1       4.068   3.183  17.656  0.00  0.00    +0.000 Se
BRANCH  16  17
ATOM     17  C   UNL     1       2.290   4.005  17.428  0.00  0.00    +0.000 C 
BRANCH  17  18
ATOM     18  C   UNL     1       2.148   5.109  18.450  0.00  0.00    +0.000 A 
ATOM     19  C   UNL     1       1.691   4.817  19.749  0.00  0.00    +0.000 A 
ATOM     20  C   UNL     1       1.530   5.838  20.693  0.00  0.00    +0.000 A 
ATOM     21  C   UNL     1       1.835   7.159  20.354  0.00  0.00    +0.000 A 
ATOM     22 CL   UNL     1       1.621   8.439  21.536  0.00  0.00    +0.000 Cl
ATOM     23  C   UNL     1       2.304   7.459  19.071  0.00  0.00    +0.000 A 
ATOM     24  C   UNL     1       2.459   6.441  18.123  0.00  0.00    +0.000 A 
ENDBRANCH  17  18
ENDBRANCH  16  17
ENDBRANCH   1  16
TORSDOF 6
ENDMDL
MODEL 2
REMARK VINA RESULT:      -8.1      3.970      7.077
REMARK  Name = 
REMARK  6 active torsions:
REMARK  status: ('A' for Active; 'I' for Inactive)
REMARK    1  A    between atoms: C_5  and  C_6
REMARK    2  A    between atoms: C_6  and  C_7
REMARK    3  A    between atoms: C_6  and  SE_13
REMARK    4  A    between atoms: C_7  and  N_8
REMARK    5  A    between atoms: SE_13  and  C_14
REMARK    6  A    between atoms: C_14  and  C_15
REMARK                            x       y       z     vdW  Elec       q    Type
REMARK                         _______ _______ _______ _____ _____    ______ ____
ROOT
ATOM      1  C   UNL     1       3.449   5.839  18.751  0.00  0.00    +0.000 C 
ENDROOT
BRANCH   1   6
ATOM      2  F   UNL     1       0.310   1.055  18.699  0.00  0.00    +0.000 F 
ATOM      3  C   UNL     1       1.048   2.192  18.711  0.00  0.00    +0.000 A 
ATOM      4  C   UNL     1       0.829   3.155  19.694  0.00  0.00    +0.000 A 
ATOM      5  C   UNL     1       1.582   4.331  19.710  0.00  0.00    +0.000 A 
ATOM      6  C   UNL     1       2.593   4.563  18.751  0.00  0.00    +0.000 A 
ATOM      7  C   UNL     1       2.804   3.567  17.762  0.00  0.00    +0.000 A 
ATOM      8  F   UNL     1       3.761   3.712  16.811  0.00  0.00    +0.000 F 
ATOM      9  C   UNL     1       2.032   2.400  17.746  0.00  0.00    +0.000 A 
ENDBRANCH   1   6
BRANCH   1  10
ATOM     10  C   UNL     1       2.832   6.866  19.735  0.00  0.00    +0.000 C 
BRANCH  10  11
ATOM     11  N   UNL     1       2.273   8.035  19.052  0.00  0.00    +0.000 N 
ATOM     12  C   UNL     1       1.394   8.917  19.566  0.00  0.00    +0.000 A 
ATOM     13  C   UNL     1       1.108   9.847  18.593  0.00  0.00    +0.000 A 
ATOM     14  N   UNL     1       1.804   9.550  17.476  0.00  0.00    +0.000 NA
ATOM     15  C   UNL     1       2.504   8.438  17.786  0.00  0.00    +0.000 A 
ENDBRANCH  10  11
ENDBRANCH   1  10
BRANCH   1  16
ATOM     16 SE   UNL     1       5.343   5.595  19.296  0.00  0.00    +0.000 Se
BRANCH  16  17
ATOM     17  C   UNL     1       6.269   6.604  17.878  0.00  0.00    +0.000 C 
BRANCH  17  18
ATOM     18  C   UNL     1       6.179   5.805  16.597  0.00  0.00    +0.000 A 
ATOM     19  C   UNL     1       6.965   4.649  16.428  0.00  0.00    +0.000 A 
ATOM     20  C   UNL     1       6.909   3.920  15.234  0.00  0.00    +0.000 A 
ATOM     21  C   UNL     1       6.059   4.329  14.203  0.00  0.00    +0.000 A 
ATOM     22 CL   UNL     1       5.999   3.419  12.703  0.00  0.00    +0.000 Cl
ATOM     23  C   UNL     1       5.263   5.468  14.366  0.00  0.00    +0.000 A 
ATOM     24  C   UNL     1       5.323   6.203  15.556  0.00  0.00    +0.000 A 
ENDBRANCH  17  18
ENDBRANCH  16  17
ENDBRANCH   1  16
TORSDOF 6
ENDMDL
MODEL 3
REMARK VINA RESULT:      -8.0      3.833      6.092
REMARK  Name = 
REMARK  6 active torsions:
REMARK  status: ('A' for Active; 'I' for Inactive)
REMARK    1  A    between atoms: C_5  and  C_6
REMARK    2  A    between atoms: C_6  and  C_7
REMARK    3  A    between atoms: C_6  and  SE_13
REMARK    4  A    between atoms: C_7  and  N_8
REMARK    5  A    between atoms: SE_13  and  C_14
REMARK    6  A    between atoms: C_14  and  C_15
REMARK                            x       y       z     vdW  Elec       q    Type
REMARK                         _______ _______ _______ _____ _____    ______ ____
ROOT
ATOM      1  C   UNL     1       3.024   6.563  19.240  0.00  0.00    +0.000 C 
ENDROOT
BRANCH   1   6
ATOM      2  F   UNL     1       0.282   1.563  18.759  0.00  0.00    +0.000 F 
ATOM      3  C   UNL     1       0.937   2.746  18.868  0.00  0.00    +0.000 A 
ATOM      4  C   UNL     1       1.275   3.464  17.724  0.00  0.00    +0.000 A 
ATOM      5  C   UNL     1       1.953   4.681  17.830  0.00  0.00    +0.000 A 
ATOM      6  C   UNL     1       2.292   5.220  19.090  0.00  0.00    +0.000 A 
ATOM      7  C   UNL     1       1.933   4.475  20.244  0.00  0.00    +0.000 A 
ATOM      8  F   UNL     1       2.217   4.930  21.490  0.00  0.00    +0.000 F 
ATOM      9  C   UNL     1       1.268   3.250  20.126  0.00  0.00    +0.000 A 
ENDBRANCH   1   6
BRANCH   1  10
ATOM     10  C   UNL     1       3.909   6.803  17.990  0.00  0.00    +0.000 C 
BRANCH  10  11
ATOM     11  N   UNL     1       5.172   6.064  18.044  0.00  0.00    +0.000 N 
ATOM     12  C   UNL     1       6.070   5.942  17.047  0.00  0.00    +0.000 A 
ATOM     13  C   UNL     1       7.102   5.151  17.499  0.00  0.00    +0.000 A 
ATOM     14  N   UNL     1       6.851   4.779  18.772  0.00  0.00    +0.000 NA
ATOM     15  C   UNL     1       5.666   5.351  19.076  0.00  0.00    +0.000 A 
ENDBRANCH  10  11
ENDBRANCH   1  10
BRANCH   1  16
ATOM     16 SE   UNL     1       1.853   8.156  19.424  0.00  0.00    +0.000 Se
BRANCH  16  17
ATOM     17  C   UNL     1       1.439   8.091  21.351  0.00  0.00    +0.000 C 
BRANCH  17  18
ATOM     18  C   UNL     1       0.655   9.334  21.705  0.00  0.00    +0.000 A 
ATOM     19  C   UNL     1       0.850  10.525  20.981  0.00  0.00    +0.000 A 
ATOM     20  C   UNL     1       0.149  11.688  21.321  0.00  0.00    +0.000 A 
ATOM     21  C   UNL     1      -0.764  11.670  22.379  0.00  0.00    +0.000 A 
ATOM     22 CL   UNL     1      -1.634  13.132  22.811  0.00  0.00    +0.000 Cl
ATOM     23  C   UNL     1      -0.977  10.488  23.096  0.00  0.00    +0.000 A 
ATOM     24  C   UNL     1      -0.272   9.326  22.763  0.00  0.00    +0.000 A 
ENDBRANCH  17  18
ENDBRANCH  16  17
ENDBRANCH   1  16
TORSDOF 6
ENDMDL
MODEL 4
REMARK VINA RESULT:      -7.9      3.893      5.966
REMARK  Name = 
REMARK  6 active torsions:
REMARK  status: ('A' for Active; 'I' for Inactive)
REMARK    1  A    between atoms: C_5  and  C_6
REMARK    2  A    between atoms: C_6  and  C_7
REMARK    3  A    between atoms: C_6  and  SE_13
REMARK    4  A    between atoms: C_7  and  N_8
REMARK    5  A    between atoms: SE_13  and  C_14
REMARK    6  A    between atoms: C_14  and  C_15
REMARK                            x       y       z     vdW  Elec       q    Type
REMARK                         _______ _______ _______ _____ _____    ______ ____
ROOT
ATOM      1  C   UNL     1       3.222   6.726  18.721  0.00  0.00    +0.000 C 
ENDROOT
BRANCH   1   6
ATOM      2  F   UNL     1       0.304   1.810  18.974  0.00  0.00    +0.000 F 
ATOM      3  C   UNL     1       1.001   2.971  18.911  0.00  0.00    +0.000 A 
ATOM      4  C   UNL     1       1.536   3.399  17.698  0.00  0.00    +0.000 A 
ATOM      5  C   UNL     1       2.259   4.592  17.627  0.00  0.00    +0.000 A 
ATOM      6  C   UNL     1       2.445   5.401  18.770  0.00  0.00    +0.000 A 
ATOM      7  C   UNL     1       1.887   4.950  19.995  0.00  0.00    +0.000 A 
ATOM      8  F   UNL     1       2.017   5.674  21.135  0.00  0.00    +0.000 F 
ATOM      9  C   UNL     1       1.179   3.745  20.058  0.00  0.00    +0.000 A 
ENDBRANCH   1   6
BRANCH   1  10
ATOM     10  C   UNL     1       4.261   6.665  17.573  0.00  0.00    +0.000 C 
BRANCH  10  11
ATOM     11  N   UNL     1       5.472   5.931  17.946  0.00  0.00    +0.000 N 
ATOM     12  C   UNL     1       6.424   5.479  17.107  0.00  0.00    +0.000 A 
ATOM     13  C   UNL     1       7.374   4.824  17.856  0.00  0.00    +0.000 A 
ATOM     14  N   UNL     1       7.020   4.865  19.158  0.00  0.00    +0.000 NA
ATOM     15  C   UNL     1       5.854   5.546  19.180  0.00  0.00    +0.000 A 
ENDBRANCH  10  11
ENDBRANCH   1  10
BRANCH   1  16
ATOM     16 SE   UNL     1       2.121   8.348  18.409  0.00  0.00    +0.000 Se
BRANCH  16  17
ATOM     17  C   UNL     1       1.278   8.570  20.177  0.00  0.00    +0.000 C 
BRANCH  17  18
ATOM     18  C   UNL     1       0.562   9.902  20.193  0.00  0.00    +0.000 A 
ATOM     19  C   UNL     1      -0.647  10.064  19.492  0.00  0.00    +0.000 A 
ATOM     20  C   UNL     1      -1.302  11.301  19.478  0.00  0.00    +0.000 A 
ATOM     21  C   UNL     1      -0.761  12.386  20.174  0.00  0.00    +0.000 A 
ATOM     22 CL   UNL     1      -1.578  13.940  20.147  0.00  0.00    +0.000 Cl
ATOM     23  C   UNL     1       0.432  12.232  20.887  0.00  0.00    +0.000 A 
ATOM     24  C   UNL     1       1.093  10.998  20.896  0.00  0.00    +0.000 A 
ENDBRANCH  17  18
ENDBRANCH  16  17
ENDBRANCH   1  16
TORSDOF 6
ENDMDL
MODEL 5
REMARK VINA RESULT:      -7.9      4.092      7.156
REMARK  Name = 
REMARK  6 active torsions:
REMARK  status: ('A' for Active; 'I' for Inactive)
REMARK    1  A    between atoms: C_5  and  C_6
REMARK    2  A    between atoms: C_6  and  C_7
REMARK    3  A    between atoms: C_6  and  SE_13
REMARK    4  A    between atoms: C_7  and  N_8
REMARK    5  A    between atoms: SE_13  and  C_14
REMARK    6  A    between atoms: C_14  and  C_15
REMARK                            x       y       z     vdW  Elec       q    Type
REMARK                         _______ _______ _______ _____ _____    ______ ____
ROOT
ATOM      1  C   UNL     1       3.430   5.885  18.801  0.00  0.00    +0.000 C 
ENDROOT
BRANCH   1   6
ATOM      2  F   UNL     1       0.281   1.109  18.693  0.00  0.00    +0.000 F 
ATOM      3  C   UNL     1       1.021   2.244  18.719  0.00  0.00    +0.000 A 
ATOM      4  C   UNL     1       0.823   3.183  19.729  0.00  0.00    +0.000 A 
ATOM      5  C   UNL     1       1.580   4.357  19.760  0.00  0.00    +0.000 A 
ATOM      6  C   UNL     1       2.571   4.611  18.787  0.00  0.00    +0.000 A 
ATOM      7  C   UNL     1       2.760   3.640  17.769  0.00  0.00    +0.000 A 
ATOM      8  F   UNL     1       3.698   3.807  16.804  0.00  0.00    +0.000 F 
ATOM      9  C   UNL     1       1.986   2.475  17.740  0.00  0.00    +0.000 A 
ENDBRANCH   1   6
BRANCH   1  10
ATOM     10  C   UNL     1       2.846   6.880  19.837  0.00  0.00    +0.000 C 
BRANCH  10  11
ATOM     11  N   UNL     1       2.164   8.013  19.208  0.00  0.00    +0.000 N 
ATOM     12  C   UNL     1       2.304   8.422  17.932  0.00  0.00    +0.000 A 
ATOM     13  C   UNL     1       1.508   9.530  17.751  0.00  0.00    +0.000 A 
ATOM     14  N   UNL     1       0.872   9.814  18.907  0.00  0.00    +0.000 NA
ATOM     15  C   UNL     1       1.294   8.871  19.777  0.00  0.00    +0.000 A 
ENDBRANCH  10  11
ENDBRANCH   1  10
BRANCH   1  16
ATOM     16 SE   UNL     1       5.339   5.621  19.278  0.00  0.00    +0.000 Se
BRANCH  16  17
ATOM     17  C   UNL     1       6.222   6.675  17.865  0.00  0.00    +0.000 C 
BRANCH  17  18
ATOM     18  C   UNL     1       6.187   5.870  16.586  0.00  0.00    +0.000 A 
ATOM     19  C   UNL     1       5.319   6.240  15.541  0.00  0.00    +0.000 A 
ATOM     20  C   UNL     1       5.260   5.483  14.365  0.00  0.00    +0.000 A 
ATOM     21  C   UNL     1       6.074   4.357  14.215  0.00  0.00    +0.000 A 
ATOM     22 CL   UNL     1       5.990   3.404  12.743  0.00  0.00    +0.000 Cl
ATOM     23  C   UNL     1       6.951   3.990  15.241  0.00  0.00    +0.000 A 
ATOM     24  C   UNL     1       7.007   4.740  16.421  0.00  0.00    +0.000 A 
ENDBRANCH  17  18
ENDBRANCH  16  17
ENDBRANCH   1  16
TORSDOF 6
ENDMDL
MODEL 6
REMARK VINA RESULT:      -7.9      0.970      1.382
REMARK  Name = 
REMARK  6 active torsions:
REMARK  status: ('A' for Active; 'I' for Inactive)
REMARK    1  A    between atoms: C_5  and  C_6
REMARK    2  A    between atoms: C_6  and  C_7
REMARK    3  A    between atoms: C_6  and  SE_13
REMARK    4  A    between atoms: C_7  and  N_8
REMARK    5  A    between atoms: SE_13  and  C_14
REMARK    6  A    between atoms: C_14  and  C_15
REMARK                            x       y       z     vdW  Elec       q    Type
REMARK                         _______ _______ _______ _____ _____    ______ ____
ROOT
ATOM      1  C   UNL     1       5.226   4.508  16.398  0.00  0.00    +0.000 C 
ENDROOT
BRANCH   1   6
ATOM      2  F   UNL     1       8.631   8.495  18.688  0.00  0.00    +0.000 F 
ATOM      3  C   UNL     1       7.819   7.554  18.148  0.00  0.00    +0.000 A 
ATOM      4  C   UNL     1       6.762   7.934  17.324  0.00  0.00    +0.000 A 
ATOM      5  C   UNL     1       5.919   6.970  16.767  0.00  0.00    +0.000 A 
ATOM      6  C   UNL     1       6.126   5.594  17.007  0.00  0.00    +0.000 A 
ATOM      7  C   UNL     1       7.211   5.227  17.846  0.00  0.00    +0.000 A 
ATOM      8  F   UNL     1       7.481   3.926  18.118  0.00  0.00    +0.000 F 
ATOM      9  C   UNL     1       8.040   6.202  18.410  0.00  0.00    +0.000 A 
ENDBRANCH   1   6
BRANCH   1  10
ATOM     10  C   UNL     1       6.101   3.513  15.594  0.00  0.00    +0.000 C 
BRANCH  10  11
ATOM     11  N   UNL     1       6.564   4.071  14.322  0.00  0.00    +0.000 N 
ATOM     12  C   UNL     1       6.229   3.640  13.090  0.00  0.00    +0.000 A 
ATOM     13  C   UNL     1       6.897   4.417  12.172  0.00  0.00    +0.000 A 
ATOM     14  N   UNL     1       7.647   5.330  12.824  0.00  0.00    +0.000 NA
ATOM     15  C   UNL     1       7.424   5.092  14.135  0.00  0.00    +0.000 A 
ENDBRANCH  10  11
ENDBRANCH   1  10
BRANCH   1  16
ATOM     16 SE   UNL     1       4.189   3.429  17.704  0.00  0.00    +0.000 Se
BRANCH  16  17
ATOM     17  C   UNL     1       2.386   4.189  17.463  0.00  0.00    +0.000 C 
BRANCH  17  18
ATOM     18  C   UNL     1       2.201   5.293  18.480  0.00  0.00    +0.000 A 
ATOM     19  C   UNL     1       1.752   4.990  19.779  0.00  0.00    +0.000 A 
ATOM     20  C   UNL     1       1.551   6.009  20.718  0.00  0.00    +0.000 A 
ATOM     21  C   UNL     1       1.809   7.339  20.373  0.00  0.00    +0.000 A 
ATOM     22 CL   UNL     1       1.546   8.616  21.548  0.00  0.00    +0.000 Cl
ATOM     23  C   UNL     1       2.270   7.649  19.090  0.00  0.00    +0.000 A 
ATOM     24  C   UNL     1       2.464   6.633  18.147  0.00  0.00    +0.000 A 
ENDBRANCH  17  18
ENDBRANCH  16  17
ENDBRANCH   1  16
TORSDOF 6
ENDMDL
MODEL 7
REMARK VINA RESULT:      -7.9      3.884      6.036
REMARK  Name = 
REMARK  6 active torsions:
REMARK  status: ('A' for Active; 'I' for Inactive)
REMARK    1  A    between atoms: C_5  and  C_6
REMARK    2  A    between atoms: C_6  and  C_7
REMARK    3  A    between atoms: C_6  and  SE_13
REMARK    4  A    between atoms: C_7  and  N_8
REMARK    5  A    between atoms: SE_13  and  C_14
REMARK    6  A    between atoms: C_14  and  C_15
REMARK                            x       y       z     vdW  Elec       q    Type
REMARK                         _______ _______ _______ _____ _____    ______ ____
ROOT
ATOM      1  C   UNL     1       3.211   6.597  18.827  0.00  0.00    +0.000 C 
ENDROOT
BRANCH   1   6
ATOM      2  F   UNL     1       0.294   1.675  18.865  0.00  0.00    +0.000 F 
ATOM      3  C   UNL     1       0.991   2.838  18.852  0.00  0.00    +0.000 A 
ATOM      4  C   UNL     1       1.560   3.298  17.667  0.00  0.00    +0.000 A 
ATOM      5  C   UNL     1       2.282   4.493  17.649  0.00  0.00    +0.000 A 
ATOM      6  C   UNL     1       2.435   5.271  18.818  0.00  0.00    +0.000 A 
ATOM      7  C   UNL     1       1.843   4.787  20.014  0.00  0.00    +0.000 A 
ATOM      8  F   UNL     1       1.939   5.480  21.176  0.00  0.00    +0.000 F 
ATOM      9  C   UNL     1       1.135   3.581  20.024  0.00  0.00    +0.000 A 
ENDBRANCH   1   6
BRANCH   1  10
ATOM     10  C   UNL     1       4.280   6.570  17.704  0.00  0.00    +0.000 C 
BRANCH  10  11
ATOM     11  N   UNL     1       5.600   6.168  18.193  0.00  0.00    +0.000 N 
ATOM     12  C   UNL     1       6.789   6.624  17.752  0.00  0.00    +0.000 A 
ATOM     13  C   UNL     1       7.780   5.978  18.456  0.00  0.00    +0.000 A 
ATOM     14  N   UNL     1       7.215   5.123  19.334  0.00  0.00    +0.000 NA
ATOM     15  C   UNL     1       5.885   5.261  19.148  0.00  0.00    +0.000 A 
ENDBRANCH  10  11
ENDBRANCH   1  10
BRANCH   1  16
ATOM     16 SE   UNL     1       2.116   8.227  18.532  0.00  0.00    +0.000 Se
BRANCH  16  17
ATOM     17  C   UNL     1       1.405   8.529  20.346  0.00  0.00    +0.000 C 
BRANCH  17  18
ATOM     18  C   UNL     1       0.494   9.734  20.299  0.00  0.00    +0.000 A 
ATOM     19  C   UNL     1       0.509  10.674  21.348  0.00  0.00    +0.000 A 
ATOM     20  C   UNL     1      -0.352  11.777  21.326  0.00  0.00    +0.000 A 
ATOM     21  C   UNL     1      -1.226  11.962  20.252  0.00  0.00    +0.000 A 
ATOM     22 CL   UNL     1      -2.312  13.341  20.232  0.00  0.00    +0.000 Cl
ATOM     23  C   UNL     1      -1.239  11.044  19.197  0.00  0.00    +0.000 A 
ATOM     24  C   UNL     1      -0.385   9.935  19.220  0.00  0.00    +0.000 A 
ENDBRANCH  17  18
ENDBRANCH  16  17
ENDBRANCH   1  16
TORSDOF 6
ENDMDL
MODEL 8
REMARK VINA RESULT:      -7.8      3.701      5.885
REMARK  Name = 
REMARK  6 active torsions:
REMARK  status: ('A' for Active; 'I' for Inactive)
REMARK    1  A    between atoms: C_5  and  C_6
REMARK    2  A    between atoms: C_6  and  C_7
REMARK    3  A    between atoms: C_6  and  SE_13
REMARK    4  A    between atoms: C_7  and  N_8
REMARK    5  A    between atoms: SE_13  and  C_14
REMARK    6  A    between atoms: C_14  and  C_15
REMARK                            x       y       z     vdW  Elec       q    Type
REMARK                         _______ _______ _______ _____ _____    ______ ____
ROOT
ATOM      1  C   UNL     1       3.103   6.598  19.025  0.00  0.00    +0.000 C 
ENDROOT
BRANCH   1   6
ATOM      2  F   UNL     1       0.374   1.571  18.857  0.00  0.00    +0.000 F 
ATOM      3  C   UNL     1       1.025   2.759  18.892  0.00  0.00    +0.000 A 
ATOM      4  C   UNL     1       1.280   3.451  17.710  0.00  0.00    +0.000 A 
ATOM      5  C   UNL     1       1.953   4.674  17.738  0.00  0.00    +0.000 A 
ATOM      6  C   UNL     1       2.373   5.247  18.959  0.00  0.00    +0.000 A 
ATOM      7  C   UNL     1       2.099   4.529  20.152  0.00  0.00    +0.000 A 
ATOM      8  F   UNL     1       2.463   5.017  21.365  0.00  0.00    +0.000 F 
ATOM      9  C   UNL     1       1.438   3.297  20.111  0.00  0.00    +0.000 A 
ENDBRANCH   1   6
BRANCH   1  10
ATOM     10  C   UNL     1       3.911   6.804  17.719  0.00  0.00    +0.000 C 
BRANCH  10  11
ATOM     11  N   UNL     1       5.256   6.228  17.792  0.00  0.00    +0.000 N 
ATOM     12  C   UNL     1       5.785   5.563  18.838  0.00  0.00    +0.000 A 
ATOM     13  C   UNL     1       7.074   5.211  18.508  0.00  0.00    +0.000 A 
ATOM     14  N   UNL     1       7.351   5.652  17.263  0.00  0.00    +0.000 NA
ATOM     15  C   UNL     1       6.222   6.270  16.854  0.00  0.00    +0.000 A 
ENDBRANCH  10  11
ENDBRANCH   1  10
BRANCH   1  16
ATOM     16 SE   UNL     1       1.933   8.190  19.228  0.00  0.00    +0.000 Se
BRANCH  16  17
ATOM     17  C   UNL     1       1.214   7.892  21.040  0.00  0.00    +0.000 C 
BRANCH  17  18
ATOM     18  C   UNL     1       0.419   9.114  21.437  0.00  0.00    +0.000 A 
ATOM     19  C   UNL     1      -0.000   9.284  22.770  0.00  0.00    +0.000 A 
ATOM     20  C   UNL     1      -0.761  10.399  23.140  0.00  0.00    +0.000 A 
ATOM     21  C   UNL     1      -1.101  11.362  22.186  0.00  0.00    +0.000 A 
ATOM     22 CL   UNL     1      -2.065  12.755  22.650  0.00  0.00    +0.000 Cl
ATOM     23  C   UNL     1      -0.677  11.212  20.862  0.00  0.00    +0.000 A 
ATOM     24  C   UNL     1       0.077  10.094  20.487  0.00  0.00    +0.000 A 
ENDBRANCH  17  18
ENDBRANCH  16  17
ENDBRANCH   1  16
TORSDOF 6
ENDMDL
MODEL 9
REMARK VINA RESULT:      -7.8      4.299      7.100
REMARK  Name = 
REMARK  6 active torsions:
REMARK  status: ('A' for Active; 'I' for Inactive)
REMARK    1  A    between atoms: C_5  and  C_6
REMARK    2  A    between atoms: C_6  and  C_7
REMARK    3  A    between atoms: C_6  and  SE_13
REMARK    4  A    between atoms: C_7  and  N_8
REMARK    5  A    between atoms: SE_13  and  C_14
REMARK    6  A    between atoms: C_14  and  C_15
REMARK                            x       y       z     vdW  Elec       q    Type
REMARK                         _______ _______ _______ _____ _____    ______ ____
ROOT
ATOM      1  C   UNL     1       6.493   6.479  18.200  0.00  0.00    +0.000 C 
ENDROOT
BRANCH   1   6
ATOM      2  F   UNL     1       5.864   3.857  13.153  0.00  0.00    +0.000 F 
ATOM      3  C   UNL     1       6.013   4.485  14.345  0.00  0.00    +0.000 A 
ATOM      4  C   UNL     1       5.207   5.575  14.666  0.00  0.00    +0.000 A 
ATOM      5  C   UNL     1       5.359   6.228  15.892  0.00  0.00    +0.000 A 
ATOM      6  C   UNL     1       6.312   5.791  16.838  0.00  0.00    +0.000 A 
ATOM      7  C   UNL     1       7.120   4.676  16.493  0.00  0.00    +0.000 A 
ATOM      8  F   UNL     1       8.052   4.191  17.352  0.00  0.00    +0.000 F 
ATOM      9  C   UNL     1       6.970   4.039  15.257  0.00  0.00    +0.000 A 
ENDBRANCH   1   6
BRANCH   1  10
ATOM     10  C   UNL     1       6.339   5.425  19.326  0.00  0.00    +0.000 C 
BRANCH  10  11
ATOM     11  N   UNL     1       4.995   4.846  19.376  0.00  0.00    +0.000 N 
ATOM     12  C   UNL     1       4.680   3.543  19.241  0.00  0.00    +0.000 A 
ATOM     13  C   UNL     1       3.312   3.425  19.326  0.00  0.00    +0.000 A 
ATOM     14  N   UNL     1       2.771   4.647  19.513  0.00  0.00    +0.000 NA
ATOM     15  C   UNL     1       3.824   5.493  19.538  0.00  0.00    +0.000 A 
ENDBRANCH  10  11
ENDBRANCH   1  10
BRANCH   1  16
ATOM     16 SE   UNL     1       8.249   7.362  18.482  0.00  0.00    +0.000 Se
BRANCH  16  17
ATOM     17  C   UNL     1       7.844   9.193  17.874  0.00  0.00    +0.000 C 
BRANCH  17  18
ATOM     18  C   UNL     1       8.937  10.108  18.377  0.00  0.00    +0.000 A 
ATOM     19  C   UNL     1       9.749  10.810  17.466  0.00  0.00    +0.000 A 
ATOM     20  C   UNL     1      10.781  11.637  17.923  0.00  0.00    +0.000 A 
ATOM     21  C   UNL     1      11.007  11.782  19.295  0.00  0.00    +0.000 A 
ATOM     22 CL   UNL     1      12.310  12.811  19.866  0.00  0.00    +0.000 Cl
ATOM     23  C   UNL     1      10.197  11.101  20.210  0.00  0.00    +0.000 A 
ATOM     24  C   UNL     1       9.169  10.267  19.755  0.00  0.00    +0.000 A 
ENDBRANCH  17  18
ENDBRANCH  16  17
ENDBRANCH   1  16
TORSDOF 6
ENDMDL
