MODEL 1
REMARK VINA RESULT:      -7.4      0.000      0.000
REMARK  Name = 
REMARK  9 active torsions:
REMARK  status: ('A' for Active; 'I' for Inactive)
REMARK    1  A    between atoms: C_2  and  C_3
REMARK    2  A    between atoms: N_5  and  C_6
REMARK    3  A    between atoms: C_9  and  S_10
REMARK    4  A    between atoms: S_10  and  N_13
REMARK    5  A    between atoms: C_16  and  C_17
REMARK    6  A    between atoms: C_17  and  N_18
REMARK    7  A    between atoms: C_19  and  O_21
REMARK    8  A    between atoms: O_21  and  C_22
REMARK    9  A    between atoms: C_22  and  C_23
REMARK                            x       y       z     vdW  Elec       q    Type
REMARK                         _______ _______ _______ _____ _____    ______ ____
ROOT
ATOM      1  N   UNL     1       1.357   8.990  19.031  0.00  0.00    +0.000 NA
ATOM      2  C   UNL     1       2.066   8.584  17.788  0.00  0.00    +0.000 C 
ATOM      3  C   UNL     1       2.034   7.071  17.587  0.00  0.00    +0.000 C 
ATOM      4  C   UNL     1       2.542   6.300  18.811  0.00  0.00    +0.000 C 
ATOM      5  C   UNL     1       1.702   6.728  20.019  0.00  0.00    +0.000 C 
ATOM      6  C   UNL     1       1.724   8.236  20.256  0.00  0.00    +0.000 C 
ENDROOT
BRANCH   1   7
ATOM      7  S   UNL     1       1.288  10.698  19.267  0.00  0.00    +0.000 S 
ATOM      8  O   UNL     1       2.175  11.319  18.306  0.00  0.00    +0.000 OA
ATOM      9  O   UNL     1       1.388  10.980  20.683  0.00  0.00    +0.000 OA
BRANCH   7  13
ATOM     10  C   UNL     1      -3.069  11.509  18.120  0.00  0.00    +0.000 A 
ATOM     11  C   UNL     1      -2.403  10.361  17.680  0.00  0.00    +0.000 A 
ATOM     12  C   UNL     1      -1.068  10.136  18.017  0.00  0.00    +0.000 A 
ATOM     13  C   UNL     1      -0.386  11.066  18.798  0.00  0.00    +0.000 A 
ATOM     14  C   UNL     1      -1.029  12.219  19.250  0.00  0.00    +0.000 A 
ATOM     15  C   UNL     1      -2.367  12.443  18.898  0.00  0.00    +0.000 A 
BRANCH  10  18
ATOM     16  C   UNL     1      -5.458  11.864  18.716  0.00  0.00    +0.000 C 
ATOM     17  O   UNL     1      -5.369  11.815  19.937  0.00  0.00    +0.000 OA
ATOM     18  N   UNL     1      -4.420  11.781  17.807  0.00  0.00    +0.000 N 
ATOM     19  H   UNL     1      -4.624  11.985  16.838  0.00  0.00    +0.000 HD
BRANCH  16  21
ATOM     20  C   UNL     1      -6.901  12.970  17.079  0.00  0.00    +0.000 C 
ATOM     21  C   UNL     1      -6.783  12.069  18.064  0.00  0.00    +0.000 C 
ENDBRANCH  16  21
ENDBRANCH  10  18
ENDBRANCH   7  13
ENDBRANCH   1   7
BRANCH   4  22
ATOM     22  C   UNL     1       4.045   6.493  19.077  0.00  0.00    +0.000 C 
BRANCH  22  23
ATOM     23  N   UNL     1       4.672   5.305  19.617  0.00  0.00    +0.000 N 
ATOM     24  C   UNL     1       5.071   4.260  18.835  0.00  0.00    +0.000 C 
ATOM     25  O   UNL     1       5.059   4.258  17.613  0.00  0.00    +0.000 OA
ATOM     26  H   UNL     1       4.670   5.131  20.612  0.00  0.00    +0.000 HD
BRANCH  24  27
ATOM     27  O   UNL     1       5.399   3.212  19.626  0.00  0.00    +0.000 OA
BRANCH  27  28
ATOM     28  C   UNL     1       4.537   2.072  19.519  0.00  0.00    +0.000 C 
BRANCH  28  29
ATOM     29  C   UNL     1       3.095   2.426  19.774  0.00  0.00    +0.000 A 
ATOM     30  C   UNL     1       2.667   2.812  21.053  0.00  0.00    +0.000 A 
ATOM     31  C   UNL     1       1.342   3.196  21.271  0.00  0.00    +0.000 A 
ATOM     32  C   UNL     1       0.432   3.191  20.217  0.00  0.00    +0.000 A 
ATOM     33  C   UNL     1       0.841   2.794  18.945  0.00  0.00    +0.000 A 
ATOM     34  C   UNL     1       2.166   2.409  18.726  0.00  0.00    +0.000 A 
ENDBRANCH  28  29
ENDBRANCH  27  28
ENDBRANCH  24  27
ENDBRANCH  22  23
ENDBRANCH   4  22
TORSDOF 9
ENDMDL
MODEL 2
REMARK VINA RESULT:      -7.3      2.945      4.188
REMARK  Name = 
REMARK  9 active torsions:
REMARK  status: ('A' for Active; 'I' for Inactive)
REMARK    1  A    between atoms: C_2  and  C_3
REMARK    2  A    between atoms: N_5  and  C_6
REMARK    3  A    between atoms: C_9  and  S_10
REMARK    4  A    between atoms: S_10  and  N_13
REMARK    5  A    between atoms: C_16  and  C_17
REMARK    6  A    between atoms: C_17  and  N_18
REMARK    7  A    between atoms: C_19  and  O_21
REMARK    8  A    between atoms: O_21  and  C_22
REMARK    9  A    between atoms: C_22  and  C_23
REMARK                            x       y       z     vdW  Elec       q    Type
REMARK                         _______ _______ _______ _____ _____    ______ ____
ROOT
ATOM      1  N   UNL     1       4.420   6.462  18.736  0.00  0.00    +0.000 NA
ATOM      2  C   UNL     1       5.203   5.394  19.413  0.00  0.00    +0.000 C 
ATOM      3  C   UNL     1       6.706   5.630  19.291  0.00  0.00    +0.000 C 
ATOM      4  C   UNL     1       7.157   5.835  17.839  0.00  0.00    +0.000 C 
ATOM      5  C   UNL     1       6.352   7.001  17.257  0.00  0.00    +0.000 C 
ATOM      6  C   UNL     1       4.842   6.789  17.352  0.00  0.00    +0.000 C 
ENDROOT
BRANCH   1   7
ATOM      7  S   UNL     1       2.712   6.293  18.914  0.00  0.00    +0.000 S 
ATOM      8  O   UNL     1       2.455   5.668  20.195  0.00  0.00    +0.000 OA
ATOM      9  O   UNL     1       2.163   5.757  17.688  0.00  0.00    +0.000 OA
BRANCH   7  13
ATOM     10  C   UNL     1       1.259  10.633  19.021  0.00  0.00    +0.000 A 
ATOM     11  C   UNL     1       1.891  10.106  17.891  0.00  0.00    +0.000 A 
ATOM     12  C   UNL     1       2.350   8.787  17.878  0.00  0.00    +0.000 A 
ATOM     13  C   UNL     1       2.183   7.986  19.005  0.00  0.00    +0.000 A 
ATOM     14  C   UNL     1       1.555   8.490  20.145  0.00  0.00    +0.000 A 
ATOM     15  C   UNL     1       1.106   9.818  20.154  0.00  0.00    +0.000 A 
BRANCH  10  18
ATOM     16  C   UNL     1      -0.443  12.396  18.599  0.00  0.00    +0.000 C 
ATOM     17  O   UNL     1      -1.338  11.703  18.131  0.00  0.00    +0.000 OA
ATOM     18  N   UNL     1       0.776  11.960  19.082  0.00  0.00    +0.000 N 
ATOM     19  H   UNL     1       1.356  12.626  19.573  0.00  0.00    +0.000 HD
BRANCH  16  21
ATOM     20  C   UNL     1      -1.006  14.390  19.901  0.00  0.00    +0.000 C 
ATOM     21  C   UNL     1      -0.620  13.871  18.727  0.00  0.00    +0.000 C 
ENDBRANCH  16  21
ENDBRANCH  10  18
ENDBRANCH   7  13
ENDBRANCH   1   7
BRANCH   4  22
ATOM     22  C   UNL     1       7.023   4.572  16.972  0.00  0.00    +0.000 C 
BRANCH  22  23
ATOM     23  N   UNL     1       5.797   3.848  17.230  0.00  0.00    +0.000 N 
ATOM     24  C   UNL     1       4.817   3.698  16.290  0.00  0.00    +0.000 C 
ATOM     25  O   UNL     1       4.912   4.039  15.122  0.00  0.00    +0.000 OA
ATOM     26  H   UNL     1       5.544   3.584  18.171  0.00  0.00    +0.000 HD
BRANCH  24  27
ATOM     27  O   UNL     1       3.709   3.190  16.880  0.00  0.00    +0.000 OA
BRANCH  27  28
ATOM     28  C   UNL     1       3.953   2.213  17.900  0.00  0.00    +0.000 C 
BRANCH  28  29
ATOM     29  C   UNL     1       3.006   2.361  19.063  0.00  0.00    +0.000 A 
ATOM     30  C   UNL     1       3.485   2.376  20.381  0.00  0.00    +0.000 A 
ATOM     31  C   UNL     1       2.610   2.572  21.451  0.00  0.00    +0.000 A 
ATOM     32  C   UNL     1       1.248   2.747  21.216  0.00  0.00    +0.000 A 
ATOM     33  C   UNL     1       0.758   2.718  19.912  0.00  0.00    +0.000 A 
ATOM     34  C   UNL     1       1.632   2.521  18.840  0.00  0.00    +0.000 A 
ENDBRANCH  28  29
ENDBRANCH  27  28
ENDBRANCH  24  27
ENDBRANCH  22  23
ENDBRANCH   4  22
TORSDOF 9
ENDMDL
MODEL 3
REMARK VINA RESULT:      -7.3      5.012      8.296
REMARK  Name = 
REMARK  9 active torsions:
REMARK  status: ('A' for Active; 'I' for Inactive)
REMARK    1  A    between atoms: C_2  and  C_3
REMARK    2  A    between atoms: N_5  and  C_6
REMARK    3  A    between atoms: C_9  and  S_10
REMARK    4  A    between atoms: S_10  and  N_13
REMARK    5  A    between atoms: C_16  and  C_17
REMARK    6  A    between atoms: C_17  and  N_18
REMARK    7  A    between atoms: C_19  and  O_21
REMARK    8  A    between atoms: O_21  and  C_22
REMARK    9  A    between atoms: C_22  and  C_23
REMARK                            x       y       z     vdW  Elec       q    Type
REMARK                         _______ _______ _______ _____ _____    ______ ____
ROOT
ATOM      1  N   UNL     1       4.494   4.018  17.838  0.00  0.00    +0.000 NA
ATOM      2  C   UNL     1       4.511   4.579  16.460  0.00  0.00    +0.000 C 
ATOM      3  C   UNL     1       5.933   4.854  15.980  0.00  0.00    +0.000 C 
ATOM      4  C   UNL     1       6.732   5.723  16.960  0.00  0.00    +0.000 C 
ATOM      5  C   UNL     1       6.721   5.026  18.324  0.00  0.00    +0.000 C 
ATOM      6  C   UNL     1       5.311   4.747  18.840  0.00  0.00    +0.000 C 
ENDROOT
BRANCH   1   7
ATOM      7  S   UNL     1       2.916   3.607  18.403  0.00  0.00    +0.000 S 
ATOM      8  O   UNL     1       3.053   2.551  19.385  0.00  0.00    +0.000 OA
ATOM      9  O   UNL     1       2.030   3.472  17.266  0.00  0.00    +0.000 OA
BRANCH   7  13
ATOM     10  C   UNL     1       1.572   7.471  20.456  0.00  0.00    +0.000 A 
ATOM     11  C   UNL     1       2.191   7.491  19.202  0.00  0.00    +0.000 A 
ATOM     12  C   UNL     1       2.617   6.308  18.596  0.00  0.00    +0.000 A 
ATOM     13  C   UNL     1       2.429   5.092  19.247  0.00  0.00    +0.000 A 
ATOM     14  C   UNL     1       1.814   5.045  20.499  0.00  0.00    +0.000 A 
ATOM     15  C   UNL     1       1.398   6.239  21.106  0.00  0.00    +0.000 A 
BRANCH  10  18
ATOM     16  C   UNL     1       0.456   9.693  20.510  0.00  0.00    +0.000 C 
ATOM     17  O   UNL     1       0.063   9.748  19.351  0.00  0.00    +0.000 OA
ATOM     18  N   UNL     1       1.122   8.641  21.109  0.00  0.00    +0.000 N 
ATOM     19  H   UNL     1       1.255   8.675  22.111  0.00  0.00    +0.000 HD
BRANCH  16  21
ATOM     20  C   UNL     1      -1.048  11.289  21.595  0.00  0.00    +0.000 C 
ATOM     21  C   UNL     1       0.200  10.824  21.448  0.00  0.00    +0.000 C 
ENDBRANCH  16  21
ENDBRANCH  10  18
ENDBRANCH   7  13
ENDBRANCH   1   7
BRANCH   4  22
ATOM     22  C   UNL     1       6.210   7.167  17.064  0.00  0.00    +0.000 C 
BRANCH  22  23
ATOM     23  N   UNL     1       7.277   8.144  17.071  0.00  0.00    +0.000 N 
ATOM     24  C   UNL     1       8.201   8.221  18.074  0.00  0.00    +0.000 C 
ATOM     25  O   UNL     1       8.306   7.419  18.989  0.00  0.00    +0.000 OA
ATOM     26  H   UNL     1       7.267   8.922  16.426  0.00  0.00    +0.000 HD
BRANCH  24  27
ATOM     27  O   UNL     1       8.918   9.360  17.933  0.00  0.00    +0.000 OA
BRANCH  27  28
ATOM     28  C   UNL     1       9.192  10.065  19.151  0.00  0.00    +0.000 C 
BRANCH  28  29
ATOM     29  C   UNL     1      10.259  11.114  18.970  0.00  0.00    +0.000 A 
ATOM     30  C   UNL     1      10.609  11.568  17.690  0.00  0.00    +0.000 A 
ATOM     31  C   UNL     1      11.557  12.581  17.532  0.00  0.00    +0.000 A 
ATOM     32  C   UNL     1      12.168  13.145  18.649  0.00  0.00    +0.000 A 
ATOM     33  C   UNL     1      11.840  12.691  19.926  0.00  0.00    +0.000 A 
ATOM     34  C   UNL     1      10.893  11.677  20.085  0.00  0.00    +0.000 A 
ENDBRANCH  28  29
ENDBRANCH  27  28
ENDBRANCH  24  27
ENDBRANCH  22  23
ENDBRANCH   4  22
TORSDOF 9
ENDMDL
MODEL 4
REMARK VINA RESULT:      -7.3      4.304      7.222
REMARK  Name = 
REMARK  9 active torsions:
REMARK  status: ('A' for Active; 'I' for Inactive)
REMARK    1  A    between atoms: C_2  and  C_3
REMARK    2  A    between atoms: N_5  and  C_6
REMARK    3  A    between atoms: C_9  and  S_10
REMARK    4  A    between atoms: S_10  and  N_13
REMARK    5  A    between atoms: C_16  and  C_17
REMARK    6  A    between atoms: C_17  and  N_18
REMARK    7  A    between atoms: C_19  and  O_21
REMARK    8  A    between atoms: O_21  and  C_22
REMARK    9  A    between atoms: C_22  and  C_23
REMARK                            x       y       z     vdW  Elec       q    Type
REMARK                         _______ _______ _______ _____ _____    ______ ____
ROOT
ATOM      1  N   UNL     1       3.635   5.417  17.393  0.00  0.00    +0.000 NA
ATOM      2  C   UNL     1       4.330   6.706  17.131  0.00  0.00    +0.000 C 
ATOM      3  C   UNL     1       4.971   6.731  15.747  0.00  0.00    +0.000 C 
ATOM      4  C   UNL     1       5.888   5.528  15.496  0.00  0.00    +0.000 C 
ATOM      5  C   UNL     1       5.064   4.255  15.714  0.00  0.00    +0.000 C 
ATOM      6  C   UNL     1       4.418   4.192  17.097  0.00  0.00    +0.000 C 
ENDROOT
BRANCH   1   7
ATOM      7  S   UNL     1       2.818   5.362  18.913  0.00  0.00    +0.000 S 
ATOM      8  O   UNL     1       3.816   5.219  19.952  0.00  0.00    +0.000 OA
ATOM      9  O   UNL     1       1.696   4.454  18.810  0.00  0.00    +0.000 OA
BRANCH   7  13
ATOM     10  C   UNL     1       1.163   9.612  19.299  0.00  0.00    +0.000 A 
ATOM     11  C   UNL     1       1.262   8.768  20.409  0.00  0.00    +0.000 A 
ATOM     12  C   UNL     1       1.747   7.466  20.275  0.00  0.00    +0.000 A 
ATOM     13  C   UNL     1       2.134   6.998  19.021  0.00  0.00    +0.000 A 
ATOM     14  C   UNL     1       2.044   7.823  17.899  0.00  0.00    +0.000 A 
ATOM     15  C   UNL     1       1.546   9.125  18.040  0.00  0.00    +0.000 A 
BRANCH  10  18
ATOM     16  C   UNL     1       1.356  12.071  18.972  0.00  0.00    +0.000 C 
ATOM     17  O   UNL     1       2.430  12.111  18.384  0.00  0.00    +0.000 OA
ATOM     18  N   UNL     1       0.680  10.938  19.385  0.00  0.00    +0.000 N 
ATOM     19  H   UNL     1      -0.265  11.050  19.726  0.00  0.00    +0.000 HD
BRANCH  16  21
ATOM     20  C   UNL     1      -0.356  13.743  18.465  0.00  0.00    +0.000 C 
ATOM     21  C   UNL     1       0.620  13.329  19.284  0.00  0.00    +0.000 C 
ENDBRANCH  16  21
ENDBRANCH  10  18
ENDBRANCH   7  13
ENDBRANCH   1   7
BRANCH   4  22
ATOM     22  C   UNL     1       7.156   5.532  16.367  0.00  0.00    +0.000 C 
BRANCH  22  23
ATOM     23  N   UNL     1       7.607   6.869  16.686  0.00  0.00    +0.000 N 
ATOM     24  C   UNL     1       7.916   7.261  17.957  0.00  0.00    +0.000 C 
ATOM     25  O   UNL     1       7.966   6.516  18.924  0.00  0.00    +0.000 OA
ATOM     26  H   UNL     1       7.535   7.612  16.005  0.00  0.00    +0.000 HD
BRANCH  24  27
ATOM     27  O   UNL     1       8.076   8.604  17.983  0.00  0.00    +0.000 OA
BRANCH  27  28
ATOM     28  C   UNL     1       9.064   9.085  18.903  0.00  0.00    +0.000 C 
BRANCH  28  29
ATOM     29  C   UNL     1       9.066  10.589  18.997  0.00  0.00    +0.000 A 
ATOM     30  C   UNL     1       9.369  11.232  20.207  0.00  0.00    +0.000 A 
ATOM     31  C   UNL     1       9.426  12.625  20.273  0.00  0.00    +0.000 A 
ATOM     32  C   UNL     1       9.175  13.390  19.136  0.00  0.00    +0.000 A 
ATOM     33  C   UNL     1       8.858  12.763  17.933  0.00  0.00    +0.000 A 
ATOM     34  C   UNL     1       8.799  11.369  17.864  0.00  0.00    +0.000 A 
ENDBRANCH  28  29
ENDBRANCH  27  28
ENDBRANCH  24  27
ENDBRANCH  22  23
ENDBRANCH   4  22
TORSDOF 9
ENDMDL
MODEL 5
REMARK VINA RESULT:      -7.2      4.409      6.709
REMARK  Name = 
REMARK  9 active torsions:
REMARK  status: ('A' for Active; 'I' for Inactive)
REMARK    1  A    between atoms: C_2  and  C_3
REMARK    2  A    between atoms: N_5  and  C_6
REMARK    3  A    between atoms: C_9  and  S_10
REMARK    4  A    between atoms: S_10  and  N_13
REMARK    5  A    between atoms: C_16  and  C_17
REMARK    6  A    between atoms: C_17  and  N_18
REMARK    7  A    between atoms: C_19  and  O_21
REMARK    8  A    between atoms: O_21  and  C_22
REMARK    9  A    between atoms: C_22  and  C_23
REMARK                            x       y       z     vdW  Elec       q    Type
REMARK                         _______ _______ _______ _____ _____    ______ ____
ROOT
ATOM      1  N   UNL     1       4.458   6.126  18.871  0.00  0.00    +0.000 NA
ATOM      2  C   UNL     1       5.310   5.079  19.496  0.00  0.00    +0.000 C 
ATOM      3  C   UNL     1       6.792   5.434  19.417  0.00  0.00    +0.000 C 
ATOM      4  C   UNL     1       7.247   5.763  17.989  0.00  0.00    +0.000 C 
ATOM      5  C   UNL     1       6.364   6.899  17.464  0.00  0.00    +0.000 C 
ATOM      6  C   UNL     1       4.874   6.570  17.518  0.00  0.00    +0.000 C 
ENDROOT
BRANCH   1   7
ATOM      7  S   UNL     1       2.765   5.820  19.007  0.00  0.00    +0.000 S 
ATOM      8  O   UNL     1       2.521   5.219  20.301  0.00  0.00    +0.000 OA
ATOM      9  O   UNL     1       2.302   5.198  17.785  0.00  0.00    +0.000 OA
BRANCH   7  13
ATOM     10  C   UNL     1       1.140  10.097  19.154  0.00  0.00    +0.000 A 
ATOM     11  C   UNL     1       1.191   9.299  20.301  0.00  0.00    +0.000 A 
ATOM     12  C   UNL     1       1.667   7.988  20.239  0.00  0.00    +0.000 A 
ATOM     13  C   UNL     1       2.094   7.464  19.021  0.00  0.00    +0.000 A 
ATOM     14  C   UNL     1       2.054   8.242  17.863  0.00  0.00    +0.000 A 
ATOM     15  C   UNL     1       1.564   9.554  17.931  0.00  0.00    +0.000 A 
BRANCH  10  18
ATOM     16  C   UNL     1       1.393  12.544  18.790  0.00  0.00    +0.000 C 
ATOM     17  O   UNL     1       2.514  12.559  18.299  0.00  0.00    +0.000 OA
ATOM     18  N   UNL     1       0.668  11.429  19.166  0.00  0.00    +0.000 N 
ATOM     19  H   UNL     1      -0.302  11.559  19.419  0.00  0.00    +0.000 HD
BRANCH  16  21
ATOM     20  C   UNL     1       1.311  14.981  18.995  0.00  0.00    +0.000 C 
ATOM     21  C   UNL     1       0.647  13.817  19.006  0.00  0.00    +0.000 C 
ENDBRANCH  16  21
ENDBRANCH  10  18
ENDBRANCH   7  13
ENDBRANCH   1   7
BRANCH   4  22
ATOM     22  C   UNL     1       7.221   4.549  17.044  0.00  0.00    +0.000 C 
BRANCH  22  23
ATOM     23  N   UNL     1       7.819   4.833  15.757  0.00  0.00    +0.000 N 
ATOM     24  C   UNL     1       7.079   5.018  14.624  0.00  0.00    +0.000 C 
ATOM     25  O   UNL     1       5.860   5.085  14.590  0.00  0.00    +0.000 OA
ATOM     26  H   UNL     1       8.813   4.725  15.617  0.00  0.00    +0.000 HD
BRANCH  24  27
ATOM     27  O   UNL     1       7.903   5.031  13.551  0.00  0.00    +0.000 OA
BRANCH  27  28
ATOM     28  C   UNL     1       7.248   5.072  12.277  0.00  0.00    +0.000 C 
BRANCH  28  29
ATOM     29  C   UNL     1       6.800   3.705  11.827  0.00  0.00    +0.000 A 
ATOM     30  C   UNL     1       7.736   2.735  11.439  0.00  0.00    +0.000 A 
ATOM     31  C   UNL     1       7.320   1.452  11.078  0.00  0.00    +0.000 A 
ATOM     32  C   UNL     1       5.965   1.128  11.094  0.00  0.00    +0.000 A 
ATOM     33  C   UNL     1       5.024   2.088  11.463  0.00  0.00    +0.000 A 
ATOM     34  C   UNL     1       5.439   3.372  11.823  0.00  0.00    +0.000 A 
ENDBRANCH  28  29
ENDBRANCH  27  28
ENDBRANCH  24  27
ENDBRANCH  22  23
ENDBRANCH   4  22
TORSDOF 9
ENDMDL
MODEL 6
REMARK VINA RESULT:      -7.2      3.429      4.604
REMARK  Name = 
REMARK  9 active torsions:
REMARK  status: ('A' for Active; 'I' for Inactive)
REMARK    1  A    between atoms: C_2  and  C_3
REMARK    2  A    between atoms: N_5  and  C_6
REMARK    3  A    between atoms: C_9  and  S_10
REMARK    4  A    between atoms: S_10  and  N_13
REMARK    5  A    between atoms: C_16  and  C_17
REMARK    6  A    between atoms: C_17  and  N_18
REMARK    7  A    between atoms: C_19  and  O_21
REMARK    8  A    between atoms: O_21  and  C_22
REMARK    9  A    between atoms: C_22  and  C_23
REMARK                            x       y       z     vdW  Elec       q    Type
REMARK                         _______ _______ _______ _____ _____    ______ ____
ROOT
ATOM      1  N   UNL     1       4.418   6.480  18.726  0.00  0.00    +0.000 NA
ATOM      2  C   UNL     1       5.234   5.453  19.427  0.00  0.00    +0.000 C 
ATOM      3  C   UNL     1       6.729   5.722  19.280  0.00  0.00    +0.000 C 
ATOM      4  C   UNL     1       7.160   5.894  17.818  0.00  0.00    +0.000 C 
ATOM      5  C   UNL     1       6.320   7.021  17.210  0.00  0.00    +0.000 C 
ATOM      6  C   UNL     1       4.818   6.776  17.328  0.00  0.00    +0.000 C 
ENDROOT
BRANCH   1   7
ATOM      7  S   UNL     1       2.717   6.275  18.929  0.00  0.00    +0.000 S 
ATOM      8  O   UNL     1       2.492   5.637  20.209  0.00  0.00    +0.000 OA
ATOM      9  O   UNL     1       2.160   5.735  17.707  0.00  0.00    +0.000 OA
BRANCH   7  13
ATOM     10  C   UNL     1       1.181  10.584  19.082  0.00  0.00    +0.000 A 
ATOM     11  C   UNL     1       1.849  10.090  17.957  0.00  0.00    +0.000 A 
ATOM     12  C   UNL     1       2.333   8.781  17.931  0.00  0.00    +0.000 A 
ATOM     13  C   UNL     1       2.154   7.956  19.038  0.00  0.00    +0.000 A 
ATOM     14  C   UNL     1       1.490   8.426  20.172  0.00  0.00    +0.000 A 
ATOM     15  C   UNL     1       1.016   9.745  20.195  0.00  0.00    +0.000 A 
BRANCH  10  18
ATOM     16  C   UNL     1       1.028  12.851  20.093  0.00  0.00    +0.000 C 
ATOM     17  O   UNL     1       1.900  12.749  20.947  0.00  0.00    +0.000 OA
ATOM     18  N   UNL     1       0.672  11.901  19.156  0.00  0.00    +0.000 N 
ATOM     19  H   UNL     1       0.036  12.177  18.420  0.00  0.00    +0.000 HD
BRANCH  16  21
ATOM     20  C   UNL     1       0.878  15.292  20.012  0.00  0.00    +0.000 C 
ATOM     21  C   UNL     1       0.243  14.113  19.964  0.00  0.00    +0.000 C 
ENDBRANCH  16  21
ENDBRANCH  10  18
ENDBRANCH   7  13
ENDBRANCH   1   7
BRANCH   4  22
ATOM     22  C   UNL     1       7.049   4.602  16.991  0.00  0.00    +0.000 C 
BRANCH  22  23
ATOM     23  N   UNL     1       5.818   3.885  17.243  0.00  0.00    +0.000 N 
ATOM     24  C   UNL     1       4.865   3.695  16.283  0.00  0.00    +0.000 C 
ATOM     25  O   UNL     1       4.992   3.990  15.105  0.00  0.00    +0.000 OA
ATOM     26  H   UNL     1       5.539   3.657  18.186  0.00  0.00    +0.000 HD
BRANCH  24  27
ATOM     27  O   UNL     1       3.742   3.207  16.861  0.00  0.00    +0.000 OA
BRANCH  27  28
ATOM     28  C   UNL     1       3.957   2.220  17.878  0.00  0.00    +0.000 C 
BRANCH  28  29
ATOM     29  C   UNL     1       3.037   2.411  19.055  0.00  0.00    +0.000 A 
ATOM     30  C   UNL     1       1.652   2.541  18.870  0.00  0.00    +0.000 A 
ATOM     31  C   UNL     1       0.799   2.659  19.969  0.00  0.00    +0.000 A 
ATOM     32  C   UNL     1       1.319   2.655  21.261  0.00  0.00    +0.000 A 
ATOM     33  C   UNL     1       2.694   2.542  21.457  0.00  0.00    +0.000 A 
ATOM     34  C   UNL     1       3.550   2.425  20.359  0.00  0.00    +0.000 A 
ENDBRANCH  28  29
ENDBRANCH  27  28
ENDBRANCH  24  27
ENDBRANCH  22  23
ENDBRANCH   4  22
TORSDOF 9
ENDMDL
MODEL 7
REMARK VINA RESULT:      -7.1      3.597      4.605
REMARK  Name = 
REMARK  9 active torsions:
REMARK  status: ('A' for Active; 'I' for Inactive)
REMARK    1  A    between atoms: C_2  and  C_3
REMARK    2  A    between atoms: N_5  and  C_6
REMARK    3  A    between atoms: C_9  and  S_10
REMARK    4  A    between atoms: S_10  and  N_13
REMARK    5  A    between atoms: C_16  and  C_17
REMARK    6  A    between atoms: C_17  and  N_18
REMARK    7  A    between atoms: C_19  and  O_21
REMARK    8  A    between atoms: O_21  and  C_22
REMARK    9  A    between atoms: C_22  and  C_23
REMARK                            x       y       z     vdW  Elec       q    Type
REMARK                         _______ _______ _______ _____ _____    ______ ____
ROOT
ATOM      1  N   UNL     1       4.384   6.516  18.701  0.00  0.00    +0.000 NA
ATOM      2  C   UNL     1       5.197   5.486  19.401  0.00  0.00    +0.000 C 
ATOM      3  C   UNL     1       6.693   5.763  19.271  0.00  0.00    +0.000 C 
ATOM      4  C   UNL     1       7.137   5.949  17.814  0.00  0.00    +0.000 C 
ATOM      5  C   UNL     1       6.298   7.078  17.208  0.00  0.00    +0.000 C 
ATOM      6  C   UNL     1       4.795   6.825  17.309  0.00  0.00    +0.000 C 
ENDROOT
BRANCH   1   7
ATOM      7  S   UNL     1       2.681   6.301  18.885  0.00  0.00    +0.000 S 
ATOM      8  O   UNL     1       2.443   5.696  20.179  0.00  0.00    +0.000 OA
ATOM      9  O   UNL     1       2.147   5.724  17.671  0.00  0.00    +0.000 OA
BRANCH   7  13
ATOM     10  C   UNL     1       1.274  10.649  19.163  0.00  0.00    +0.000 A 
ATOM     11  C   UNL     1       1.051   9.745  20.206  0.00  0.00    +0.000 A 
ATOM     12  C   UNL     1       1.464   8.415  20.101  0.00  0.00    +0.000 A 
ATOM     13  C   UNL     1       2.103   7.980  18.942  0.00  0.00    +0.000 A 
ATOM     14  C   UNL     1       2.338   8.864  17.888  0.00  0.00    +0.000 A 
ATOM     15  C   UNL     1       1.910  10.195  17.997  0.00  0.00    +0.000 A 
BRANCH  10  18
ATOM     16  C   UNL     1       1.463  12.982  20.003  0.00  0.00    +0.000 C 
ATOM     17  O   UNL     1       2.471  12.867  20.688  0.00  0.00    +0.000 OA
ATOM     18  N   UNL     1       0.876  12.003  19.223  0.00  0.00    +0.000 N 
ATOM     19  H   UNL     1       0.134  12.281  18.596  0.00  0.00    +0.000 HD
BRANCH  16  21
ATOM     20  C   UNL     1       0.709  14.942  18.748  0.00  0.00    +0.000 C 
ATOM     21  C   UNL     1       0.754  14.291  19.918  0.00  0.00    +0.000 C 
ENDBRANCH  16  21
ENDBRANCH  10  18
ENDBRANCH   7  13
ENDBRANCH   1   7
BRANCH   4  22
ATOM     22  C   UNL     1       7.039   4.664  16.975  0.00  0.00    +0.000 C 
BRANCH  22  23
ATOM     23  N   UNL     1       5.830   3.915  17.244  0.00  0.00    +0.000 N 
ATOM     24  C   UNL     1       4.874   3.692  16.295  0.00  0.00    +0.000 C 
ATOM     25  O   UNL     1       4.981   3.982  15.114  0.00  0.00    +0.000 OA
ATOM     26  H   UNL     1       5.567   3.687  18.192  0.00  0.00    +0.000 HD
BRANCH  24  27
ATOM     27  O   UNL     1       3.770   3.178  16.887  0.00  0.00    +0.000 OA
BRANCH  27  28
ATOM     28  C   UNL     1       4.023   2.236  17.938  0.00  0.00    +0.000 C 
BRANCH  28  29
ATOM     29  C   UNL     1       3.043   2.378  19.073  0.00  0.00    +0.000 A 
ATOM     30  C   UNL     1       3.488   2.432  20.403  0.00  0.00    +0.000 A 
ATOM     31  C   UNL     1       2.580   2.622  21.447  0.00  0.00    +0.000 A 
ATOM     32  C   UNL     1       1.221   2.753  21.174  0.00  0.00    +0.000 A 
ATOM     33  C   UNL     1       0.765   2.685  19.859  0.00  0.00    +0.000 A 
ATOM     34  C   UNL     1       1.671   2.494  18.813  0.00  0.00    +0.000 A 
ENDBRANCH  28  29
ENDBRANCH  27  28
ENDBRANCH  24  27
ENDBRANCH  22  23
ENDBRANCH   4  22
TORSDOF 9
ENDMDL
MODEL 8
REMARK VINA RESULT:      -7.0      5.256      8.625
REMARK  Name = 
REMARK  9 active torsions:
REMARK  status: ('A' for Active; 'I' for Inactive)
REMARK    1  A    between atoms: C_2  and  C_3
REMARK    2  A    between atoms: N_5  and  C_6
REMARK    3  A    between atoms: C_9  and  S_10
REMARK    4  A    between atoms: S_10  and  N_13
REMARK    5  A    between atoms: C_16  and  C_17
REMARK    6  A    between atoms: C_17  and  N_18
REMARK    7  A    between atoms: C_19  and  O_21
REMARK    8  A    between atoms: O_21  and  C_22
REMARK    9  A    between atoms: C_22  and  C_23
REMARK                            x       y       z     vdW  Elec       q    Type
REMARK                         _______ _______ _______ _____ _____    ______ ____
ROOT
ATOM      1  N   UNL     1       5.290   4.291  18.189  0.00  0.00    +0.000 NA
ATOM      2  C   UNL     1       6.187   4.457  17.014  0.00  0.00    +0.000 C 
ATOM      3  C   UNL     1       7.655   4.515  17.427  0.00  0.00    +0.000 C 
ATOM      4  C   UNL     1       7.927   5.571  18.507  0.00  0.00    +0.000 C 
ATOM      5  C   UNL     1       7.014   5.269  19.700  0.00  0.00    +0.000 C 
ATOM      6  C   UNL     1       5.536   5.218  19.322  0.00  0.00    +0.000 C 
ENDROOT
BRANCH   1   7
ATOM      7  S   UNL     1       3.622   4.134  17.775  0.00  0.00    +0.000 S 
ATOM      8  O   UNL     1       3.173   2.829  18.213  0.00  0.00    +0.000 OA
ATOM      9  O   UNL     1       3.433   4.581  16.411  0.00  0.00    +0.000 OA
BRANCH   7  13
ATOM     10  C   UNL     1       1.770   7.246  20.575  0.00  0.00    +0.000 A 
ATOM     11  C   UNL     1       1.741   5.883  20.883  0.00  0.00    +0.000 A 
ATOM     12  C   UNL     1       2.289   4.941  20.011  0.00  0.00    +0.000 A 
ATOM     13  C   UNL     1       2.868   5.361  18.816  0.00  0.00    +0.000 A 
ATOM     14  C   UNL     1       2.910   6.716  18.486  0.00  0.00    +0.000 A 
ATOM     15  C   UNL     1       2.348   7.655  19.363  0.00  0.00    +0.000 A 
BRANCH  10  18
ATOM     16  C   UNL     1       0.371   9.249  21.043  0.00  0.00    +0.000 C 
ATOM     17  O   UNL     1      -0.138   9.400  19.939  0.00  0.00    +0.000 OA
ATOM     18  N   UNL     1       1.231   8.237  21.426  0.00  0.00    +0.000 N 
ATOM     19  H   UNL     1       1.455   8.155  22.409  0.00  0.00    +0.000 HD
BRANCH  16  21
ATOM     20  C   UNL     1      -0.489  11.383  21.873  0.00  0.00    +0.000 C 
ATOM     21  C   UNL     1       0.056  10.192  22.154  0.00  0.00    +0.000 C 
ENDBRANCH  16  21
ENDBRANCH  10  18
ENDBRANCH   7  13
ENDBRANCH   1   7
BRANCH   4  22
ATOM     22  C   UNL     1       7.742   7.015  18.010  0.00  0.00    +0.000 C 
BRANCH  22  23
ATOM     23  N   UNL     1       8.528   7.968  18.764  0.00  0.00    +0.000 N 
ATOM     24  C   UNL     1       8.542   9.303  18.479  0.00  0.00    +0.000 C 
ATOM     25  O   UNL     1       7.819   9.850  17.661  0.00  0.00    +0.000 OA
ATOM     26  H   UNL     1       9.236   7.652  19.411  0.00  0.00    +0.000 HD
BRANCH  24  27
ATOM     27  O   UNL     1       9.532   9.899  19.185  0.00  0.00    +0.000 OA
BRANCH  27  28
ATOM     28  C   UNL     1       9.244  11.226  19.641  0.00  0.00    +0.000 C 
BRANCH  28  29
ATOM     29  C   UNL     1       9.932  12.274  18.805  0.00  0.00    +0.000 A 
ATOM     30  C   UNL     1      10.964  11.924  17.922  0.00  0.00    +0.000 A 
ATOM     31  C   UNL     1      11.558  12.889  17.107  0.00  0.00    +0.000 A 
ATOM     32  C   UNL     1      11.133  14.214  17.170  0.00  0.00    +0.000 A 
ATOM     33  C   UNL     1      10.118  14.577  18.055  0.00  0.00    +0.000 A 
ATOM     34  C   UNL     1       9.524  13.613  18.871  0.00  0.00    +0.000 A 
ENDBRANCH  28  29
ENDBRANCH  27  28
ENDBRANCH  24  27
ENDBRANCH  22  23
ENDBRANCH   4  22
TORSDOF 9
ENDMDL
MODEL 9
REMARK VINA RESULT:      -7.0      5.412      8.834
REMARK  Name = 
REMARK  9 active torsions:
REMARK  status: ('A' for Active; 'I' for Inactive)
REMARK    1  A    between atoms: C_2  and  C_3
REMARK    2  A    between atoms: N_5  and  C_6
REMARK    3  A    between atoms: C_9  and  S_10
REMARK    4  A    between atoms: S_10  and  N_13
REMARK    5  A    between atoms: C_16  and  C_17
REMARK    6  A    between atoms: C_17  and  N_18
REMARK    7  A    between atoms: C_19  and  O_21
REMARK    8  A    between atoms: O_21  and  C_22
REMARK    9  A    between atoms: C_22  and  C_23
REMARK                            x       y       z     vdW  Elec       q    Type
REMARK                         _______ _______ _______ _____ _____    ______ ____
ROOT
ATOM      1  N   UNL     1       5.551   4.625  18.135  0.00  0.00    +0.000 NA
ATOM      2  C   UNL     1       5.714   5.251  16.796  0.00  0.00    +0.000 C 
ATOM      3  C   UNL     1       7.151   5.702  16.553  0.00  0.00    +0.000 C 
ATOM      4  C   UNL     1       7.687   6.603  17.672  0.00  0.00    +0.000 C 
ATOM      5  C   UNL     1       7.549   5.843  18.995  0.00  0.00    +0.000 C 
ATOM      6  C   UNL     1       6.118   5.389  19.275  0.00  0.00    +0.000 C 
ENDROOT
BRANCH   1   7
ATOM      7  S   UNL     1       3.963   4.019  18.433  0.00  0.00    +0.000 S 
ATOM      8  O   UNL     1       4.024   3.157  19.595  0.00  0.00    +0.000 OA
ATOM      9  O   UNL     1       3.392   3.564  17.184  0.00  0.00    +0.000 OA
BRANCH   7  13
ATOM     10  C   UNL     1       1.780   7.830  19.721  0.00  0.00    +0.000 A 
ATOM     11  C   UNL     1       1.777   6.685  20.523  0.00  0.00    +0.000 A 
ATOM     12  C   UNL     1       2.427   5.521  20.110  0.00  0.00    +0.000 A 
ATOM     13  C   UNL     1       3.084   5.495  18.881  0.00  0.00    +0.000 A 
ATOM     14  C   UNL     1       3.101   6.626  18.064  0.00  0.00    +0.000 A 
ATOM     15  C   UNL     1       2.436   7.788  18.481  0.00  0.00    +0.000 A 
BRANCH  10  18
ATOM     16  C   UNL     1       1.055   9.534  21.382  0.00  0.00    +0.000 C 
ATOM     17  O   UNL     1       1.597   9.081  22.383  0.00  0.00    +0.000 OA
ATOM     18  N   UNL     1       1.137   9.032  20.097  0.00  0.00    +0.000 N 
ATOM     19  H   UNL     1       0.758   9.592  19.346  0.00  0.00    +0.000 HD
BRANCH  16  21
ATOM     20  C   UNL     1       0.188  11.610  20.421  0.00  0.00    +0.000 C 
ATOM     21  C   UNL     1       0.229  10.772  21.466  0.00  0.00    +0.000 C 
ENDBRANCH  16  21
ENDBRANCH  10  18
ENDBRANCH   7  13
ENDBRANCH   1   7
BRANCH   4  22
ATOM     22  C   UNL     1       6.994   7.975  17.738  0.00  0.00    +0.000 C 
BRANCH  22  23
ATOM     23  N   UNL     1       7.870   9.060  17.349  0.00  0.00    +0.000 N 
ATOM     24  C   UNL     1       8.717   9.676  18.225  0.00  0.00    +0.000 C 
ATOM     25  O   UNL     1       8.918   9.312  19.374  0.00  0.00    +0.000 OA
ATOM     26  H   UNL     1       7.753   9.520  16.457  0.00  0.00    +0.000 HD
BRANCH  24  27
ATOM     27  O   UNL     1       9.227  10.787  17.645  0.00  0.00    +0.000 OA
BRANCH  27  28
ATOM     28  C   UNL     1      10.143  11.534  18.455  0.00  0.00    +0.000 C 
BRANCH  28  29
ATOM     29  C   UNL     1      10.027  13.018  18.220  0.00  0.00    +0.000 A 
ATOM     30  C   UNL     1      11.071  13.731  17.612  0.00  0.00    +0.000 A 
ATOM     31  C   UNL     1      10.935  15.095  17.344  0.00  0.00    +0.000 A 
ATOM     32  C   UNL     1       9.760  15.760  17.686  0.00  0.00    +0.000 A 
ATOM     33  C   UNL     1       8.722  15.065  18.304  0.00  0.00    +0.000 A 
ATOM     34  C   UNL     1       8.857  13.701  18.574  0.00  0.00    +0.000 A 
ENDBRANCH  28  29
ENDBRANCH  27  28
ENDBRANCH  24  27
ENDBRANCH  22  23
ENDBRANCH   4  22
TORSDOF 9
ENDMDL
