MODEL 1
REMARK VINA RESULT:      -9.2      0.000      0.000
REMARK  Name = 
REMARK  7 active torsions:
REMARK  status: ('A' for Active; 'I' for Inactive)
REMARK    1  A    between atoms: C_1  and  C_2
REMARK    2  A    between atoms: C_2  and  C_3
REMARK    3  A    between atoms: C_4  and  C_5
REMARK    4  A    between atoms: C_5  and  C_6
REMARK    5  A    between atoms: C_8  and  C_9
REMARK    6  A    between atoms: C_14  and  O_15
REMARK    7  A    between atoms: C_17  and  O_18
REMARK                            x       y       z     vdW  Elec       q    Type
REMARK                         _______ _______ _______ _____ _____    ______ ____
ROOT
ATOM      1  C   UNL     1       2.476   7.221  19.497  0.00  0.00    +0.000 C 
ATOM      2  C   UNL     1       2.923   7.637  18.101  0.00  0.00    +0.000 C 
ATOM      3  C   UNL     1       3.769   6.544  17.523  0.00  0.00    +0.000 C 
ATOM      4  O   UNL     1       4.689   6.751  16.732  0.00  0.00    +0.000 OA
ATOM      5  C   UNL     1       3.390   5.162  17.861  0.00  0.00    +0.000 A 
ATOM      6  C   UNL     1       3.960   4.062  17.211  0.00  0.00    +0.000 A 
ATOM      7  C   UNL     1       3.524   2.770  17.500  0.00  0.00    +0.000 A 
ATOM      8  C   UNL     1       2.515   2.589  18.440  0.00  0.00    +0.000 A 
ATOM      9  C   UNL     1       1.946   3.675  19.098  0.00  0.00    +0.000 A 
ATOM     10  C   UNL     1       2.393   4.966  18.813  0.00  0.00    +0.000 A 
ATOM     11  O   UNL     1       1.766   5.974  19.484  0.00  0.00    +0.000 OA
ENDROOT
BRANCH   1  14
ATOM     12  C   UNL     1      -0.038  10.132  19.713  0.00  0.00    +0.000 A 
ATOM     13  C   UNL     1       0.881   9.176  19.231  0.00  0.00    +0.000 A 
ATOM     14  C   UNL     1       1.544   8.272  20.080  0.00  0.00    +0.000 A 
ATOM     15  C   UNL     1       1.302   8.319  21.468  0.00  0.00    +0.000 A 
ATOM     16  C   UNL     1       0.397   9.261  21.982  0.00  0.00    +0.000 A 
ATOM     17  C   UNL     1      -0.087   9.589  23.274  0.00  0.00    +0.000 A 
ATOM     18  C   UNL     1      -0.995  10.606  23.099  0.00  0.00    +0.000 A 
ATOM     19  O   UNL     1      -1.091  10.941  21.786  0.00  0.00    +0.000 OA
ATOM     20  C   UNL     1      -0.240  10.124  21.098  0.00  0.00    +0.000 A 
BRANCH  12  21
ATOM     21  C   UNL     1      -0.751  11.067  18.772  0.00  0.00    +0.000 C 
BRANCH  21  25
ATOM     22  C   UNL     1      -2.900   9.824  15.750  0.00  0.00    +0.000 C 
ATOM     23  C   UNL     1      -2.554  10.473  17.064  0.00  0.00    +0.000 C 
ATOM     24  C   UNL     1      -3.653  11.224  17.763  0.00  0.00    +0.000 C 
ATOM     25  C   UNL     1      -1.298  10.385  17.547  0.00  0.00    +0.000 C 
ENDBRANCH  21  25
ENDBRANCH  12  21
ENDBRANCH   1  14
BRANCH   6  26
ATOM     26  O   UNL     1       4.939   4.181  16.261  0.00  0.00    +0.000 OA
ATOM     27  H   UNL     1       5.664   4.733  16.635  0.00  0.00    +0.000 HD
ENDBRANCH   6  26
BRANCH   8  28
ATOM     28  O   UNL     1       2.042   1.348  18.748  0.00  0.00    +0.000 OA
ATOM     29  H   UNL     1       1.081   1.335  18.606  0.00  0.00    +0.000 HD
ENDBRANCH   8  28
TORSDOF 5
ENDMDL
MODEL 2
REMARK VINA RESULT:      -9.2      2.050      7.971
REMARK  Name = 
REMARK  7 active torsions:
REMARK  status: ('A' for Active; 'I' for Inactive)
REMARK    1  A    between atoms: C_1  and  C_2
REMARK    2  A    between atoms: C_2  and  C_3
REMARK    3  A    between atoms: C_4  and  C_5
REMARK    4  A    between atoms: C_5  and  C_6
REMARK    5  A    between atoms: C_8  and  C_9
REMARK    6  A    between atoms: C_14  and  O_15
REMARK    7  A    between atoms: C_17  and  O_18
REMARK                            x       y       z     vdW  Elec       q    Type
REMARK                         _______ _______ _______ _____ _____    ______ ____
ROOT
ATOM      1  C   UNL     1       1.815   8.263  20.255  0.00  0.00    +0.000 C 
ATOM      2  C   UNL     1       1.098   8.215  21.599  0.00  0.00    +0.000 C 
ATOM      3  C   UNL     1       0.729   9.613  21.996  0.00  0.00    +0.000 C 
ATOM      4  O   UNL     1       0.666   9.986  23.167  0.00  0.00    +0.000 OA
ATOM      5  C   UNL     1       0.334  10.528  20.914  0.00  0.00    +0.000 A 
ATOM      6  C   UNL     1      -0.239  11.777  21.177  0.00  0.00    +0.000 A 
ATOM      7  C   UNL     1      -0.673  12.588  20.130  0.00  0.00    +0.000 A 
ATOM      8  C   UNL     1      -0.531  12.138  18.821  0.00  0.00    +0.000 A 
ATOM      9  C   UNL     1       0.043  10.901  18.546  0.00  0.00    +0.000 A 
ATOM     10  C   UNL     1       0.486  10.098  19.598  0.00  0.00    +0.000 A 
ATOM     11  O   UNL     1       1.014   8.892  19.242  0.00  0.00    +0.000 OA
ENDROOT
BRANCH   1  14
ATOM     12  C   UNL     1       3.386   5.359  18.271  0.00  0.00    +0.000 A 
ATOM     13  C   UNL     1       3.017   6.648  18.712  0.00  0.00    +0.000 A 
ATOM     14  C   UNL     1       2.127   6.853  19.782  0.00  0.00    +0.000 A 
ATOM     15  C   UNL     1       1.565   5.740  20.440  0.00  0.00    +0.000 A 
ATOM     16  C   UNL     1       1.907   4.443  20.024  0.00  0.00    +0.000 A 
ATOM     17  C   UNL     1       1.560   3.131  20.436  0.00  0.00    +0.000 A 
ATOM     18  C   UNL     1       2.271   2.274  19.630  0.00  0.00    +0.000 A 
ATOM     19  O   UNL     1       3.020   2.969  18.735  0.00  0.00    +0.000 OA
ATOM     20  C   UNL     1       2.800   4.296  18.969  0.00  0.00    +0.000 A 
BRANCH  12  21
ATOM     21  C   UNL     1       4.362   5.175  17.141  0.00  0.00    +0.000 C 
BRANCH  21  25
ATOM     22  C   UNL     1       7.519   7.459  17.490  0.00  0.00    +0.000 C 
ATOM     23  C   UNL     1       6.525   6.369  17.792  0.00  0.00    +0.000 C 
ATOM     24  C   UNL     1       6.871   5.420  18.905  0.00  0.00    +0.000 C 
ATOM     25  C   UNL     1       5.398   6.264  17.057  0.00  0.00    +0.000 C 
ENDBRANCH  21  25
ENDBRANCH  12  21
ENDBRANCH   1  14
BRANCH   6  26
ATOM     26  O   UNL     1      -0.424  12.260  22.444  0.00  0.00    +0.000 OA
ATOM     27  H   UNL     1      -0.922  13.107  22.380  0.00  0.00    +0.000 HD
ENDBRANCH   6  26
BRANCH   8  28
ATOM     28  O   UNL     1      -0.954  12.884  17.761  0.00  0.00    +0.000 OA
ATOM     29  H   UNL     1      -0.280  13.554  17.559  0.00  0.00    +0.000 HD
ENDBRANCH   8  28
TORSDOF 5
ENDMDL
MODEL 3
REMARK VINA RESULT:      -9.1      2.097      8.103
REMARK  Name = 
REMARK  7 active torsions:
REMARK  status: ('A' for Active; 'I' for Inactive)
REMARK    1  A    between atoms: C_1  and  C_2
REMARK    2  A    between atoms: C_2  and  C_3
REMARK    3  A    between atoms: C_4  and  C_5
REMARK    4  A    between atoms: C_5  and  C_6
REMARK    5  A    between atoms: C_8  and  C_9
REMARK    6  A    between atoms: C_14  and  O_15
REMARK    7  A    between atoms: C_17  and  O_18
REMARK                            x       y       z     vdW  Elec       q    Type
REMARK                         _______ _______ _______ _____ _____    ______ ____
ROOT
ATOM      1  C   UNL     1       2.113   8.145  19.481  0.00  0.00    +0.000 C 
ATOM      2  C   UNL     1       1.526   7.877  20.862  0.00  0.00    +0.000 C 
ATOM      3  C   UNL     1       1.068   9.178  21.449  0.00  0.00    +0.000 C 
ATOM      4  O   UNL     1       1.075   9.412  22.657  0.00  0.00    +0.000 OA
ATOM      5  C   UNL     1       0.496  10.163  20.516  0.00  0.00    +0.000 A 
ATOM      6  C   UNL     1      -0.163  11.311  20.968  0.00  0.00    +0.000 A 
ATOM      7  C   UNL     1      -0.760  12.184  20.061  0.00  0.00    +0.000 A 
ATOM      8  C   UNL     1      -0.694  11.898  18.701  0.00  0.00    +0.000 A 
ATOM      9  C   UNL     1      -0.036  10.763  18.239  0.00  0.00    +0.000 A 
ATOM     10  C   UNL     1       0.569   9.897  19.151  0.00  0.00    +0.000 A 
ATOM     11  O   UNL     1       1.172   8.797  18.615  0.00  0.00    +0.000 OA
ENDROOT
BRANCH   1  14
ATOM     12  C   UNL     1       4.137   5.548  17.481  0.00  0.00    +0.000 A 
ATOM     13  C   UNL     1       3.693   6.753  18.066  0.00  0.00    +0.000 A 
ATOM     14  C   UNL     1       2.510   6.834  18.822  0.00  0.00    +0.000 A 
ATOM     15  C   UNL     1       1.721   5.679  19.001  0.00  0.00    +0.000 A 
ATOM     16  C   UNL     1       2.131   4.465  18.429  0.00  0.00    +0.000 A 
ATOM     17  C   UNL     1       1.618   3.142  18.403  0.00  0.00    +0.000 A 
ATOM     18  C   UNL     1       2.522   2.393  17.686  0.00  0.00    +0.000 A 
ATOM     19  O   UNL     1       3.549   3.169  17.252  0.00  0.00    +0.000 OA
ATOM     20  C   UNL     1       3.314   4.437  17.701  0.00  0.00    +0.000 A 
BRANCH  12  21
ATOM     21  C   UNL     1       5.423   5.492  16.701  0.00  0.00    +0.000 C 
BRANCH  21  25
ATOM     22  C   UNL     1       8.109   8.183  17.620  0.00  0.00    +0.000 C 
ATOM     23  C   UNL     1       7.287   6.924  17.701  0.00  0.00    +0.000 C 
ATOM     24  C   UNL     1       7.681   5.919  18.747  0.00  0.00    +0.000 C 
ATOM     25  C   UNL     1       6.266   6.730  16.840  0.00  0.00    +0.000 C 
ENDBRANCH  21  25
ENDBRANCH  12  21
ENDBRANCH   1  14
BRANCH   6  26
ATOM     26  O   UNL     1      -0.278  11.630  22.294  0.00  0.00    +0.000 OA
ATOM     27  H   UNL     1       0.624  11.637  22.689  0.00  0.00    +0.000 HD
ENDBRANCH   6  26
BRANCH   8  28
ATOM     28  O   UNL     1      -1.276  12.710  17.773  0.00  0.00    +0.000 OA
ATOM     29  H   UNL     1      -0.589  13.042  17.171  0.00  0.00    +0.000 HD
ENDBRANCH   8  28
TORSDOF 5
ENDMDL
MODEL 4
REMARK VINA RESULT:      -9.1      2.340      7.875
REMARK  Name = 
REMARK  7 active torsions:
REMARK  status: ('A' for Active; 'I' for Inactive)
REMARK    1  A    between atoms: C_1  and  C_2
REMARK    2  A    between atoms: C_2  and  C_3
REMARK    3  A    between atoms: C_4  and  C_5
REMARK    4  A    between atoms: C_5  and  C_6
REMARK    5  A    between atoms: C_8  and  C_9
REMARK    6  A    between atoms: C_14  and  O_15
REMARK    7  A    between atoms: C_17  and  O_18
REMARK                            x       y       z     vdW  Elec       q    Type
REMARK                         _______ _______ _______ _____ _____    ______ ____
ROOT
ATOM      1  C   UNL     1       1.797   7.322  18.509  0.00  0.00    +0.000 C 
ATOM      2  C   UNL     1       2.524   8.481  17.838  0.00  0.00    +0.000 C 
ATOM      3  C   UNL     1       1.841   9.760  18.219  0.00  0.00    +0.000 C 
ATOM      4  O   UNL     1       1.794  10.744  17.482  0.00  0.00    +0.000 OA
ATOM      5  C   UNL     1       1.298   9.841  19.585  0.00  0.00    +0.000 A 
ATOM      6  C   UNL     1       0.841  11.048  20.126  0.00  0.00    +0.000 A 
ATOM      7  C   UNL     1       0.405  11.107  21.448  0.00  0.00    +0.000 A 
ATOM      8  C   UNL     1       0.431   9.951  22.223  0.00  0.00    +0.000 A 
ATOM      9  C   UNL     1       0.878   8.745  21.694  0.00  0.00    +0.000 A 
ATOM     10  C   UNL     1       1.304   8.689  20.367  0.00  0.00    +0.000 A 
ATOM     11  O   UNL     1       1.747   7.473  19.935  0.00  0.00    +0.000 OA
ENDROOT
BRANCH   1  14
ATOM     12  C   UNL     1       4.546   4.852  17.421  0.00  0.00    +0.000 A 
ATOM     13  C   UNL     1       3.811   6.032  17.663  0.00  0.00    +0.000 A 
ATOM     14  C   UNL     1       2.517   6.016  18.212  0.00  0.00    +0.000 A 
ATOM     15  C   UNL     1       1.913   4.782  18.527  0.00  0.00    +0.000 A 
ATOM     16  C   UNL     1       2.614   3.588  18.295  0.00  0.00    +0.000 A 
ATOM     17  C   UNL     1       2.341   2.209  18.486  0.00  0.00    +0.000 A 
ATOM     18  C   UNL     1       3.468   1.534  18.081  0.00  0.00    +0.000 A 
ATOM     19  O   UNL     1       4.412   2.403  17.635  0.00  0.00    +0.000 OA
ATOM     20  C   UNL     1       3.895   3.660  17.761  0.00  0.00    +0.000 A 
BRANCH  12  21
ATOM     21  C   UNL     1       5.941   4.908  16.858  0.00  0.00    +0.000 C 
BRANCH  21  25
ATOM     22  C   UNL     1       8.020   8.122  17.662  0.00  0.00    +0.000 C 
ATOM     23  C   UNL     1       7.399   6.762  17.838  0.00  0.00    +0.000 C 
ATOM     24  C   UNL     1       7.791   5.988  19.066  0.00  0.00    +0.000 C 
ATOM     25  C   UNL     1       6.554   6.281  16.903  0.00  0.00    +0.000 C 
ENDBRANCH  21  25
ENDBRANCH  12  21
ENDBRANCH   1  14
BRANCH   6  26
ATOM     26  O   UNL     1       0.814  12.219  19.418  0.00  0.00    +0.000 OA
ATOM     27  H   UNL     1       0.863  12.966  20.058  0.00  0.00    +0.000 HD
ENDBRANCH   6  26
BRANCH   8  28
ATOM     28  O   UNL     1       0.031   9.958  23.526  0.00  0.00    +0.000 OA
ATOM     29  H   UNL     1      -0.136   9.043  23.808  0.00  0.00    +0.000 HD
ENDBRANCH   8  28
TORSDOF 5
ENDMDL
MODEL 5
REMARK VINA RESULT:      -9.0      1.816      8.075
REMARK  Name = 
REMARK  7 active torsions:
REMARK  status: ('A' for Active; 'I' for Inactive)
REMARK    1  A    between atoms: C_1  and  C_2
REMARK    2  A    between atoms: C_2  and  C_3
REMARK    3  A    between atoms: C_4  and  C_5
REMARK    4  A    between atoms: C_5  and  C_6
REMARK    5  A    between atoms: C_8  and  C_9
REMARK    6  A    between atoms: C_14  and  O_15
REMARK    7  A    between atoms: C_17  and  O_18
REMARK                            x       y       z     vdW  Elec       q    Type
REMARK                         _______ _______ _______ _____ _____    ______ ____
ROOT
ATOM      1  C   UNL     1       2.274   8.189  19.022  0.00  0.00    +0.000 C 
ATOM      2  C   UNL     1       1.703   7.760  20.368  0.00  0.00    +0.000 C 
ATOM      3  C   UNL     1       1.022   8.938  20.998  0.00  0.00    +0.000 C 
ATOM      4  O   UNL     1       0.960   9.108  22.215  0.00  0.00    +0.000 OA
ATOM      5  C   UNL     1       0.322   9.862  20.092  0.00  0.00    +0.000 A 
ATOM      6  C   UNL     1      -0.528  10.864  20.573  0.00  0.00    +0.000 A 
ATOM      7  C   UNL     1      -1.236  11.673  19.686  0.00  0.00    +0.000 A 
ATOM      8  C   UNL     1      -1.088  11.471  18.318  0.00  0.00    +0.000 A 
ATOM      9  C   UNL     1      -0.242  10.482  17.827  0.00  0.00    +0.000 A 
ATOM     10  C   UNL     1       0.473   9.681  18.719  0.00  0.00    +0.000 A 
ATOM     11  O   UNL     1       1.262   8.722  18.155  0.00  0.00    +0.000 OA
ENDROOT
BRANCH   1  14
ATOM     12  C   UNL     1       2.806   4.595  17.741  0.00  0.00    +0.000 A 
ATOM     13  C   UNL     1       2.302   5.725  18.421  0.00  0.00    +0.000 A 
ATOM     14  C   UNL     1       2.897   6.994  18.318  0.00  0.00    +0.000 A 
ATOM     15  C   UNL     1       4.048   7.158  17.519  0.00  0.00    +0.000 A 
ATOM     16  C   UNL     1       4.578   6.054  16.834  0.00  0.00    +0.000 A 
ATOM     17  C   UNL     1       5.679   5.846  15.964  0.00  0.00    +0.000 A 
ATOM     18  C   UNL     1       5.637   4.520  15.601  0.00  0.00    +0.000 A 
ATOM     19  O   UNL     1       4.595   3.892  16.203  0.00  0.00    +0.000 OA
ATOM     20  C   UNL     1       3.945   4.824  16.961  0.00  0.00    +0.000 A 
BRANCH  12  21
ATOM     21  C   UNL     1       2.127   3.256  17.852  0.00  0.00    +0.000 C 
BRANCH  21  25
ATOM     22  C   UNL     1       1.491   2.573  21.651  0.00  0.00    +0.000 C 
ATOM     23  C   UNL     1       2.224   2.688  20.341  0.00  0.00    +0.000 C 
ATOM     24  C   UNL     1       3.713   2.484  20.374  0.00  0.00    +0.000 C 
ATOM     25  C   UNL     1       1.546   2.987  19.214  0.00  0.00    +0.000 C 
ENDBRANCH  21  25
ENDBRANCH  12  21
ENDBRANCH   1  14
BRANCH   6  26
ATOM     26  O   UNL     1      -0.729  11.093  21.907  0.00  0.00    +0.000 OA
ATOM     27  H   UNL     1       0.085  11.510  22.274  0.00  0.00    +0.000 HD
ENDBRANCH   6  26
BRANCH   8  28
ATOM     28  O   UNL     1      -1.770  12.223  17.408  0.00  0.00    +0.000 OA
ATOM     29  H   UNL     1      -2.068  13.043  17.838  0.00  0.00    +0.000 HD
ENDBRANCH   8  28
TORSDOF 5
ENDMDL
MODEL 6
REMARK VINA RESULT:      -8.9      2.127      8.135
REMARK  Name = 
REMARK  7 active torsions:
REMARK  status: ('A' for Active; 'I' for Inactive)
REMARK    1  A    between atoms: C_1  and  C_2
REMARK    2  A    between atoms: C_2  and  C_3
REMARK    3  A    between atoms: C_4  and  C_5
REMARK    4  A    between atoms: C_5  and  C_6
REMARK    5  A    between atoms: C_8  and  C_9
REMARK    6  A    between atoms: C_14  and  O_15
REMARK    7  A    between atoms: C_17  and  O_18
REMARK                            x       y       z     vdW  Elec       q    Type
REMARK                         _______ _______ _______ _____ _____    ______ ____
ROOT
ATOM      1  C   UNL     1       1.514   8.482  20.505  0.00  0.00    +0.000 C 
ATOM      2  C   UNL     1       0.677   8.483  21.779  0.00  0.00    +0.000 C 
ATOM      3  C   UNL     1       0.316   9.899  22.114  0.00  0.00    +0.000 C 
ATOM      4  O   UNL     1       0.158  10.299  23.267  0.00  0.00    +0.000 OA
ATOM      5  C   UNL     1       0.048  10.801  20.982  0.00  0.00    +0.000 A 
ATOM      6  C   UNL     1      -0.509  12.071  21.167  0.00  0.00    +0.000 A 
ATOM      7  C   UNL     1      -0.822  12.870  20.070  0.00  0.00    +0.000 A 
ATOM      8  C   UNL     1      -0.576  12.388  18.788  0.00  0.00    +0.000 A 
ATOM      9  C   UNL     1      -0.016  11.130  18.591  0.00  0.00    +0.000 A 
ATOM     10  C   UNL     1       0.305  10.338  19.694  0.00  0.00    +0.000 A 
ATOM     11  O   UNL     1       0.827   9.110  19.412  0.00  0.00    +0.000 OA
ENDROOT
BRANCH   1  14
ATOM     12  C   UNL     1       2.993   5.500  18.565  0.00  0.00    +0.000 A 
ATOM     13  C   UNL     1       2.625   6.804  18.961  0.00  0.00    +0.000 A 
ATOM     14  C   UNL     1       1.825   7.053  20.090  0.00  0.00    +0.000 A 
ATOM     15  C   UNL     1       1.355   5.969  20.859  0.00  0.00    +0.000 A 
ATOM     16  C   UNL     1       1.697   4.658  20.491  0.00  0.00    +0.000 A 
ATOM     17  C   UNL     1       1.425   3.365  21.008  0.00  0.00    +0.000 A 
ATOM     18  C   UNL     1       2.089   2.478  20.194  0.00  0.00    +0.000 A 
ATOM     19  O   UNL     1       2.738   3.135  19.198  0.00  0.00    +0.000 OA
ATOM     20  C   UNL     1       2.500   4.468  19.373  0.00  0.00    +0.000 A 
BRANCH  12  21
ATOM     21  C   UNL     1       3.874   5.272  17.366  0.00  0.00    +0.000 C 
BRANCH  21  25
ATOM     22  C   UNL     1       7.712   4.518  17.385  0.00  0.00    +0.000 C 
ATOM     23  C   UNL     1       6.281   4.545  16.917  0.00  0.00    +0.000 C 
ATOM     24  C   UNL     1       6.004   4.009  15.541  0.00  0.00    +0.000 C 
ATOM     25  C   UNL     1       5.322   5.058  17.715  0.00  0.00    +0.000 C 
ENDBRANCH  21  25
ENDBRANCH  12  21
ENDBRANCH   1  14
BRANCH   6  26
ATOM     26  O   UNL     1      -0.794  12.587  22.403  0.00  0.00    +0.000 OA
ATOM     27  H   UNL     1      -0.345  12.030  23.080  0.00  0.00    +0.000 HD
ENDBRANCH   6  26
BRANCH   8  28
ATOM     28  O   UNL     1      -0.878  13.123  17.680  0.00  0.00    +0.000 OA
ATOM     29  H   UNL     1      -1.663  13.664  17.866  0.00  0.00    +0.000 HD
ENDBRANCH   8  28
TORSDOF 5
ENDMDL
MODEL 7
REMARK VINA RESULT:      -8.9      2.250      7.818
REMARK  Name = 
REMARK  7 active torsions:
REMARK  status: ('A' for Active; 'I' for Inactive)
REMARK    1  A    between atoms: C_1  and  C_2
REMARK    2  A    between atoms: C_2  and  C_3
REMARK    3  A    between atoms: C_4  and  C_5
REMARK    4  A    between atoms: C_5  and  C_6
REMARK    5  A    between atoms: C_8  and  C_9
REMARK    6  A    between atoms: C_14  and  O_15
REMARK    7  A    between atoms: C_17  and  O_18
REMARK                            x       y       z     vdW  Elec       q    Type
REMARK                         _______ _______ _______ _____ _____    ______ ____
ROOT
ATOM      1  C   UNL     1       1.931   7.757  18.611  0.00  0.00    +0.000 C 
ATOM      2  C   UNL     1       2.223   9.121  17.997  0.00  0.00    +0.000 C 
ATOM      3  C   UNL     1       1.245  10.114  18.549  0.00  0.00    +0.000 C 
ATOM      4  O   UNL     1       0.843  11.088  17.914  0.00  0.00    +0.000 OA
ATOM      5  C   UNL     1       0.844   9.940  19.954  0.00  0.00    +0.000 A 
ATOM      6  C   UNL     1       0.117  10.919  20.641  0.00  0.00    +0.000 A 
ATOM      7  C   UNL     1      -0.181  10.758  21.992  0.00  0.00    +0.000 A 
ATOM      8  C   UNL     1       0.255   9.612  22.650  0.00  0.00    +0.000 A 
ATOM      9  C   UNL     1       0.972   8.628  21.977  0.00  0.00    +0.000 A 
ATOM     10  C   UNL     1       1.259   8.790  20.621  0.00  0.00    +0.000 A 
ATOM     11  O   UNL     1       1.985   7.790  20.044  0.00  0.00    +0.000 OA
ENDROOT
BRANCH   1  14
ATOM     12  C   UNL     1       3.801   4.421  18.143  0.00  0.00    +0.000 A 
ATOM     13  C   UNL     1       2.907   5.415  18.595  0.00  0.00    +0.000 A 
ATOM     14  C   UNL     1       2.961   6.743  18.137  0.00  0.00    +0.000 A 
ATOM     15  C   UNL     1       3.947   7.115  17.200  0.00  0.00    +0.000 A 
ATOM     16  C   UNL     1       4.856   6.152  16.733  0.00  0.00    +0.000 A 
ATOM     17  C   UNL     1       5.941   6.154  15.819  0.00  0.00    +0.000 A 
ATOM     18  C   UNL     1       6.412   4.864  15.778  0.00  0.00    +0.000 A 
ATOM     19  O   UNL     1       5.704   4.068  16.621  0.00  0.00    +0.000 OA
ATOM     20  C   UNL     1       4.753   4.851  17.209  0.00  0.00    +0.000 A 
BRANCH  12  21
ATOM     21  C   UNL     1       3.697   3.003  18.634  0.00  0.00    +0.000 C 
BRANCH  21  25
ATOM     22  C   UNL     1       1.455   2.462  21.793  0.00  0.00    +0.000 C 
ATOM     23  C   UNL     1       1.835   2.680  20.353  0.00  0.00    +0.000 C 
ATOM     24  C   UNL     1       0.727   2.626  19.340  0.00  0.00    +0.000 C 
ATOM     25  C   UNL     1       3.127   2.886  20.022  0.00  0.00    +0.000 C 
ENDBRANCH  21  25
ENDBRANCH  12  21
ENDBRANCH   1  14
BRANCH   6  26
ATOM     26  O   UNL     1      -0.316  12.076  20.050  0.00  0.00    +0.000 OA
ATOM     27  H   UNL     1      -0.314  11.943  19.075  0.00  0.00    +0.000 HD
ENDBRANCH   6  26
BRANCH   8  28
ATOM     28  O   UNL     1       0.004   9.413  23.975  0.00  0.00    +0.000 OA
ATOM     29  H   UNL     1      -0.468   8.571  24.083  0.00  0.00    +0.000 HD
ENDBRANCH   8  28
TORSDOF 5
ENDMDL
MODEL 8
REMARK VINA RESULT:      -8.7      1.295      1.450
REMARK  Name = 
REMARK  7 active torsions:
REMARK  status: ('A' for Active; 'I' for Inactive)
REMARK    1  A    between atoms: C_1  and  C_2
REMARK    2  A    between atoms: C_2  and  C_3
REMARK    3  A    between atoms: C_4  and  C_5
REMARK    4  A    between atoms: C_5  and  C_6
REMARK    5  A    between atoms: C_8  and  C_9
REMARK    6  A    between atoms: C_14  and  O_15
REMARK    7  A    between atoms: C_17  and  O_18
REMARK                            x       y       z     vdW  Elec       q    Type
REMARK                         _______ _______ _______ _____ _____    ______ ____
ROOT
ATOM      1  C   UNL     1       2.044   7.727  20.141  0.00  0.00    +0.000 C 
ATOM      2  C   UNL     1       2.210   7.557  18.635  0.00  0.00    +0.000 C 
ATOM      3  C   UNL     1       3.103   6.380  18.381  0.00  0.00    +0.000 C 
ATOM      4  O   UNL     1       3.854   6.302  17.409  0.00  0.00    +0.000 OA
ATOM      5  C   UNL     1       2.978   5.241  19.304  0.00  0.00    +0.000 A 
ATOM      6  C   UNL     1       3.590   4.010  19.043  0.00  0.00    +0.000 A 
ATOM      7  C   UNL     1       3.389   2.928  19.897  0.00  0.00    +0.000 A 
ATOM      8  C   UNL     1       2.571   3.086  21.011  0.00  0.00    +0.000 A 
ATOM      9  C   UNL     1       1.962   4.307  21.285  0.00  0.00    +0.000 A 
ATOM     10  C   UNL     1       2.175   5.390  20.432  0.00  0.00    +0.000 A 
ATOM     11  O   UNL     1       1.522   6.542  20.760  0.00  0.00    +0.000 OA
ENDROOT
BRANCH   1  14
ATOM     12  C   UNL     1      -0.408  10.646  19.586  0.00  0.00    +0.000 A 
ATOM     13  C   UNL     1       0.540   9.621  19.376  0.00  0.00    +0.000 A 
ATOM     14  C   UNL     1       1.074   8.861  20.432  0.00  0.00    +0.000 A 
ATOM     15  C   UNL     1       0.668   9.129  21.755  0.00  0.00    +0.000 A 
ATOM     16  C   UNL     1      -0.269  10.145  21.999  0.00  0.00    +0.000 A 
ATOM     17  C   UNL     1      -0.898  10.676  23.155  0.00  0.00    +0.000 A 
ATOM     18  C   UNL     1      -1.755  11.656  22.711  0.00  0.00    +0.000 A 
ATOM     19  O   UNL     1      -1.683  11.778  21.361  0.00  0.00    +0.000 OA
ATOM     20  C   UNL     1      -0.775  10.859  20.920  0.00  0.00    +0.000 A 
BRANCH  12  21
ATOM     21  C   UNL     1      -0.979  11.422  18.430  0.00  0.00    +0.000 C 
BRANCH  21  25
ATOM     22  C   UNL     1      -3.000   9.708  15.553  0.00  0.00    +0.000 C 
ATOM     23  C   UNL     1      -2.709  10.562  16.758  0.00  0.00    +0.000 C 
ATOM     24  C   UNL     1      -3.831  11.419  17.273  0.00  0.00    +0.000 C 
ATOM     25  C   UNL     1      -1.477  10.551  17.307  0.00  0.00    +0.000 C 
ENDBRANCH  21  25
ENDBRANCH  12  21
ENDBRANCH   1  14
BRANCH   6  26
ATOM     26  O   UNL     1       4.386   3.790  17.951  0.00  0.00    +0.000 OA
ATOM     27  H   UNL     1       3.921   4.138  17.156  0.00  0.00    +0.000 HD
ENDBRANCH   6  26
BRANCH   8  28
ATOM     28  O   UNL     1       2.328   2.055  21.869  0.00  0.00    +0.000 OA
ATOM     29  H   UNL     1       1.471   2.203  22.304  0.00  0.00    +0.000 HD
ENDBRANCH   8  28
TORSDOF 5
ENDMDL
MODEL 9
REMARK VINA RESULT:      -8.7      1.354      2.257
REMARK  Name = 
REMARK  7 active torsions:
REMARK  status: ('A' for Active; 'I' for Inactive)
REMARK    1  A    between atoms: C_1  and  C_2
REMARK    2  A    between atoms: C_2  and  C_3
REMARK    3  A    between atoms: C_4  and  C_5
REMARK    4  A    between atoms: C_5  and  C_6
REMARK    5  A    between atoms: C_8  and  C_9
REMARK    6  A    between atoms: C_14  and  O_15
REMARK    7  A    between atoms: C_17  and  O_18
REMARK                            x       y       z     vdW  Elec       q    Type
REMARK                         _______ _______ _______ _____ _____    ______ ____
ROOT
ATOM      1  C   UNL     1       2.443   7.236  19.535  0.00  0.00    +0.000 C 
ATOM      2  C   UNL     1       2.918   7.623  18.139  0.00  0.00    +0.000 C 
ATOM      3  C   UNL     1       3.706   6.483  17.568  0.00  0.00    +0.000 C 
ATOM      4  O   UNL     1       4.639   6.637  16.781  0.00  0.00    +0.000 OA
ATOM      5  C   UNL     1       3.251   5.125  17.908  0.00  0.00    +0.000 A 
ATOM      6  C   UNL     1       3.763   3.993  17.264  0.00  0.00    +0.000 A 
ATOM      7  C   UNL     1       3.257   2.728  17.555  0.00  0.00    +0.000 A 
ATOM      8  C   UNL     1       2.236   2.605  18.492  0.00  0.00    +0.000 A 
ATOM      9  C   UNL     1       1.723   3.722  19.144  0.00  0.00    +0.000 A 
ATOM     10  C   UNL     1       2.241   4.986  18.857  0.00  0.00    +0.000 A 
ATOM     11  O   UNL     1       1.666   6.029  19.522  0.00  0.00    +0.000 OA
ENDROOT
BRANCH   1  14
ATOM     12  C   UNL     1       0.238  10.388  19.750  0.00  0.00    +0.000 A 
ATOM     13  C   UNL     1       1.100   9.373  19.281  0.00  0.00    +0.000 A 
ATOM     14  C   UNL     1       1.567   8.338  20.110  0.00  0.00    +0.000 A 
ATOM     15  C   UNL     1       1.179   8.305  21.465  0.00  0.00    +0.000 A 
ATOM     16  C   UNL     1       0.326   9.302  21.965  0.00  0.00    +0.000 A 
ATOM     17  C   UNL     1      -0.261   9.582  23.226  0.00  0.00    +0.000 A 
ATOM     18  C   UNL     1      -1.034  10.706  23.049  0.00  0.00    +0.000 A 
ATOM     19  O   UNL     1      -0.948  11.149  21.768  0.00  0.00    +0.000 OA
ATOM     20  C   UNL     1      -0.116  10.296  21.101  0.00  0.00    +0.000 A 
BRANCH  12  21
ATOM     21  C   UNL     1      -0.264  11.466  18.828  0.00  0.00    +0.000 C 
BRANCH  21  25
ATOM     22  C   UNL     1       1.746  14.807  19.139  0.00  0.00    +0.000 C 
ATOM     23  C   UNL     1       1.442  13.367  18.820  0.00  0.00    +0.000 C 
ATOM     24  C   UNL     1       2.501  12.593  18.087  0.00  0.00    +0.000 C 
ATOM     25  C   UNL     1       0.251  12.838  19.169  0.00  0.00    +0.000 C 
ENDBRANCH  21  25
ENDBRANCH  12  21
ENDBRANCH   1  14
BRANCH   6  26
ATOM     26  O   UNL     1       4.751   4.056  16.319  0.00  0.00    +0.000 OA
ATOM     27  H   UNL     1       5.413   4.724  16.611  0.00  0.00    +0.000 HD
ENDBRANCH   6  26
BRANCH   8  28
ATOM     28  O   UNL     1       1.694   1.393  18.801  0.00  0.00    +0.000 OA
ATOM     29  H   UNL     1       1.275   1.024  18.006  0.00  0.00    +0.000 HD
ENDBRANCH   8  28
TORSDOF 5
ENDMDL
