MODEL 1
REMARK VINA RESULT:      -6.5      0.000      0.000
REMARK  Name = 
REMARK  5 active torsions:
REMARK  status: ('A' for Active; 'I' for Inactive)
REMARK    1  A    between atoms: C_1  and  N_2
REMARK    2  A    between atoms: C_6  and  S_7
REMARK    3  A    between atoms: N_8  and  C_9
REMARK    4  A    between atoms: C_9  and  C_10
REMARK    5  A    between atoms: C_10  and  C_11
REMARK                            x       y       z     vdW  Elec       q    Type
REMARK                         _______ _______ _______ _____ _____    ______ ____
ROOT
ATOM      1  C   UNL     1       2.201   4.345  18.336  0.00  0.00    +0.000 C 
ATOM      2  N   UNL     1       3.363   4.669  17.516  0.00  0.00    +0.000 NA
ATOM      3  C   UNL     1       4.570   4.079  18.136  0.00  0.00    +0.000 C 
ATOM      4  C   UNL     1       5.858   4.479  17.401  0.00  0.00    +0.000 C 
ATOM      5  N   UNL     1       5.993   5.937  17.445  0.00  0.00    +0.000 N 
ATOM      6  C   UNL     1       7.078   6.648  17.918  0.00  0.00    +0.000 C 
ATOM      7  N   UNL     1       7.345   7.846  17.500  0.00  0.00    +0.000 NA
ATOM      8  C   UNL     1       4.883   6.589  16.732  0.00  0.00    +0.000 C 
ATOM      9  C   UNL     1       3.524   6.135  17.341  0.00  0.00    +0.000 C 
ENDROOT
BRANCH   6  10
ATOM     10  S   UNL     1       8.055   5.867  19.175  0.00  0.00    +0.000 S 
ATOM     11  H   UNL     1       7.496   6.484  20.219  0.00  0.00    +0.000 HD
ENDBRANCH   6  10
BRANCH   7  12
ATOM     12  C   UNL     1       8.502   8.564  18.043  0.00  0.00    +0.000 C 
BRANCH  12  13
ATOM     13  C   UNL     1       8.206  10.064  18.129  0.00  0.00    +0.000 C 
BRANCH  13  14
ATOM     14  C   UNL     1       9.406  10.807  18.676  0.00  0.00    +0.000 A 
ATOM     15  C   UNL     1      10.454  11.194  17.830  0.00  0.00    +0.000 A 
ATOM     16  C   UNL     1      11.591  11.817  18.349  0.00  0.00    +0.000 A 
ATOM     17  C   UNL     1      11.690  12.056  19.719  0.00  0.00    +0.000 A 
ATOM     18  C   UNL     1      10.654  11.675  20.570  0.00  0.00    +0.000 A 
ATOM     19  C   UNL     1       9.517  11.054  20.051  0.00  0.00    +0.000 A 
ENDBRANCH  13  14
ENDBRANCH  12  13
ENDBRANCH   7  12
TORSDOF 4
ENDMDL
MODEL 2
REMARK VINA RESULT:      -6.1      0.757      1.305
REMARK  Name = 
REMARK  5 active torsions:
REMARK  status: ('A' for Active; 'I' for Inactive)
REMARK    1  A    between atoms: C_1  and  N_2
REMARK    2  A    between atoms: C_6  and  S_7
REMARK    3  A    between atoms: N_8  and  C_9
REMARK    4  A    between atoms: C_9  and  C_10
REMARK    5  A    between atoms: C_10  and  C_11
REMARK                            x       y       z     vdW  Elec       q    Type
REMARK                         _______ _______ _______ _____ _____    ______ ____
ROOT
ATOM      1  C   UNL     1       1.817   4.509  19.409  0.00  0.00    +0.000 C 
ATOM      2  N   UNL     1       2.825   4.764  18.385  0.00  0.00    +0.000 NA
ATOM      3  C   UNL     1       4.085   4.094  18.772  0.00  0.00    +0.000 C 
ATOM      4  C   UNL     1       5.237   4.415  17.808  0.00  0.00    +0.000 C 
ATOM      5  N   UNL     1       5.472   5.861  17.818  0.00  0.00    +0.000 N 
ATOM      6  C   UNL     1       6.670   6.497  18.078  0.00  0.00    +0.000 C 
ATOM      7  N   UNL     1       6.930   7.679  17.611  0.00  0.00    +0.000 NA
ATOM      8  C   UNL     1       4.292   6.588  17.322  0.00  0.00    +0.000 C 
ATOM      9  C   UNL     1       3.045   6.218  18.176  0.00  0.00    +0.000 C 
ENDROOT
BRANCH   6  10
ATOM     10  S   UNL     1       7.811   5.646  19.134  0.00  0.00    +0.000 S 
ATOM     11  H   UNL     1       8.083   4.640  18.299  0.00  0.00    +0.000 HD
ENDBRANCH   6  10
BRANCH   7  12
ATOM     12  C   UNL     1       8.212   8.317  17.926  0.00  0.00    +0.000 C 
BRANCH  12  13
ATOM     13  C   UNL     1       8.182   9.797  17.534  0.00  0.00    +0.000 C 
BRANCH  13  14
ATOM     14  C   UNL     1       9.174  10.582  18.363  0.00  0.00    +0.000 A 
ATOM     15  C   UNL     1       9.314  10.335  19.735  0.00  0.00    +0.000 A 
ATOM     16  C   UNL     1      10.179  11.110  20.510  0.00  0.00    +0.000 A 
ATOM     17  C   UNL     1      10.910  12.141  19.921  0.00  0.00    +0.000 A 
ATOM     18  C   UNL     1      10.778  12.396  18.556  0.00  0.00    +0.000 A 
ATOM     19  C   UNL     1       9.915  11.620  17.781  0.00  0.00    +0.000 A 
ENDBRANCH  13  14
ENDBRANCH  12  13
ENDBRANCH   7  12
TORSDOF 4
ENDMDL
MODEL 3
REMARK VINA RESULT:      -6.0      3.567      5.171
REMARK  Name = 
REMARK  5 active torsions:
REMARK  status: ('A' for Active; 'I' for Inactive)
REMARK    1  A    between atoms: C_1  and  N_2
REMARK    2  A    between atoms: C_6  and  S_7
REMARK    3  A    between atoms: N_8  and  C_9
REMARK    4  A    between atoms: C_9  and  C_10
REMARK    5  A    between atoms: C_10  and  C_11
REMARK                            x       y       z     vdW  Elec       q    Type
REMARK                         _______ _______ _______ _____ _____    ______ ____
ROOT
ATOM      1  C   UNL     1       1.657   8.068  21.408  0.00  0.00    +0.000 C 
ATOM      2  N   UNL     1       1.465   7.146  20.294  0.00  0.00    +0.000 NA
ATOM      3  C   UNL     1       1.742   5.768  20.755  0.00  0.00    +0.000 C 
ATOM      4  C   UNL     1       1.683   4.746  19.609  0.00  0.00    +0.000 C 
ATOM      5  N   UNL     1       2.694   5.101  18.609  0.00  0.00    +0.000 N 
ATOM      6  C   UNL     1       3.694   4.281  18.125  0.00  0.00    +0.000 C 
ATOM      7  N   UNL     1       4.216   4.461  16.952  0.00  0.00    +0.000 NA
ATOM      8  C   UNL     1       2.406   6.416  18.015  0.00  0.00    +0.000 C 
ATOM      9  C   UNL     1       2.324   7.495  19.133  0.00  0.00    +0.000 C 
ENDROOT
BRANCH   6  10
ATOM     10  S   UNL     1       4.274   3.006  19.213  0.00  0.00    +0.000 S 
ATOM     11  H   UNL     1       5.570   3.117  18.913  0.00  0.00    +0.000 HD
ENDBRANCH   6  10
BRANCH   7  12
ATOM     12  C   UNL     1       5.285   3.569  16.489  0.00  0.00    +0.000 C 
BRANCH  12  13
ATOM     13  C   UNL     1       6.435   4.383  15.890  0.00  0.00    +0.000 C 
BRANCH  13  14
ATOM     14  C   UNL     1       6.988   5.348  16.915  0.00  0.00    +0.000 A 
ATOM     15  C   UNL     1       7.060   6.721  16.639  0.00  0.00    +0.000 A 
ATOM     16  C   UNL     1       7.635   7.599  17.559  0.00  0.00    +0.000 A 
ATOM     17  C   UNL     1       8.148   7.113  18.761  0.00  0.00    +0.000 A 
ATOM     18  C   UNL     1       8.083   5.750  19.046  0.00  0.00    +0.000 A 
ATOM     19  C   UNL     1       7.506   4.872  18.127  0.00  0.00    +0.000 A 
ENDBRANCH  13  14
ENDBRANCH  12  13
ENDBRANCH   7  12
TORSDOF 4
ENDMDL
MODEL 4
REMARK VINA RESULT:      -6.0      6.543      9.323
REMARK  Name = 
REMARK  5 active torsions:
REMARK  status: ('A' for Active; 'I' for Inactive)
REMARK    1  A    between atoms: C_1  and  N_2
REMARK    2  A    between atoms: C_6  and  S_7
REMARK    3  A    between atoms: N_8  and  C_9
REMARK    4  A    between atoms: C_9  and  C_10
REMARK    5  A    between atoms: C_10  and  C_11
REMARK                            x       y       z     vdW  Elec       q    Type
REMARK                         _______ _______ _______ _____ _____    ______ ____
ROOT
ATOM      1  C   UNL     1      -1.908  11.209  23.297  0.00  0.00    +0.000 C 
ATOM      2  N   UNL     1      -0.542  10.906  22.882  0.00  0.00    +0.000 NA
ATOM      3  C   UNL     1      -0.301  11.498  21.549  0.00  0.00    +0.000 C 
ATOM      4  C   UNL     1       1.076  11.121  20.983  0.00  0.00    +0.000 C 
ATOM      5  N   UNL     1       1.148   9.663  20.851  0.00  0.00    +0.000 N 
ATOM      6  C   UNL     1       1.451   8.956  19.704  0.00  0.00    +0.000 C 
ATOM      7  N   UNL     1       1.965   7.766  19.752  0.00  0.00    +0.000 NA
ATOM      8  C   UNL     1       1.040   9.011  22.166  0.00  0.00    +0.000 C 
ATOM      9  C   UNL     1      -0.281   9.444  22.865  0.00  0.00    +0.000 C 
ENDROOT
BRANCH   6  10
ATOM     10  S   UNL     1       1.045   9.729  18.161  0.00  0.00    +0.000 S 
ATOM     11  H   UNL     1       0.065  10.508  18.625  0.00  0.00    +0.000 HD
ENDBRANCH   6  10
BRANCH   7  12
ATOM     12  C   UNL     1       2.257   7.052  18.505  0.00  0.00    +0.000 C 
BRANCH  12  13
ATOM     13  C   UNL     1       3.275   5.936  18.757  0.00  0.00    +0.000 C 
BRANCH  13  14
ATOM     14  C   UNL     1       2.584   4.701  19.292  0.00  0.00    +0.000 A 
ATOM     15  C   UNL     1       1.517   4.120  18.594  0.00  0.00    +0.000 A 
ATOM     16  C   UNL     1       0.836   3.023  19.126  0.00  0.00    +0.000 A 
ATOM     17  C   UNL     1       1.214   2.500  20.362  0.00  0.00    +0.000 A 
ATOM     18  C   UNL     1       2.274   3.070  21.065  0.00  0.00    +0.000 A 
ATOM     19  C   UNL     1       2.956   4.165  20.532  0.00  0.00    +0.000 A 
ENDBRANCH  13  14
ENDBRANCH  12  13
ENDBRANCH   7  12
TORSDOF 4
ENDMDL
MODEL 5
REMARK VINA RESULT:      -6.0      5.236      6.717
REMARK  Name = 
REMARK  5 active torsions:
REMARK  status: ('A' for Active; 'I' for Inactive)
REMARK    1  A    between atoms: C_1  and  N_2
REMARK    2  A    between atoms: C_6  and  S_7
REMARK    3  A    between atoms: N_8  and  C_9
REMARK    4  A    between atoms: C_9  and  C_10
REMARK    5  A    between atoms: C_10  and  C_11
REMARK                            x       y       z     vdW  Elec       q    Type
REMARK                         _______ _______ _______ _____ _____    ______ ____
ROOT
ATOM      1  C   UNL     1       1.159   2.671  21.746  0.00  0.00    +0.000 C 
ATOM      2  N   UNL     1       2.017   2.366  20.606  0.00  0.00    +0.000 NA
ATOM      3  C   UNL     1       3.412   2.725  20.943  0.00  0.00    +0.000 C 
ATOM      4  C   UNL     1       4.364   2.550  19.750  0.00  0.00    +0.000 C 
ATOM      5  N   UNL     1       3.921   3.424  18.661  0.00  0.00    +0.000 N 
ATOM      6  C   UNL     1       4.681   4.376  18.010  0.00  0.00    +0.000 C 
ATOM      7  N   UNL     1       4.416   4.748  16.796  0.00  0.00    +0.000 NA
ATOM      8  C   UNL     1       2.581   3.039  18.190  0.00  0.00    +0.000 C 
ATOM      9  C   UNL     1       1.574   3.070  19.376  0.00  0.00    +0.000 C 
ENDROOT
BRANCH   6  10
ATOM     10  S   UNL     1       6.002   5.110  18.937  0.00  0.00    +0.000 S 
ATOM     11  H   UNL     1       6.099   6.231  18.218  0.00  0.00    +0.000 HD
ENDBRANCH   6  10
BRANCH   7  12
ATOM     12  C   UNL     1       5.246   5.771  16.154  0.00  0.00    +0.000 C 
BRANCH  12  13
ATOM     13  C   UNL     1       6.657   5.232  15.903  0.00  0.00    +0.000 C 
BRANCH  13  14
ATOM     14  C   UNL     1       6.807   4.795  14.462  0.00  0.00    +0.000 A 
ATOM     15  C   UNL     1       7.660   5.485  13.590  0.00  0.00    +0.000 A 
ATOM     16  C   UNL     1       7.741   5.123  12.244  0.00  0.00    +0.000 A 
ATOM     17  C   UNL     1       6.968   4.070  11.757  0.00  0.00    +0.000 A 
ATOM     18  C   UNL     1       6.116   3.377  12.616  0.00  0.00    +0.000 A 
ATOM     19  C   UNL     1       6.036   3.737  13.961  0.00  0.00    +0.000 A 
ENDBRANCH  13  14
ENDBRANCH  12  13
ENDBRANCH   7  12
TORSDOF 4
ENDMDL
MODEL 6
REMARK VINA RESULT:      -5.9      5.137      6.769
REMARK  Name = 
REMARK  5 active torsions:
REMARK  status: ('A' for Active; 'I' for Inactive)
REMARK    1  A    between atoms: C_1  and  N_2
REMARK    2  A    between atoms: C_6  and  S_7
REMARK    3  A    between atoms: N_8  and  C_9
REMARK    4  A    between atoms: C_9  and  C_10
REMARK    5  A    between atoms: C_10  and  C_11
REMARK                            x       y       z     vdW  Elec       q    Type
REMARK                         _______ _______ _______ _____ _____    ______ ____
ROOT
ATOM      1  C   UNL     1       0.758   3.113  21.069  0.00  0.00    +0.000 C 
ATOM      2  N   UNL     1       1.723   2.750  20.037  0.00  0.00    +0.000 NA
ATOM      3  C   UNL     1       3.089   2.997  20.546  0.00  0.00    +0.000 C 
ATOM      4  C   UNL     1       4.164   2.758  19.475  0.00  0.00    +0.000 C 
ATOM      5  N   UNL     1       3.926   3.671  18.355  0.00  0.00    +0.000 N 
ATOM      6  C   UNL     1       4.831   4.566  17.818  0.00  0.00    +0.000 C 
ATOM      7  N   UNL     1       4.745   4.967  16.587  0.00  0.00    +0.000 NA
ATOM      8  C   UNL     1       2.628   3.395  17.718  0.00  0.00    +0.000 C 
ATOM      9  C   UNL     1       1.489   3.496  18.773  0.00  0.00    +0.000 C 
ENDROOT
BRANCH   6  10
ATOM     10  S   UNL     1       6.080   5.189  18.911  0.00  0.00    +0.000 S 
ATOM     11  H   UNL     1       5.293   5.349  19.978  0.00  0.00    +0.000 HD
ENDBRANCH   6  10
BRANCH   7  12
ATOM     12  C   UNL     1       5.724   5.927  16.068  0.00  0.00    +0.000 C 
BRANCH  12  13
ATOM     13  C   UNL     1       7.004   5.204  15.640  0.00  0.00    +0.000 C 
BRANCH  13  14
ATOM     14  C   UNL     1       6.904   4.764  14.196  0.00  0.00    +0.000 A 
ATOM     15  C   UNL     1       6.058   3.710  13.826  0.00  0.00    +0.000 A 
ATOM     16  C   UNL     1       6.020   3.261  12.504  0.00  0.00    +0.000 A 
ATOM     17  C   UNL     1       6.832   3.860  11.541  0.00  0.00    +0.000 A 
ATOM     18  C   UNL     1       7.678   4.909  11.898  0.00  0.00    +0.000 A 
ATOM     19  C   UNL     1       7.714   5.359  13.218  0.00  0.00    +0.000 A 
ENDBRANCH  13  14
ENDBRANCH  12  13
ENDBRANCH   7  12
TORSDOF 4
ENDMDL
MODEL 7
REMARK VINA RESULT:      -5.9      6.297      9.100
REMARK  Name = 
REMARK  5 active torsions:
REMARK  status: ('A' for Active; 'I' for Inactive)
REMARK    1  A    between atoms: C_1  and  N_2
REMARK    2  A    between atoms: C_6  and  S_7
REMARK    3  A    between atoms: N_8  and  C_9
REMARK    4  A    between atoms: C_9  and  C_10
REMARK    5  A    between atoms: C_10  and  C_11
REMARK                            x       y       z     vdW  Elec       q    Type
REMARK                         _______ _______ _______ _____ _____    ______ ____
ROOT
ATOM      1  C   UNL     1      -1.789  11.409  23.270  0.00  0.00    +0.000 C 
ATOM      2  N   UNL     1      -0.437  11.104  22.816  0.00  0.00    +0.000 NA
ATOM      3  C   UNL     1      -0.269  11.601  21.434  0.00  0.00    +0.000 C 
ATOM      4  C   UNL     1       1.090  11.210  20.833  0.00  0.00    +0.000 C 
ATOM      5  N   UNL     1       1.190   9.749  20.805  0.00  0.00    +0.000 N 
ATOM      6  C   UNL     1       1.458   8.965  19.700  0.00  0.00    +0.000 C 
ATOM      7  N   UNL     1       2.001   7.792  19.811  0.00  0.00    +0.000 NA
ATOM      8  C   UNL     1       1.156   9.193  22.168  0.00  0.00    +0.000 C 
ATOM      9  C   UNL     1      -0.143   9.650  22.893  0.00  0.00    +0.000 C 
ENDROOT
BRANCH   6  10
ATOM     10  S   UNL     1       0.966   9.614  18.125  0.00  0.00    +0.000 S 
ATOM     11  H   UNL     1      -0.010   8.735  17.887  0.00  0.00    +0.000 HD
ENDBRANCH   6  10
BRANCH   7  12
ATOM     12  C   UNL     1       2.254   6.994  18.607  0.00  0.00    +0.000 C 
BRANCH  12  13
ATOM     13  C   UNL     1       3.549   6.192  18.762  0.00  0.00    +0.000 C 
BRANCH  13  14
ATOM     14  C   UNL     1       3.258   4.708  18.726  0.00  0.00    +0.000 A 
ATOM     15  C   UNL     1       3.828   3.844  19.671  0.00  0.00    +0.000 A 
ATOM     16  C   UNL     1       3.614   2.466  19.592  0.00  0.00    +0.000 A 
ATOM     17  C   UNL     1       2.831   1.940  18.565  0.00  0.00    +0.000 A 
ATOM     18  C   UNL     1       2.259   2.790  17.619  0.00  0.00    +0.000 A 
ATOM     19  C   UNL     1       2.472   4.167  17.699  0.00  0.00    +0.000 A 
ENDBRANCH  13  14
ENDBRANCH  12  13
ENDBRANCH   7  12
TORSDOF 4
ENDMDL
MODEL 8
REMARK VINA RESULT:      -5.8      6.575      9.611
REMARK  Name = 
REMARK  5 active torsions:
REMARK  status: ('A' for Active; 'I' for Inactive)
REMARK    1  A    between atoms: C_1  and  N_2
REMARK    2  A    between atoms: C_6  and  S_7
REMARK    3  A    between atoms: N_8  and  C_9
REMARK    4  A    between atoms: C_9  and  C_10
REMARK    5  A    between atoms: C_10  and  C_11
REMARK                            x       y       z     vdW  Elec       q    Type
REMARK                         _______ _______ _______ _____ _____    ______ ____
ROOT
ATOM      1  C   UNL     1      -0.090  14.438  20.236  0.00  0.00    +0.000 C 
ATOM      2  N   UNL     1      -0.432  13.106  19.749  0.00  0.00    +0.000 NA
ATOM      3  C   UNL     1      -0.619  12.203  20.905  0.00  0.00    +0.000 C 
ATOM      4  C   UNL     1      -0.861  10.748  20.477  0.00  0.00    +0.000 C 
ATOM      5  N   UNL     1       0.303  10.279  19.720  0.00  0.00    +0.000 N 
ATOM      6  C   UNL     1       1.062   9.157  19.991  0.00  0.00    +0.000 C 
ATOM      7  N   UNL     1       1.728   8.544  19.063  0.00  0.00    +0.000 NA
ATOM      8  C   UNL     1       0.475  11.059  18.484  0.00  0.00    +0.000 C 
ATOM      9  C   UNL     1       0.603  12.572  18.826  0.00  0.00    +0.000 C 
ENDROOT
BRANCH   6  10
ATOM     10  S   UNL     1       1.131   8.632  21.683  0.00  0.00    +0.000 S 
ATOM     11  H   UNL     1      -0.152   8.280  21.794  0.00  0.00    +0.000 HD
ENDBRANCH   6  10
BRANCH   7  12
ATOM     12  C   UNL     1       2.529   7.364  19.404  0.00  0.00    +0.000 C 
BRANCH  12  13
ATOM     13  C   UNL     1       2.451   6.325  18.282  0.00  0.00    +0.000 C 
BRANCH  13  14
ATOM     14  C   UNL     1       1.904   5.017  18.810  0.00  0.00    +0.000 A 
ATOM     15  C   UNL     1       1.622   4.859  20.173  0.00  0.00    +0.000 A 
ATOM     16  C   UNL     1       1.183   3.629  20.669  0.00  0.00    +0.000 A 
ATOM     17  C   UNL     1       1.027   2.546  19.805  0.00  0.00    +0.000 A 
ATOM     18  C   UNL     1       1.306   2.692  18.447  0.00  0.00    +0.000 A 
ATOM     19  C   UNL     1       1.742   3.921  17.952  0.00  0.00    +0.000 A 
ENDBRANCH  13  14
ENDBRANCH  12  13
ENDBRANCH   7  12
TORSDOF 4
ENDMDL
MODEL 9
REMARK VINA RESULT:      -5.7      4.777      7.998
REMARK  Name = 
REMARK  5 active torsions:
REMARK  status: ('A' for Active; 'I' for Inactive)
REMARK    1  A    between atoms: C_1  and  N_2
REMARK    2  A    between atoms: C_6  and  S_7
REMARK    3  A    between atoms: N_8  and  C_9
REMARK    4  A    between atoms: C_9  and  C_10
REMARK    5  A    between atoms: C_10  and  C_11
REMARK                            x       y       z     vdW  Elec       q    Type
REMARK                         _______ _______ _______ _____ _____    ______ ____
ROOT
ATOM      1  C   UNL     1       6.592   3.932  13.358  0.00  0.00    +0.000 C 
ATOM      2  N   UNL     1       6.629   4.985  14.368  0.00  0.00    +0.000 NA
ATOM      3  C   UNL     1       7.069   4.403  15.655  0.00  0.00    +0.000 C 
ATOM      4  C   UNL     1       7.016   5.421  16.804  0.00  0.00    +0.000 C 
ATOM      5  N   UNL     1       5.634   5.881  16.963  0.00  0.00    +0.000 N 
ATOM      6  C   UNL     1       4.884   5.843  18.123  0.00  0.00    +0.000 C 
ATOM      7  N   UNL     1       3.905   6.668  18.329  0.00  0.00    +0.000 NA
ATOM      8  C   UNL     1       5.171   6.584  15.756  0.00  0.00    +0.000 C 
ATOM      9  C   UNL     1       5.311   5.655  14.516  0.00  0.00    +0.000 C 
ENDROOT
BRANCH   6  10
ATOM     10  S   UNL     1       5.285   4.569  19.289  0.00  0.00    +0.000 S 
ATOM     11  H   UNL     1       4.273   3.752  18.988  0.00  0.00    +0.000 HD
ENDBRANCH   6  10
BRANCH   7  12
ATOM     12  C   UNL     1       3.132   6.579  19.572  0.00  0.00    +0.000 C 
BRANCH  12  13
ATOM     13  C   UNL     1       1.689   6.163  19.273  0.00  0.00    +0.000 C 
BRANCH  13  14
ATOM     14  C   UNL     1       1.539   4.662  19.384  0.00  0.00    +0.000 A 
ATOM     15  C   UNL     1       1.357   4.052  20.633  0.00  0.00    +0.000 A 
ATOM     16  C   UNL     1       1.290   2.661  20.739  0.00  0.00    +0.000 A 
ATOM     17  C   UNL     1       1.408   1.868  19.598  0.00  0.00    +0.000 A 
ATOM     18  C   UNL     1       1.590   2.464  18.351  0.00  0.00    +0.000 A 
ATOM     19  C   UNL     1       1.655   3.854  18.244  0.00  0.00    +0.000 A 
ENDBRANCH  13  14
ENDBRANCH  12  13
ENDBRANCH   7  12
TORSDOF 4
ENDMDL
