MODEL 1
REMARK VINA RESULT:      -6.5      0.000      0.000
REMARK  Name = 
REMARK  6 active torsions:
REMARK  status: ('A' for Active; 'I' for Inactive)
REMARK    1  A    between atoms: C_1  and  C_2
REMARK    2  A    between atoms: CA_3  and  C_4
REMARK    3  A    between atoms: C_4  and  OXT_6
REMARK    4  A    between atoms: CA_10  and  N_11
REMARK    5  A    between atoms: C_12  and  C_14
REMARK    6  A    between atoms: C_14  and  C_15
REMARK                            x       y       z     vdW  Elec       q    Type
REMARK                         _______ _______ _______ _____ _____    ______ ____
ROOT
ATOM      1  C   UNL     1       5.626   3.990  18.076  0.00  0.00    +0.000 C 
ATOM      2  C   UNL     1       4.147   3.779  18.334  0.00  0.00    +0.000 C 
ATOM      3  CA  UNL     1       3.649   2.958  19.299  0.00  0.00    +0.000 C 
ATOM      4  N   UNL     1       2.361   3.119  19.859  0.00  0.00    +0.000 N 
ATOM      5  C   UNL     1       2.361   3.711  21.114  0.00  0.00    +0.000 C 
ATOM      6  O   UNL     1       2.406   3.200  22.208  0.00  0.00    +0.000 OA
ATOM      7  CA  UNL     1       2.310   5.125  20.430  0.00  0.00    +0.000 C 
ATOM      8  C   UNL     1       1.524   4.278  19.389  0.00  0.00    +0.000 C 
ATOM      9  S   UNL     1       1.591   4.594  17.639  0.00  0.00    +0.000 S 
ATOM     10  C   UNL     1       3.353   4.730  17.476  0.00  0.00    +0.000 C 
ENDROOT
BRANCH   7  11
ATOM     11  N   UNL     1       1.606   6.224  21.118  0.00  0.00    +0.000 N 
ATOM     12  C   UNL     1       1.745   7.492  20.583  0.00  0.00    +0.000 C 
ATOM     13  O   UNL     1       2.273   7.683  19.487  0.00  0.00    +0.000 OA
ATOM     14  H   UNL     1       1.498   6.176  22.131  0.00  0.00    +0.000 HD
BRANCH  12  15
ATOM     15  C   UNL     1       1.229   8.614  21.452  0.00  0.00    +0.000 C 
BRANCH  15  16
ATOM     16  C   UNL     1       0.525   9.629  20.604  0.00  0.00    +0.000 A 
ATOM     17  C   UNL     1      -0.741   9.558  20.058  0.00  0.00    +0.000 A 
ATOM     18  C   UNL     1      -1.086  10.731  19.328  0.00  0.00    +0.000 A 
ATOM     19  C   UNL     1      -0.070  11.658  19.333  0.00  0.00    +0.000 A 
ATOM     20  S   UNL     1       1.291  11.113  20.215  0.00  0.00    +0.000 S 
ENDBRANCH  15  16
ENDBRANCH  12  15
ENDBRANCH   7  11
BRANCH   3  21
ATOM     21  C   UNL     1       4.537   1.916  19.968  0.00  0.00    +0.000 C 
ATOM     22  O   UNL     1       5.122   2.071  21.027  0.00  0.00    +0.000 OA
BRANCH  21  23
ATOM     23  OXT UNL     1       4.685   0.783  19.248  0.00  0.00    +0.000 OA
ATOM     24  HXT UNL     1       5.537   0.697  18.773  0.00  0.00    +0.000 HD
ENDBRANCH  21  23
ENDBRANCH   3  21
TORSDOF 5
ENDMDL
MODEL 2
REMARK VINA RESULT:      -6.2      2.604      3.212
REMARK  Name = 
REMARK  6 active torsions:
REMARK  status: ('A' for Active; 'I' for Inactive)
REMARK    1  A    between atoms: C_1  and  C_2
REMARK    2  A    between atoms: CA_3  and  C_4
REMARK    3  A    between atoms: C_4  and  OXT_6
REMARK    4  A    between atoms: CA_10  and  N_11
REMARK    5  A    between atoms: C_12  and  C_14
REMARK    6  A    between atoms: C_14  and  C_15
REMARK                            x       y       z     vdW  Elec       q    Type
REMARK                         _______ _______ _______ _____ _____    ______ ____
ROOT
ATOM      1  C   UNL     1       5.013   4.691  14.961  0.00  0.00    +0.000 C 
ATOM      2  C   UNL     1       4.945   4.046  16.331  0.00  0.00    +0.000 C 
ATOM      3  CA  UNL     1       5.943   4.107  17.254  0.00  0.00    +0.000 C 
ATOM      4  N   UNL     1       5.720   3.955  18.642  0.00  0.00    +0.000 N 
ATOM      5  C   UNL     1       5.719   5.149  19.349  0.00  0.00    +0.000 C 
ATOM      6  O   UNL     1       6.630   5.721  19.899  0.00  0.00    +0.000 OA
ATOM      7  CA  UNL     1       4.182   5.303  19.054  0.00  0.00    +0.000 C 
ATOM      8  C   UNL     1       4.305   3.754  19.115  0.00  0.00    +0.000 C 
ATOM      9  S   UNL     1       3.321   2.669  18.104  0.00  0.00    +0.000 S 
ATOM     10  C   UNL     1       3.563   3.486  16.548  0.00  0.00    +0.000 C 
ENDROOT
BRANCH   7  11
ATOM     11  N   UNL     1       3.331   5.981  20.051  0.00  0.00    +0.000 N 
ATOM     12  C   UNL     1       2.449   6.936  19.579  0.00  0.00    +0.000 C 
ATOM     13  O   UNL     1       2.242   7.095  18.375  0.00  0.00    +0.000 OA
ATOM     14  H   UNL     1       3.708   6.143  20.985  0.00  0.00    +0.000 HD
BRANCH  12  15
ATOM     15  C   UNL     1       1.788   7.780  20.643  0.00  0.00    +0.000 C 
BRANCH  15  16
ATOM     16  C   UNL     1       1.094   8.945  20.007  0.00  0.00    +0.000 A 
ATOM     17  C   UNL     1       1.357   9.537  18.789  0.00  0.00    +0.000 A 
ATOM     18  C   UNL     1       0.467  10.612  18.501  0.00  0.00    +0.000 A 
ATOM     19  C   UNL     1      -0.443  10.810  19.513  0.00  0.00    +0.000 A 
ATOM     20  S   UNL     1      -0.223   9.706  20.801  0.00  0.00    +0.000 S 
ENDBRANCH  15  16
ENDBRANCH  12  15
ENDBRANCH   7  11
BRANCH   3  21
ATOM     21  C   UNL     1       7.350   4.534  16.853  0.00  0.00    +0.000 C 
ATOM     22  O   UNL     1       7.627   5.190  15.863  0.00  0.00    +0.000 OA
BRANCH  21  23
ATOM     23  OXT UNL     1       8.316   4.064  17.672  0.00  0.00    +0.000 OA
ATOM     24  HXT UNL     1       8.263   4.370  18.600  0.00  0.00    +0.000 HD
ENDBRANCH  21  23
ENDBRANCH   3  21
TORSDOF 5
ENDMDL
MODEL 3
REMARK VINA RESULT:      -6.2      4.221      7.486
REMARK  Name = 
REMARK  6 active torsions:
REMARK  status: ('A' for Active; 'I' for Inactive)
REMARK    1  A    between atoms: C_1  and  C_2
REMARK    2  A    between atoms: CA_3  and  C_4
REMARK    3  A    between atoms: C_4  and  OXT_6
REMARK    4  A    between atoms: CA_10  and  N_11
REMARK    5  A    between atoms: C_12  and  C_14
REMARK    6  A    between atoms: C_14  and  C_15
REMARK                            x       y       z     vdW  Elec       q    Type
REMARK                         _______ _______ _______ _____ _____    ______ ____
ROOT
ATOM      1  C   UNL     1       2.326   7.016  18.330  0.00  0.00    +0.000 C 
ATOM      2  C   UNL     1       3.328   5.942  18.707  0.00  0.00    +0.000 C 
ATOM      3  CA  UNL     1       3.018   4.623  18.845  0.00  0.00    +0.000 C 
ATOM      4  N   UNL     1       3.973   3.589  18.709  0.00  0.00    +0.000 N 
ATOM      5  C   UNL     1       3.917   2.925  17.491  0.00  0.00    +0.000 C 
ATOM      6  O   UNL     1       3.297   1.936  17.179  0.00  0.00    +0.000 OA
ATOM      7  CA  UNL     1       4.895   3.995  16.882  0.00  0.00    +0.000 C 
ATOM      8  C   UNL     1       5.386   3.970  18.358  0.00  0.00    +0.000 C 
ATOM      9  S   UNL     1       6.005   5.415  19.192  0.00  0.00    +0.000 S 
ATOM     10  C   UNL     1       4.710   6.541  18.740  0.00  0.00    +0.000 C 
ENDROOT
BRANCH   7  11
ATOM     11  N   UNL     1       5.834   3.578  15.822  0.00  0.00    +0.000 N 
ATOM     12  C   UNL     1       6.243   4.551  14.927  0.00  0.00    +0.000 C 
ATOM     13  O   UNL     1       5.992   5.745  15.101  0.00  0.00    +0.000 OA
ATOM     14  H   UNL     1       5.762   2.632  15.450  0.00  0.00    +0.000 HD
BRANCH  12  15
ATOM     15  C   UNL     1       6.989   4.038  13.719  0.00  0.00    +0.000 C 
BRANCH  15  16
ATOM     16  C   UNL     1       6.020   3.468  12.729  0.00  0.00    +0.000 A 
ATOM     17  C   UNL     1       4.759   3.926  12.407  0.00  0.00    +0.000 A 
ATOM     18  C   UNL     1       4.136   3.141  11.394  0.00  0.00    +0.000 A 
ATOM     19  C   UNL     1       4.940   2.104  10.981  0.00  0.00    +0.000 A 
ATOM     20  S   UNL     1       6.434   2.080  11.812  0.00  0.00    +0.000 S 
ENDBRANCH  15  16
ENDBRANCH  12  15
ENDBRANCH   7  11
BRANCH   3  21
ATOM     21  C   UNL     1       1.568   4.173  18.972  0.00  0.00    +0.000 C 
ATOM     22  O   UNL     1       0.956   4.072  20.022  0.00  0.00    +0.000 OA
BRANCH  21  23
ATOM     23  OXT UNL     1       1.002   3.823  17.797  0.00  0.00    +0.000 OA
ATOM     24  HXT UNL     1       0.519   2.971  17.802  0.00  0.00    +0.000 HD
ENDBRANCH  21  23
ENDBRANCH   3  21
TORSDOF 5
ENDMDL
MODEL 4
REMARK VINA RESULT:      -6.1      3.501      6.677
REMARK  Name = 
REMARK  6 active torsions:
REMARK  status: ('A' for Active; 'I' for Inactive)
REMARK    1  A    between atoms: C_1  and  C_2
REMARK    2  A    between atoms: CA_3  and  C_4
REMARK    3  A    between atoms: C_4  and  OXT_6
REMARK    4  A    between atoms: CA_10  and  N_11
REMARK    5  A    between atoms: C_12  and  C_14
REMARK    6  A    between atoms: C_14  and  C_15
REMARK                            x       y       z     vdW  Elec       q    Type
REMARK                         _______ _______ _______ _____ _____    ______ ____
ROOT
ATOM      1  C   UNL     1       0.592   3.760  17.809  0.00  0.00    +0.000 C 
ATOM      2  C   UNL     1       1.699   4.387  18.633  0.00  0.00    +0.000 C 
ATOM      3  CA  UNL     1       2.379   3.738  19.618  0.00  0.00    +0.000 C 
ATOM      4  N   UNL     1       3.677   4.114  20.034  0.00  0.00    +0.000 N 
ATOM      5  C   UNL     1       4.687   3.302  19.537  0.00  0.00    +0.000 C 
ATOM      6  O   UNL     1       5.186   2.311  20.014  0.00  0.00    +0.000 OA
ATOM      7  CA  UNL     1       4.765   4.212  18.256  0.00  0.00    +0.000 C 
ATOM      8  C   UNL     1       4.345   5.261  19.325  0.00  0.00    +0.000 C 
ATOM      9  S   UNL     1       3.281   6.639  18.956  0.00  0.00    +0.000 S 
ATOM     10  C   UNL     1       2.015   5.753  18.082  0.00  0.00    +0.000 C 
ENDROOT
BRANCH   7  11
ATOM     11  N   UNL     1       6.066   4.379  17.581  0.00  0.00    +0.000 N 
ATOM     12  C   UNL     1       6.085   5.159  16.438  0.00  0.00    +0.000 C 
ATOM     13  O   UNL     1       5.115   5.834  16.093  0.00  0.00    +0.000 OA
ATOM     14  H   UNL     1       6.732   3.607  17.606  0.00  0.00    +0.000 HD
BRANCH  12  15
ATOM     15  C   UNL     1       7.366   5.095  15.640  0.00  0.00    +0.000 C 
BRANCH  15  16
ATOM     16  C   UNL     1       7.078   4.596  14.258  0.00  0.00    +0.000 A 
ATOM     17  C   UNL     1       6.133   3.672  13.862  0.00  0.00    +0.000 A 
ATOM     18  C   UNL     1       6.130   3.465  12.452  0.00  0.00    +0.000 A 
ATOM     19  C   UNL     1       7.079   4.233  11.818  0.00  0.00    +0.000 A 
ATOM     20  S   UNL     1       7.966   5.196  12.918  0.00  0.00    +0.000 S 
ENDBRANCH  15  16
ENDBRANCH  12  15
ENDBRANCH   7  11
BRANCH   3  21
ATOM     21  C   UNL     1       1.846   2.438  20.205  0.00  0.00    +0.000 C 
ATOM     22  O   UNL     1       1.483   2.288  21.360  0.00  0.00    +0.000 OA
BRANCH  21  23
ATOM     23  OXT UNL     1       1.859   1.403  19.338  0.00  0.00    +0.000 OA
ATOM     24  HXT UNL     1       1.003   1.211  18.902  0.00  0.00    +0.000 HD
ENDBRANCH  21  23
ENDBRANCH   3  21
TORSDOF 5
ENDMDL
MODEL 5
REMARK VINA RESULT:      -5.8      3.425      6.747
REMARK  Name = 
REMARK  6 active torsions:
REMARK  status: ('A' for Active; 'I' for Inactive)
REMARK    1  A    between atoms: C_1  and  C_2
REMARK    2  A    between atoms: CA_3  and  C_4
REMARK    3  A    between atoms: C_4  and  OXT_6
REMARK    4  A    between atoms: CA_10  and  N_11
REMARK    5  A    between atoms: C_12  and  C_14
REMARK    6  A    between atoms: C_14  and  C_15
REMARK                            x       y       z     vdW  Elec       q    Type
REMARK                         _______ _______ _______ _____ _____    ______ ____
ROOT
ATOM      1  C   UNL     1       0.620   3.808  17.665  0.00  0.00    +0.000 C 
ATOM      2  C   UNL     1       1.701   4.438  18.521  0.00  0.00    +0.000 C 
ATOM      3  CA  UNL     1       2.366   3.786  19.514  0.00  0.00    +0.000 C 
ATOM      4  N   UNL     1       3.650   4.172  19.964  0.00  0.00    +0.000 N 
ATOM      5  C   UNL     1       4.680   3.377  19.481  0.00  0.00    +0.000 C 
ATOM      6  O   UNL     1       5.178   2.386  19.960  0.00  0.00    +0.000 OA
ATOM      7  CA  UNL     1       4.777   4.301  18.213  0.00  0.00    +0.000 C 
ATOM      8  C   UNL     1       4.320   5.334  19.282  0.00  0.00    +0.000 C 
ATOM      9  S   UNL     1       3.250   6.704  18.902  0.00  0.00    +0.000 S 
ATOM     10  C   UNL     1       2.014   5.814  17.991  0.00  0.00    +0.000 C 
ENDROOT
BRANCH   7  11
ATOM     11  N   UNL     1       6.091   4.489  17.569  0.00  0.00    +0.000 N 
ATOM     12  C   UNL     1       6.126   5.276  16.431  0.00  0.00    +0.000 C 
ATOM     13  O   UNL     1       5.155   5.940  16.067  0.00  0.00    +0.000 OA
ATOM     14  H   UNL     1       6.767   3.726  17.605  0.00  0.00    +0.000 HD
BRANCH  12  15
ATOM     15  C   UNL     1       7.426   5.234  15.663  0.00  0.00    +0.000 C 
BRANCH  15  16
ATOM     16  C   UNL     1       7.173   4.770  14.262  0.00  0.00    +0.000 A 
ATOM     17  C   UNL     1       7.788   5.187  13.099  0.00  0.00    +0.000 A 
ATOM     18  C   UNL     1       7.303   4.498  11.949  0.00  0.00    +0.000 A 
ATOM     19  C   UNL     1       6.327   3.585  12.271  0.00  0.00    +0.000 A 
ATOM     20  S   UNL     1       6.000   3.559  13.949  0.00  0.00    +0.000 S 
ENDBRANCH  15  16
ENDBRANCH  12  15
ENDBRANCH   7  11
BRANCH   3  21
ATOM     21  C   UNL     1       1.834   2.474  20.076  0.00  0.00    +0.000 C 
ATOM     22  O   UNL     1       1.779   1.421  19.464  0.00  0.00    +0.000 OA
BRANCH  21  23
ATOM     23  OXT UNL     1       1.351   2.577  21.333  0.00  0.00    +0.000 OA
ATOM     24  HXT UNL     1       0.857   1.796  21.657  0.00  0.00    +0.000 HD
ENDBRANCH  21  23
ENDBRANCH   3  21
TORSDOF 5
ENDMDL
MODEL 6
REMARK VINA RESULT:      -5.8      0.848      1.047
REMARK  Name = 
REMARK  6 active torsions:
REMARK  status: ('A' for Active; 'I' for Inactive)
REMARK    1  A    between atoms: C_1  and  C_2
REMARK    2  A    between atoms: CA_3  and  C_4
REMARK    3  A    between atoms: C_4  and  OXT_6
REMARK    4  A    between atoms: CA_10  and  N_11
REMARK    5  A    between atoms: C_12  and  C_14
REMARK    6  A    between atoms: C_14  and  C_15
REMARK                            x       y       z     vdW  Elec       q    Type
REMARK                         _______ _______ _______ _____ _____    ______ ____
ROOT
ATOM      1  C   UNL     1       6.049   4.498  18.932  0.00  0.00    +0.000 C 
ATOM      2  C   UNL     1       4.551   4.301  18.805  0.00  0.00    +0.000 C 
ATOM      3  CA  UNL     1       3.844   3.361  19.490  0.00  0.00    +0.000 C 
ATOM      4  N   UNL     1       2.460   3.478  19.756  0.00  0.00    +0.000 N 
ATOM      5  C   UNL     1       2.166   3.874  21.053  0.00  0.00    +0.000 C 
ATOM      6  O   UNL     1       1.955   3.203  22.035  0.00  0.00    +0.000 OA
ATOM      7  CA  UNL     1       2.272   5.377  20.601  0.00  0.00    +0.000 C 
ATOM      8  C   UNL     1       1.753   4.722  19.290  0.00  0.00    +0.000 C 
ATOM      9  S   UNL     1       2.226   5.296  17.673  0.00  0.00    +0.000 S 
ATOM     10  C   UNL     1       3.977   5.396  17.944  0.00  0.00    +0.000 C 
ENDROOT
BRANCH   7  11
ATOM     11  N   UNL     1       1.423   6.382  21.270  0.00  0.00    +0.000 N 
ATOM     12  C   UNL     1       1.499   7.681  20.799  0.00  0.00    +0.000 C 
ATOM     13  O   UNL     1       2.099   7.965  19.761  0.00  0.00    +0.000 OA
ATOM     14  H   UNL     1       1.236   6.278  22.267  0.00  0.00    +0.000 HD
BRANCH  12  15
ATOM     15  C   UNL     1       0.821   8.716  21.664  0.00  0.00    +0.000 C 
BRANCH  15  16
ATOM     16  C   UNL     1       0.539   9.946  20.856  0.00  0.00    +0.000 A 
ATOM     17  C   UNL     1       1.177  11.168  20.907  0.00  0.00    +0.000 A 
ATOM     18  C   UNL     1       0.651  12.098  19.965  0.00  0.00    +0.000 A 
ATOM     19  C   UNL     1      -0.378  11.558  19.230  0.00  0.00    +0.000 A 
ATOM     20  S   UNL     1      -0.705   9.940  19.675  0.00  0.00    +0.000 S 
ENDBRANCH  15  16
ENDBRANCH  12  15
ENDBRANCH   7  11
BRANCH   3  21
ATOM     21  C   UNL     1       4.554   2.201  20.178  0.00  0.00    +0.000 C 
ATOM     22  O   UNL     1       4.944   2.205  21.333  0.00  0.00    +0.000 OA
BRANCH  21  23
ATOM     23  OXT UNL     1       4.784   1.146  19.367  0.00  0.00    +0.000 OA
ATOM     24  HXT UNL     1       4.769   1.343  18.408  0.00  0.00    +0.000 HD
ENDBRANCH  21  23
ENDBRANCH   3  21
TORSDOF 5
ENDMDL
MODEL 7
REMARK VINA RESULT:      -5.7      3.588      6.796
REMARK  Name = 
REMARK  6 active torsions:
REMARK  status: ('A' for Active; 'I' for Inactive)
REMARK    1  A    between atoms: C_1  and  C_2
REMARK    2  A    between atoms: CA_3  and  C_4
REMARK    3  A    between atoms: C_4  and  OXT_6
REMARK    4  A    between atoms: CA_10  and  N_11
REMARK    5  A    between atoms: C_12  and  C_14
REMARK    6  A    between atoms: C_14  and  C_15
REMARK                            x       y       z     vdW  Elec       q    Type
REMARK                         _______ _______ _______ _____ _____    ______ ____
ROOT
ATOM      1  C   UNL     1       1.329   2.142  18.775  0.00  0.00    +0.000 C 
ATOM      2  C   UNL     1       1.874   3.531  19.043  0.00  0.00    +0.000 C 
ATOM      3  CA  UNL     1       2.844   3.808  19.957  0.00  0.00    +0.000 C 
ATOM      4  N   UNL     1       3.677   4.948  19.877  0.00  0.00    +0.000 N 
ATOM      5  C   UNL     1       4.952   4.683  19.397  0.00  0.00    +0.000 C 
ATOM      6  O   UNL     1       5.961   4.404  20.000  0.00  0.00    +0.000 OA
ATOM      7  CA  UNL     1       4.424   4.886  17.930  0.00  0.00    +0.000 C 
ATOM      8  C   UNL     1       3.502   5.872  18.702  0.00  0.00    +0.000 C 
ATOM      9  S   UNL     1       1.813   6.180  18.232  0.00  0.00    +0.000 S 
ATOM     10  C   UNL     1       1.293   4.494  18.040  0.00  0.00    +0.000 C 
ENDROOT
BRANCH   7  11
ATOM     11  N   UNL     1       5.343   5.433  16.913  0.00  0.00    +0.000 N 
ATOM     12  C   UNL     1       6.042   4.521  16.142  0.00  0.00    +0.000 C 
ATOM     13  O   UNL     1       5.786   3.316  16.165  0.00  0.00    +0.000 OA
ATOM     14  H   UNL     1       5.822   6.311  17.109  0.00  0.00    +0.000 HD
BRANCH  12  15
ATOM     15  C   UNL     1       7.150   5.109  15.301  0.00  0.00    +0.000 C 
BRANCH  15  16
ATOM     16  C   UNL     1       7.014   4.641  13.884  0.00  0.00    +0.000 A 
ATOM     17  C   UNL     1       6.137   3.705  13.373  0.00  0.00    +0.000 A 
ATOM     18  C   UNL     1       6.280   3.536  11.966  0.00  0.00    +0.000 A 
ATOM     19  C   UNL     1       7.268   4.343  11.449  0.00  0.00    +0.000 A 
ATOM     20  S   UNL     1       8.015   5.296  12.656  0.00  0.00    +0.000 S 
ENDBRANCH  15  16
ENDBRANCH  12  15
ENDBRANCH   7  11
BRANCH   3  21
ATOM     21  C   UNL     1       3.213   2.793  21.031  0.00  0.00    +0.000 C 
ATOM     22  O   UNL     1       2.661   2.686  22.114  0.00  0.00    +0.000 OA
BRANCH  21  23
ATOM     23  OXT UNL     1       4.278   2.026  20.713  0.00  0.00    +0.000 OA
ATOM     24  HXT UNL     1       4.680   2.209  19.838  0.00  0.00    +0.000 HD
ENDBRANCH  21  23
ENDBRANCH   3  21
TORSDOF 5
ENDMDL
MODEL 8
REMARK VINA RESULT:      -5.7      2.230      3.122
REMARK  Name = 
REMARK  6 active torsions:
REMARK  status: ('A' for Active; 'I' for Inactive)
REMARK    1  A    between atoms: C_1  and  C_2
REMARK    2  A    between atoms: CA_3  and  C_4
REMARK    3  A    between atoms: C_4  and  OXT_6
REMARK    4  A    between atoms: CA_10  and  N_11
REMARK    5  A    between atoms: C_12  and  C_14
REMARK    6  A    between atoms: C_14  and  C_15
REMARK                            x       y       z     vdW  Elec       q    Type
REMARK                         _______ _______ _______ _____ _____    ______ ____
ROOT
ATOM      1  C   UNL     1       0.351   2.631  18.944  0.00  0.00    +0.000 C 
ATOM      2  C   UNL     1       1.579   3.405  19.384  0.00  0.00    +0.000 C 
ATOM      3  CA  UNL     1       2.801   3.299  18.793  0.00  0.00    +0.000 C 
ATOM      4  N   UNL     1       3.778   4.319  18.855  0.00  0.00    +0.000 N 
ATOM      5  C   UNL     1       3.876   5.078  17.698  0.00  0.00    +0.000 C 
ATOM      6  O   UNL     1       4.584   4.923  16.731  0.00  0.00    +0.000 OA
ATOM      7  CA  UNL     1       2.754   6.032  18.247  0.00  0.00    +0.000 C 
ATOM      8  C   UNL     1       3.429   5.592  19.577  0.00  0.00    +0.000 C 
ATOM      9  S   UNL     1       2.521   5.373  21.092  0.00  0.00    +0.000 S 
ATOM     10  C   UNL     1       1.186   4.398  20.447  0.00  0.00    +0.000 C 
ENDROOT
BRANCH   7  11
ATOM     11  N   UNL     1       2.791   7.461  17.879  0.00  0.00    +0.000 N 
ATOM     12  C   UNL     1       2.003   8.322  18.622  0.00  0.00    +0.000 C 
ATOM     13  O   UNL     1       1.438   7.961  19.655  0.00  0.00    +0.000 OA
ATOM     14  H   UNL     1       2.922   7.709  16.898  0.00  0.00    +0.000 HD
BRANCH  12  15
ATOM     15  C   UNL     1       1.870   9.716  18.058  0.00  0.00    +0.000 C 
BRANCH  15  16
ATOM     16  C   UNL     1       0.526  10.278  18.407  0.00  0.00    +0.000 A 
ATOM     17  C   UNL     1      -0.698   9.981  17.842  0.00  0.00    +0.000 A 
ATOM     18  C   UNL     1      -1.768  10.696  18.454  0.00  0.00    +0.000 A 
ATOM     19  C   UNL     1      -1.325  11.521  19.461  0.00  0.00    +0.000 A 
ATOM     20  S   UNL     1       0.370  11.433  19.665  0.00  0.00    +0.000 S 
ENDBRANCH  15  16
ENDBRANCH  12  15
ENDBRANCH   7  11
BRANCH   3  21
ATOM     21  C   UNL     1       3.117   2.135  17.863  0.00  0.00    +0.000 C 
ATOM     22  O   UNL     1       2.606   1.952  16.770  0.00  0.00    +0.000 OA
BRANCH  21  23
ATOM     23  OXT UNL     1       3.995   1.248  18.379  0.00  0.00    +0.000 OA
ATOM     24  HXT UNL     1       4.618   0.851  17.735  0.00  0.00    +0.000 HD
ENDBRANCH  21  23
ENDBRANCH   3  21
TORSDOF 5
ENDMDL
MODEL 9
REMARK VINA RESULT:      -5.6      6.741      8.716
REMARK  Name = 
REMARK  6 active torsions:
REMARK  status: ('A' for Active; 'I' for Inactive)
REMARK    1  A    between atoms: C_1  and  C_2
REMARK    2  A    between atoms: CA_3  and  C_4
REMARK    3  A    between atoms: C_4  and  OXT_6
REMARK    4  A    between atoms: CA_10  and  N_11
REMARK    5  A    between atoms: C_12  and  C_14
REMARK    6  A    between atoms: C_14  and  C_15
REMARK                            x       y       z     vdW  Elec       q    Type
REMARK                         _______ _______ _______ _____ _____    ______ ____
ROOT
ATOM      1  C   UNL     1       2.005   9.962  18.043  0.00  0.00    +0.000 C 
ATOM      2  C   UNL     1       1.287  10.759  19.115  0.00  0.00    +0.000 C 
ATOM      3  CA  UNL     1       1.354  12.113  19.234  0.00  0.00    +0.000 C 
ATOM      4  N   UNL     1       0.354  12.881  19.874  0.00  0.00    +0.000 N 
ATOM      5  C   UNL     1      -0.503  13.535  19.000  0.00  0.00    +0.000 C 
ATOM      6  O   UNL     1      -0.425  14.645  18.530  0.00  0.00    +0.000 OA
ATOM      7  CA  UNL     1      -1.417  12.256  18.966  0.00  0.00    +0.000 C 
ATOM      8  C   UNL     1      -0.854  12.164  20.413  0.00  0.00    +0.000 C 
ATOM      9  S   UNL     1      -0.513  10.613  21.217  0.00  0.00    +0.000 S 
ATOM     10  C   UNL     1       0.387   9.838  19.898  0.00  0.00    +0.000 C 
ENDROOT
BRANCH   7  11
ATOM     11  N   UNL     1      -2.872  12.427  18.787  0.00  0.00    +0.000 N 
ATOM     12  C   UNL     1      -3.532  11.458  18.053  0.00  0.00    +0.000 C 
ATOM     13  O   UNL     1      -2.984  10.408  17.716  0.00  0.00    +0.000 OA
ATOM     14  H   UNL     1      -3.248  13.372  18.719  0.00  0.00    +0.000 HD
BRANCH  12  15
ATOM     15  C   UNL     1      -4.955  11.798  17.677  0.00  0.00    +0.000 C 
BRANCH  15  16
ATOM     16  C   UNL     1      -5.852  11.605  18.861  0.00  0.00    +0.000 A 
ATOM     17  C   UNL     1      -6.123  12.493  19.882  0.00  0.00    +0.000 A 
ATOM     18  C   UNL     1      -7.052  11.969  20.828  0.00  0.00    +0.000 A 
ATOM     19  C   UNL     1      -7.454  10.695  20.501  0.00  0.00    +0.000 A 
ATOM     20  S   UNL     1      -6.715  10.136  19.064  0.00  0.00    +0.000 S 
ENDBRANCH  15  16
ENDBRANCH  12  15
ENDBRANCH   7  11
BRANCH   3  21
ATOM     21  C   UNL     1       2.435  12.905  18.510  0.00  0.00    +0.000 C 
ATOM     22  O   UNL     1       3.275  13.604  19.054  0.00  0.00    +0.000 OA
BRANCH  21  23
ATOM     23  OXT UNL     1       2.360  12.825  17.164  0.00  0.00    +0.000 OA
ATOM     24  HXT UNL     1       1.572  12.359  16.815  0.00  0.00    +0.000 HD
ENDBRANCH  21  23
ENDBRANCH   3  21
TORSDOF 5
ENDMDL
