MODEL 1
REMARK VINA RESULT:      -4.9      0.000      0.000
REMARK  Name = 
REMARK  0 active torsions:
REMARK  status: ('A' for Active; 'I' for Inactive)
REMARK                            x       y       z     vdW  Elec       q    Type
REMARK                         _______ _______ _______ _____ _____    ______ ____
ROOT
ATOM      1  O   UNL     1       3.696   1.377  18.391  0.00  0.00    +0.000 OA
ATOM      2  S   UNL     1       4.101   2.281  19.447  0.00  0.00    +0.000 S 
ATOM      3  O   UNL     1       5.046   1.828  20.454  0.00  0.00    +0.000 OA
ATOM      4  C   UNL     1       4.801   3.758  18.726  0.00  0.00    +0.000 C 
ATOM      5  S   UNL     1       3.772   4.681  17.555  0.00  0.00    +0.000 S 
ATOM      6  C   UNL     1       2.374   5.063  18.642  0.00  0.00    +0.000 C 
ATOM      7  S   UNL     1       1.492   3.688  19.366  0.00  0.00    +0.000 S 
ATOM      8  O   UNL     1       1.007   2.823  18.312  0.00  0.00    +0.000 OA
ATOM      9  O   UNL     1       0.549   4.259  20.314  0.00  0.00    +0.000 OA
ATOM     10  C   UNL     1       2.690   2.841  20.324  0.00  0.00    +0.000 C 
ENDROOT
TORSDOF 0
ENDMDL
MODEL 2
REMARK VINA RESULT:      -4.8      4.402      5.254
REMARK  Name = 
REMARK  0 active torsions:
REMARK  status: ('A' for Active; 'I' for Inactive)
REMARK                            x       y       z     vdW  Elec       q    Type
REMARK                         _______ _______ _______ _____ _____    ______ ____
ROOT
ATOM      1  O   UNL     1       7.146   7.033  17.951  0.00  0.00    +0.000 OA
ATOM      2  S   UNL     1       7.150   5.661  18.412  0.00  0.00    +0.000 S 
ATOM      3  O   UNL     1       8.149   5.232  19.376  0.00  0.00    +0.000 OA
ATOM      4  C   UNL     1       5.559   5.272  19.128  0.00  0.00    +0.000 C 
ATOM      5  S   UNL     1       4.097   5.514  18.086  0.00  0.00    +0.000 S 
ATOM      6  C   UNL     1       4.518   4.385  16.733  0.00  0.00    +0.000 C 
ATOM      7  S   UNL     1       6.034   4.699  15.839  0.00  0.00    +0.000 S 
ATOM      8  O   UNL     1       6.002   6.041  15.299  0.00  0.00    +0.000 OA
ATOM      9  O   UNL     1       6.221   3.569  14.942  0.00  0.00    +0.000 OA
ATOM     10  C   UNL     1       7.299   4.574  17.045  0.00  0.00    +0.000 C 
ENDROOT
TORSDOF 0
ENDMDL
MODEL 3
REMARK VINA RESULT:      -4.8      3.844      5.172
REMARK  Name = 
REMARK  0 active torsions:
REMARK  status: ('A' for Active; 'I' for Inactive)
REMARK                            x       y       z     vdW  Elec       q    Type
REMARK                         _______ _______ _______ _____ _____    ______ ____
ROOT
ATOM      1  O   UNL     1       6.363   5.627  19.629  0.00  0.00    +0.000 OA
ATOM      2  S   UNL     1       5.647   4.665  18.816  0.00  0.00    +0.000 S 
ATOM      3  O   UNL     1       5.322   3.362  19.368  0.00  0.00    +0.000 OA
ATOM      4  C   UNL     1       4.103   5.383  18.273  0.00  0.00    +0.000 C 
ATOM      5  S   UNL     1       4.187   6.945  17.360  0.00  0.00    +0.000 S 
ATOM      6  C   UNL     1       5.204   6.406  15.961  0.00  0.00    +0.000 C 
ATOM      7  S   UNL     1       6.829   5.758  16.325  0.00  0.00    +0.000 S 
ATOM      8  O   UNL     1       7.585   6.747  17.063  0.00  0.00    +0.000 OA
ATOM      9  O   UNL     1       7.356   5.244  15.071  0.00  0.00    +0.000 OA
ATOM     10  C   UNL     1       6.537   4.357  17.337  0.00  0.00    +0.000 C 
ENDROOT
TORSDOF 0
ENDMDL
MODEL 4
REMARK VINA RESULT:      -4.8      2.373      3.369
REMARK  Name = 
REMARK  0 active torsions:
REMARK  status: ('A' for Active; 'I' for Inactive)
REMARK                            x       y       z     vdW  Elec       q    Type
REMARK                         _______ _______ _______ _____ _____    ______ ____
ROOT
ATOM      1  O   UNL     1       2.211   5.670  18.650  0.00  0.00    +0.000 OA
ATOM      2  S   UNL     1       1.849   4.316  18.284  0.00  0.00    +0.000 S 
ATOM      3  O   UNL     1       0.969   4.091  17.150  0.00  0.00    +0.000 OA
ATOM      4  C   UNL     1       3.334   3.372  17.967  0.00  0.00    +0.000 C 
ATOM      5  S   UNL     1       4.567   3.290  19.290  0.00  0.00    +0.000 S 
ATOM      6  C   UNL     1       3.551   2.528  20.583  0.00  0.00    +0.000 C 
ATOM      7  S   UNL     1       2.079   3.401  21.096  0.00  0.00    +0.000 S 
ATOM      8  O   UNL     1       2.441   4.727  21.546  0.00  0.00    +0.000 OA
ATOM      9  O   UNL     1       1.366   2.508  21.996  0.00  0.00    +0.000 OA
ATOM     10  C   UNL     1       1.097   3.513  19.649  0.00  0.00    +0.000 C 
ENDROOT
TORSDOF 0
ENDMDL
MODEL 5
REMARK VINA RESULT:      -4.7      2.409      3.332
REMARK  Name = 
REMARK  0 active torsions:
REMARK  status: ('A' for Active; 'I' for Inactive)
REMARK                            x       y       z     vdW  Elec       q    Type
REMARK                         _______ _______ _______ _____ _____    ______ ____
ROOT
ATOM      1  O   UNL     1       4.344   5.076  19.523  0.00  0.00    +0.000 OA
ATOM      2  S   UNL     1       2.942   5.431  19.611  0.00  0.00    +0.000 S 
ATOM      3  O   UNL     1       2.562   6.831  19.692  0.00  0.00    +0.000 OA
ATOM      4  C   UNL     1       2.071   4.752  18.206  0.00  0.00    +0.000 C 
ATOM      5  S   UNL     1       2.186   2.964  17.940  0.00  0.00    +0.000 S 
ATOM      6  C   UNL     1       1.478   2.395  19.508  0.00  0.00    +0.000 C 
ATOM      7  S   UNL     1       2.298   2.900  21.014  0.00  0.00    +0.000 S 
ATOM      8  O   UNL     1       3.680   2.472  20.974  0.00  0.00    +0.000 OA
ATOM      9  O   UNL     1       1.445   2.466  22.109  0.00  0.00    +0.000 OA
ATOM     10  C   UNL     1       2.217   4.650  21.002  0.00  0.00    +0.000 C 
ENDROOT
TORSDOF 0
ENDMDL
MODEL 6
REMARK VINA RESULT:      -4.7      4.275      5.673
REMARK  Name = 
REMARK  0 active torsions:
REMARK  status: ('A' for Active; 'I' for Inactive)
REMARK                            x       y       z     vdW  Elec       q    Type
REMARK                         _______ _______ _______ _____ _____    ______ ____
ROOT
ATOM      1  O   UNL     1       6.142   4.517  15.445  0.00  0.00    +0.000 OA
ATOM      2  S   UNL     1       5.635   5.755  15.999  0.00  0.00    +0.000 S 
ATOM      3  O   UNL     1       5.163   6.799  15.106  0.00  0.00    +0.000 OA
ATOM      4  C   UNL     1       4.285   5.396  17.114  0.00  0.00    +0.000 C 
ATOM      5  S   UNL     1       4.618   4.258  18.484  0.00  0.00    +0.000 S 
ATOM      6  C   UNL     1       5.942   5.180  19.308  0.00  0.00    +0.000 C 
ATOM      7  S   UNL     1       7.416   5.531  18.360  0.00  0.00    +0.000 S 
ATOM      8  O   UNL     1       7.979   4.290  17.874  0.00  0.00    +0.000 OA
ATOM      9  O   UNL     1       8.229   6.415  19.179  0.00  0.00    +0.000 OA
ATOM     10  C   UNL     1       6.859   6.499  17.009  0.00  0.00    +0.000 C 
ENDROOT
TORSDOF 0
ENDMDL
MODEL 7
REMARK VINA RESULT:      -4.7      3.589      4.515
REMARK  Name = 
REMARK  0 active torsions:
REMARK  status: ('A' for Active; 'I' for Inactive)
REMARK                            x       y       z     vdW  Elec       q    Type
REMARK                         _______ _______ _______ _____ _____    ______ ____
ROOT
ATOM      1  O   UNL     1       5.955   6.546  16.031  0.00  0.00    +0.000 OA
ATOM      2  S   UNL     1       6.569   5.238  16.127  0.00  0.00    +0.000 S 
ATOM      3  O   UNL     1       7.534   4.824  15.123  0.00  0.00    +0.000 OA
ATOM      4  C   UNL     1       7.388   5.083  17.708  0.00  0.00    +0.000 C 
ATOM      5  S   UNL     1       6.387   5.348  19.194  0.00  0.00    +0.000 S 
ATOM      6  C   UNL     1       5.155   4.043  18.947  0.00  0.00    +0.000 C 
ATOM      7  S   UNL     1       4.170   4.111  17.457  0.00  0.00    +0.000 S 
ATOM      8  O   UNL     1       3.482   5.383  17.396  0.00  0.00    +0.000 OA
ATOM      9  O   UNL     1       3.400   2.878  17.419  0.00  0.00    +0.000 OA
ATOM     10  C   UNL     1       5.329   3.999  16.148  0.00  0.00    +0.000 C 
ENDROOT
TORSDOF 0
ENDMDL
MODEL 8
REMARK VINA RESULT:      -4.7      1.724      3.618
REMARK  Name = 
REMARK  0 active torsions:
REMARK  status: ('A' for Active; 'I' for Inactive)
REMARK                            x       y       z     vdW  Elec       q    Type
REMARK                         _______ _______ _______ _____ _____    ______ ____
ROOT
ATOM      1  O   UNL     1       2.596   4.235  17.450  0.00  0.00    +0.000 OA
ATOM      2  S   UNL     1       3.239   4.926  18.548  0.00  0.00    +0.000 S 
ATOM      3  O   UNL     1       3.837   6.231  18.322  0.00  0.00    +0.000 OA
ATOM      4  C   UNL     1       2.070   5.131  19.884  0.00  0.00    +0.000 C 
ATOM      5  S   UNL     1       1.284   3.636  20.539  0.00  0.00    +0.000 S 
ATOM      6  C   UNL     1       2.766   2.743  21.076  0.00  0.00    +0.000 C 
ATOM      7  S   UNL     1       3.994   2.362  19.834  0.00  0.00    +0.000 S 
ATOM      8  O   UNL     1       3.379   1.596  18.772  0.00  0.00    +0.000 OA
ATOM      9  O   UNL     1       5.138   1.813  20.545  0.00  0.00    +0.000 OA
ATOM     10  C   UNL     1       4.509   3.921  19.220  0.00  0.00    +0.000 C 
ENDROOT
TORSDOF 0
ENDMDL
MODEL 9
REMARK VINA RESULT:      -4.7      3.676      4.493
REMARK  Name = 
REMARK  0 active torsions:
REMARK  status: ('A' for Active; 'I' for Inactive)
REMARK                            x       y       z     vdW  Elec       q    Type
REMARK                         _______ _______ _______ _____ _____    ______ ____
ROOT
ATOM      1  O   UNL     1       7.906   4.565  17.432  0.00  0.00    +0.000 OA
ATOM      2  S   UNL     1       7.103   5.702  17.032  0.00  0.00    +0.000 S 
ATOM      3  O   UNL     1       7.758   6.929  16.610  0.00  0.00    +0.000 OA
ATOM      4  C   UNL     1       6.020   5.221  15.695  0.00  0.00    +0.000 C 
ATOM      5  S   UNL     1       4.911   3.819  15.985  0.00  0.00    +0.000 S 
ATOM      6  C   UNL     1       3.983   4.474  17.397  0.00  0.00    +0.000 C 
ATOM      7  S   UNL     1       4.909   4.907  18.863  0.00  0.00    +0.000 S 
ATOM      8  O   UNL     1       5.649   3.751  19.321  0.00  0.00    +0.000 OA
ATOM      9  O   UNL     1       3.971   5.560  19.762  0.00  0.00    +0.000 OA
ATOM     10  C   UNL     1       6.023   6.154  18.337  0.00  0.00    +0.000 C 
ENDROOT
TORSDOF 0
ENDMDL
