MODEL 1
REMARK VINA RESULT:      -7.6      0.000      0.000
REMARK  Name = 
REMARK  7 active torsions:
REMARK  status: ('A' for Active; 'I' for Inactive)
REMARK    1  A    between atoms: C_1  and  O_2
REMARK    2  A    between atoms: O_2  and  C_3
REMARK    3  A    between atoms: C_5  and  N_6
REMARK    4  A    between atoms: C_11  and  N_12
REMARK    5  A    between atoms: C_13  and  C_15
REMARK    6  A    between atoms: C_15  and  N_16
REMARK    7  A    between atoms: C_25  and  C_26
REMARK                            x       y       z     vdW  Elec       q    Type
REMARK                         _______ _______ _______ _____ _____    ______ ____
ROOT
ATOM      1  N   UNL     1       2.376   7.477  20.041  0.00  0.00    +0.000 N 
ATOM      2  C   UNL     1       2.200   6.131  19.740  0.00  0.00    +0.000 C 
ATOM      3  O   UNL     1       1.232   5.661  19.142  0.00  0.00    +0.000 OA
ATOM      4  H   UNL     1       3.250   7.777  20.467  0.00  0.00    +0.000 HD
ENDROOT
BRANCH   1  10
ATOM      5  C   UNL     1       0.744   9.160  20.762  0.00  0.00    +0.000 A 
ATOM      6  C   UNL     1      -0.115  10.231  20.463  0.00  0.00    +0.000 A 
ATOM      7  C   UNL     1      -0.292  10.644  19.139  0.00  0.00    +0.000 A 
ATOM      8  C   UNL     1       0.387  10.009  18.105  0.00  0.00    +0.000 A 
ATOM      9  C   UNL     1       1.269   8.964  18.405  0.00  0.00    +0.000 A 
ATOM     10  C   UNL     1       1.474   8.534  19.722  0.00  0.00    +0.000 A 
BRANCH   7  11
ATOM     11  N   UNL     1      -1.210  11.748  18.838  0.00  0.00    +0.000 N 
ATOM     12  O   UNL     1      -0.746  12.741  18.262  0.00  0.00    +0.000 OA
ATOM     13  O   UNL     1      -2.394  11.623  19.186  0.00  0.00    +0.000 OA
ENDBRANCH   7  11
BRANCH   5  15
ATOM     14  C   UNL     1       0.234   9.395  23.073  0.00  0.00    +0.000 C 
ATOM     15  O   UNL     1       0.945   8.699  22.044  0.00  0.00    +0.000 OA
ENDBRANCH   5  15
ENDBRANCH   1  10
BRANCH   2  16
ATOM     16  C   UNL     1       3.283   5.188  20.264  0.00  0.00    +0.000 C 
BRANCH  16  17
ATOM     17  N   UNL     1       4.183   4.850  19.182  0.00  0.00    +0.000 N 
ATOM     18  C   UNL     1       4.870   3.681  19.114  0.00  0.00    +0.000 C 
ATOM     19  O   UNL     1       4.844   2.771  19.926  0.00  0.00    +0.000 OA
ATOM     20  N   UNL     1       5.647   3.690  17.980  0.00  0.00    +0.000 N 
ATOM     21  C   UNL     1       5.495   4.908  17.209  0.00  0.00    +0.000 C 
ATOM     22  C   UNL     1       4.765   4.635  15.882  0.00  0.00    +0.000 C 
ATOM     23  C   UNL     1       5.655   3.942  14.849  0.00  0.00    +0.000 C 
ATOM     24  C   UNL     1       6.966   4.690  14.636  0.00  0.00    +0.000 C 
ATOM     25  C   UNL     1       7.706   4.918  15.951  0.00  0.00    +0.000 C 
ATOM     26  C   UNL     1       6.828   5.656  16.978  0.00  0.00    +0.000 C 
ATOM     27  C   UNL     1       7.628   5.900  18.262  0.00  0.00    +0.000 C 
ATOM     28  C   UNL     1       4.543   5.679  18.153  0.00  0.00    +0.000 C 
ATOM     29  O   UNL     1       4.183   6.838  17.992  0.00  0.00    +0.000 OA
ATOM     30  H   UNL     1       6.251   2.912  17.753  0.00  0.00    +0.000 HD
ENDBRANCH  16  17
ENDBRANCH   2  16
TORSDOF 5
ENDMDL
MODEL 2
REMARK VINA RESULT:      -7.5      2.224      9.051
REMARK  Name = 
REMARK  7 active torsions:
REMARK  status: ('A' for Active; 'I' for Inactive)
REMARK    1  A    between atoms: C_1  and  O_2
REMARK    2  A    between atoms: O_2  and  C_3
REMARK    3  A    between atoms: C_5  and  N_6
REMARK    4  A    between atoms: C_11  and  N_12
REMARK    5  A    between atoms: C_13  and  C_15
REMARK    6  A    between atoms: C_15  and  N_16
REMARK    7  A    between atoms: C_25  and  C_26
REMARK                            x       y       z     vdW  Elec       q    Type
REMARK                         _______ _______ _______ _____ _____    ______ ____
ROOT
ATOM      1  N   UNL     1       2.365   7.744  17.877  0.00  0.00    +0.000 N 
ATOM      2  C   UNL     1       1.837   8.659  18.782  0.00  0.00    +0.000 C 
ATOM      3  O   UNL     1       1.649   8.441  19.979  0.00  0.00    +0.000 OA
ATOM      4  H   UNL     1       2.559   8.048  16.926  0.00  0.00    +0.000 HD
ENDROOT
BRANCH   1  10
ATOM      5  C   UNL     1       4.114   6.027  17.962  0.00  0.00    +0.000 A 
ATOM      6  C   UNL     1       4.529   4.725  18.290  0.00  0.00    +0.000 A 
ATOM      7  C   UNL     1       3.606   3.791  18.769  0.00  0.00    +0.000 A 
ATOM      8  C   UNL     1       2.270   4.141  18.938  0.00  0.00    +0.000 A 
ATOM      9  C   UNL     1       1.862   5.447  18.644  0.00  0.00    +0.000 A 
ATOM     10  C   UNL     1       2.766   6.407  18.171  0.00  0.00    +0.000 A 
BRANCH   7  11
ATOM     11  N   UNL     1       4.047   2.428  19.084  0.00  0.00    +0.000 N 
ATOM     12  O   UNL     1       4.824   2.281  20.038  0.00  0.00    +0.000 OA
ATOM     13  O   UNL     1       3.622   1.506  18.372  0.00  0.00    +0.000 OA
ENDBRANCH   7  11
BRANCH   5  15
ATOM     14  C   UNL     1       6.316   6.548  17.230  0.00  0.00    +0.000 C 
ATOM     15  O   UNL     1       4.974   6.983  17.471  0.00  0.00    +0.000 OA
ENDBRANCH   5  15
ENDBRANCH   1  10
BRANCH   2  16
ATOM     16  C   UNL     1       1.414  10.004  18.194  0.00  0.00    +0.000 C 
BRANCH  16  17
ATOM     17  N   UNL     1       0.458  10.631  19.081  0.00  0.00    +0.000 N 
ATOM     18  C   UNL     1      -0.887  10.521  18.936  0.00  0.00    +0.000 C 
ATOM     19  O   UNL     1      -1.479   9.907  18.064  0.00  0.00    +0.000 OA
ATOM     20  N   UNL     1      -1.501  11.252  19.924  0.00  0.00    +0.000 N 
ATOM     21  C   UNL     1      -0.553  11.896  20.812  0.00  0.00    +0.000 C 
ATOM     22  C   UNL     1      -0.584  11.257  22.212  0.00  0.00    +0.000 C 
ATOM     23  C   UNL     1      -1.815  11.667  23.023  0.00  0.00    +0.000 C 
ATOM     24  C   UNL     1      -1.977  13.182  23.083  0.00  0.00    +0.000 C 
ATOM     25  C   UNL     1      -1.989  13.804  21.690  0.00  0.00    +0.000 C 
ATOM     26  C   UNL     1      -0.730  13.430  20.887  0.00  0.00    +0.000 C 
ATOM     27  C   UNL     1      -0.768  14.113  19.516  0.00  0.00    +0.000 C 
ATOM     28  C   UNL     1       0.761  11.488  20.106  0.00  0.00    +0.000 C 
ATOM     29  O   UNL     1       1.877  11.878  20.423  0.00  0.00    +0.000 OA
ATOM     30  H   UNL     1      -2.508  11.313  19.982  0.00  0.00    +0.000 HD
ENDBRANCH  16  17
ENDBRANCH   2  16
TORSDOF 5
ENDMDL
MODEL 3
REMARK VINA RESULT:      -7.4      3.225      9.873
REMARK  Name = 
REMARK  7 active torsions:
REMARK  status: ('A' for Active; 'I' for Inactive)
REMARK    1  A    between atoms: C_1  and  O_2
REMARK    2  A    between atoms: O_2  and  C_3
REMARK    3  A    between atoms: C_5  and  N_6
REMARK    4  A    between atoms: C_11  and  N_12
REMARK    5  A    between atoms: C_13  and  C_15
REMARK    6  A    between atoms: C_15  and  N_16
REMARK    7  A    between atoms: C_25  and  C_26
REMARK                            x       y       z     vdW  Elec       q    Type
REMARK                         _______ _______ _______ _____ _____    ______ ____
ROOT
ATOM      1  N   UNL     1       0.330  10.645  18.873  0.00  0.00    +0.000 N 
ATOM      2  C   UNL     1      -0.935  10.758  18.306  0.00  0.00    +0.000 C 
ATOM      3  O   UNL     1      -1.592   9.822  17.851  0.00  0.00    +0.000 OA
ATOM      4  H   UNL     1       0.756  11.466  19.296  0.00  0.00    +0.000 HD
ENDROOT
BRANCH   1  10
ATOM      5  C   UNL     1       1.178   8.831  20.290  0.00  0.00    +0.000 A 
ATOM      6  C   UNL     1       1.880   7.623  20.432  0.00  0.00    +0.000 A 
ATOM      7  C   UNL     1       2.529   7.051  19.333  0.00  0.00    +0.000 A 
ATOM      8  C   UNL     1       2.477   7.665  18.085  0.00  0.00    +0.000 A 
ATOM      9  C   UNL     1       1.749   8.851  17.935  0.00  0.00    +0.000 A 
ATOM     10  C   UNL     1       1.082   9.442  19.016  0.00  0.00    +0.000 A 
BRANCH   7  11
ATOM     11  N   UNL     1       3.279   5.802  19.500  0.00  0.00    +0.000 N 
ATOM     12  O   UNL     1       2.698   4.851  20.042  0.00  0.00    +0.000 OA
ATOM     13  O   UNL     1       4.451   5.775  19.096  0.00  0.00    +0.000 OA
ENDBRANCH   7  11
BRANCH   5  15
ATOM     14  C   UNL     1      -0.484   8.678  21.984  0.00  0.00    +0.000 C 
ATOM     15  O   UNL     1       0.534   9.449  21.338  0.00  0.00    +0.000 OA
ENDBRANCH   5  15
ENDBRANCH   1  10
BRANCH   2  16
ATOM     16  C   UNL     1      -1.490  12.179  18.203  0.00  0.00    +0.000 C 
BRANCH  16  17
ATOM     17  N   UNL     1      -2.201  12.501  19.422  0.00  0.00    +0.000 N 
ATOM     18  C   UNL     1      -3.546  12.382  19.561  0.00  0.00    +0.000 C 
ATOM     19  O   UNL     1      -4.337  12.008  18.711  0.00  0.00    +0.000 OA
ATOM     20  N   UNL     1      -3.899  12.789  20.825  0.00  0.00    +0.000 N 
ATOM     21  C   UNL     1      -2.756  13.202  21.617  0.00  0.00    +0.000 C 
ATOM     22  C   UNL     1      -2.483  12.203  22.755  0.00  0.00    +0.000 C 
ATOM     23  C   UNL     1      -3.485  12.326  23.905  0.00  0.00    +0.000 C 
ATOM     24  C   UNL     1      -3.590  13.759  24.416  0.00  0.00    +0.000 C 
ATOM     25  C   UNL     1      -3.905  14.738  23.289  0.00  0.00    +0.000 C 
ATOM     26  C   UNL     1      -2.873  14.649  22.150  0.00  0.00    +0.000 C 
ATOM     27  C   UNL     1      -3.207  15.679  21.066  0.00  0.00    +0.000 C 
ATOM     28  C   UNL     1      -1.650  13.055  20.547  0.00  0.00    +0.000 C 
ATOM     29  O   UNL     1      -0.481  13.387  20.697  0.00  0.00    +0.000 OA
ATOM     30  H   UNL     1      -4.864  12.792  21.124  0.00  0.00    +0.000 HD
ENDBRANCH  16  17
ENDBRANCH   2  16
TORSDOF 5
ENDMDL
MODEL 4
REMARK VINA RESULT:      -7.3      3.161      9.717
REMARK  Name = 
REMARK  7 active torsions:
REMARK  status: ('A' for Active; 'I' for Inactive)
REMARK    1  A    between atoms: C_1  and  O_2
REMARK    2  A    between atoms: O_2  and  C_3
REMARK    3  A    between atoms: C_5  and  N_6
REMARK    4  A    between atoms: C_11  and  N_12
REMARK    5  A    between atoms: C_13  and  C_15
REMARK    6  A    between atoms: C_15  and  N_16
REMARK    7  A    between atoms: C_25  and  C_26
REMARK                            x       y       z     vdW  Elec       q    Type
REMARK                         _______ _______ _______ _____ _____    ______ ____
ROOT
ATOM      1  N   UNL     1       0.512  10.730  18.370  0.00  0.00    +0.000 N 
ATOM      2  C   UNL     1       0.877  12.016  18.755  0.00  0.00    +0.000 C 
ATOM      3  O   UNL     1       1.893  12.303  19.389  0.00  0.00    +0.000 OA
ATOM      4  H   UNL     1      -0.304  10.607  17.776  0.00  0.00    +0.000 HD
ENDROOT
BRANCH   1  10
ATOM      5  C   UNL     1       1.127   8.938  19.928  0.00  0.00    +0.000 A 
ATOM      6  C   UNL     1       1.801   7.736  20.198  0.00  0.00    +0.000 A 
ATOM      7  C   UNL     1       2.621   7.155  19.226  0.00  0.00    +0.000 A 
ATOM      8  C   UNL     1       2.770   7.752  17.978  0.00  0.00    +0.000 A 
ATOM      9  C   UNL     1       2.071   8.932  17.697  0.00  0.00    +0.000 A 
ATOM     10  C   UNL     1       1.236   9.533  18.648  0.00  0.00    +0.000 A 
BRANCH   7  11
ATOM     11  N   UNL     1       3.339   5.912  19.528  0.00  0.00    +0.000 N 
ATOM     12  O   UNL     1       2.762   5.071  20.231  0.00  0.00    +0.000 OA
ATOM     13  O   UNL     1       4.483   5.781  19.068  0.00  0.00    +0.000 OA
ENDBRANCH   7  11
BRANCH   5  15
ATOM     14  C   UNL     1      -0.424   8.700  21.716  0.00  0.00    +0.000 C 
ATOM     15  O   UNL     1       0.320   9.565  20.851  0.00  0.00    +0.000 OA
ENDBRANCH   5  15
ENDBRANCH   1  10
BRANCH   2  16
ATOM     16  C   UNL     1      -0.116  13.122  18.397  0.00  0.00    +0.000 C 
BRANCH  16  17
ATOM     17  N   UNL     1      -0.976  13.373  19.533  0.00  0.00    +0.000 N 
ATOM     18  C   UNL     1      -0.852  14.453  20.345  0.00  0.00    +0.000 C 
ATOM     19  O   UNL     1      -0.024  15.344  20.253  0.00  0.00    +0.000 OA
ATOM     20  N   UNL     1      -1.804  14.377  21.333  0.00  0.00    +0.000 N 
ATOM     21  C   UNL     1      -2.643  13.200  21.210  0.00  0.00    +0.000 C 
ATOM     22  C   UNL     1      -4.077  13.583  20.806  0.00  0.00    +0.000 C 
ATOM     23  C   UNL     1      -4.877  14.187  21.961  0.00  0.00    +0.000 C 
ATOM     24  C   UNL     1      -4.851  13.295  23.197  0.00  0.00    +0.000 C 
ATOM     25  C   UNL     1      -3.425  12.956  23.619  0.00  0.00    +0.000 C 
ATOM     26  C   UNL     1      -2.630  12.306  22.471  0.00  0.00    +0.000 C 
ATOM     27  C   UNL     1      -1.222  11.944  22.956  0.00  0.00    +0.000 C 
ATOM     28  C   UNL     1      -1.946  12.528  20.004  0.00  0.00    +0.000 C 
ATOM     29  O   UNL     1      -2.227  11.422  19.559  0.00  0.00    +0.000 OA
ATOM     30  H   UNL     1      -1.870  15.083  22.054  0.00  0.00    +0.000 HD
ENDBRANCH  16  17
ENDBRANCH   2  16
TORSDOF 5
ENDMDL
MODEL 5
REMARK VINA RESULT:      -7.3      5.375      7.574
REMARK  Name = 
REMARK  7 active torsions:
REMARK  status: ('A' for Active; 'I' for Inactive)
REMARK    1  A    between atoms: C_1  and  O_2
REMARK    2  A    between atoms: O_2  and  C_3
REMARK    3  A    between atoms: C_5  and  N_6
REMARK    4  A    between atoms: C_11  and  N_12
REMARK    5  A    between atoms: C_13  and  C_15
REMARK    6  A    between atoms: C_15  and  N_16
REMARK    7  A    between atoms: C_25  and  C_26
REMARK                            x       y       z     vdW  Elec       q    Type
REMARK                         _______ _______ _______ _____ _____    ______ ____
ROOT
ATOM      1  N   UNL     1       9.186   9.165  18.913  0.00  0.00    +0.000 N 
ATOM      2  C   UNL     1       8.144   8.829  18.054  0.00  0.00    +0.000 C 
ATOM      3  O   UNL     1       7.185   9.554  17.789  0.00  0.00    +0.000 OA
ATOM      4  H   UNL     1       9.975   8.530  19.002  0.00  0.00    +0.000 HD
ENDROOT
BRANCH   1  10
ATOM      5  C   UNL     1       9.948  11.495  19.013  0.00  0.00    +0.000 A 
ATOM      6  C   UNL     1      10.045  12.717  19.700  0.00  0.00    +0.000 A 
ATOM      7  C   UNL     1       9.571  12.828  21.011  0.00  0.00    +0.000 A 
ATOM      8  C   UNL     1       8.989  11.735  21.646  0.00  0.00    +0.000 A 
ATOM      9  C   UNL     1       8.861  10.527  20.951  0.00  0.00    +0.000 A 
ATOM     10  C   UNL     1       9.318  10.388  19.634  0.00  0.00    +0.000 A 
BRANCH   7  11
ATOM     11  N   UNL     1       9.699  14.103  21.725  0.00  0.00    +0.000 N 
ATOM     12  O   UNL     1       8.953  14.297  22.694  0.00  0.00    +0.000 OA
ATOM     13  O   UNL     1      10.543  14.912  21.311  0.00  0.00    +0.000 OA
ENDBRANCH   7  11
BRANCH   5  15
ATOM     14  C   UNL     1      11.309  12.329  17.250  0.00  0.00    +0.000 C 
ATOM     15  O   UNL     1      10.411  11.321  17.729  0.00  0.00    +0.000 OA
ENDBRANCH   5  15
ENDBRANCH   1  10
BRANCH   2  16
ATOM     16  C   UNL     1       8.201   7.421  17.464  0.00  0.00    +0.000 C 
BRANCH  16  17
ATOM     17  N   UNL     1       6.972   6.724  17.780  0.00  0.00    +0.000 N 
ATOM     18  C   UNL     1       6.817   5.935  18.873  0.00  0.00    +0.000 C 
ATOM     19  O   UNL     1       7.656   5.691  19.723  0.00  0.00    +0.000 OA
ATOM     20  N   UNL     1       5.547   5.408  18.862  0.00  0.00    +0.000 N 
ATOM     21  C   UNL     1       4.769   5.852  17.721  0.00  0.00    +0.000 C 
ATOM     22  C   UNL     1       3.636   6.797  18.160  0.00  0.00    +0.000 C 
ATOM     23  C   UNL     1       2.474   6.059  18.826  0.00  0.00    +0.000 C 
ATOM     24  C   UNL     1       1.959   4.913  17.963  0.00  0.00    +0.000 C 
ATOM     25  C   UNL     1       3.080   3.955  17.570  0.00  0.00    +0.000 C 
ATOM     26  C   UNL     1       4.232   4.687  16.858  0.00  0.00    +0.000 C 
ATOM     27  C   UNL     1       5.310   3.679  16.445  0.00  0.00    +0.000 C 
ATOM     28  C   UNL     1       5.854   6.677  16.991  0.00  0.00    +0.000 C 
ATOM     29  O   UNL     1       5.718   7.192  15.889  0.00  0.00    +0.000 OA
ATOM     30  H   UNL     1       5.235   4.777  19.587  0.00  0.00    +0.000 HD
ENDBRANCH  16  17
ENDBRANCH   2  16
TORSDOF 5
ENDMDL
MODEL 6
REMARK VINA RESULT:      -7.2      2.441      9.286
REMARK  Name = 
REMARK  7 active torsions:
REMARK  status: ('A' for Active; 'I' for Inactive)
REMARK    1  A    between atoms: C_1  and  O_2
REMARK    2  A    between atoms: O_2  and  C_3
REMARK    3  A    between atoms: C_5  and  N_6
REMARK    4  A    between atoms: C_11  and  N_12
REMARK    5  A    between atoms: C_13  and  C_15
REMARK    6  A    between atoms: C_15  and  N_16
REMARK    7  A    between atoms: C_25  and  C_26
REMARK                            x       y       z     vdW  Elec       q    Type
REMARK                         _______ _______ _______ _____ _____    ______ ____
ROOT
ATOM      1  N   UNL     1       2.157   7.916  18.999  0.00  0.00    +0.000 N 
ATOM      2  C   UNL     1       1.458   8.878  19.721  0.00  0.00    +0.000 C 
ATOM      3  O   UNL     1       1.016   8.725  20.859  0.00  0.00    +0.000 OA
ATOM      4  H   UNL     1       2.553   8.168  18.097  0.00  0.00    +0.000 HD
ENDROOT
BRANCH   1  10
ATOM      5  C   UNL     1       3.543   5.899  18.834  0.00  0.00    +0.000 A 
ATOM      6  C   UNL     1       3.888   4.616  19.293  0.00  0.00    +0.000 A 
ATOM      7  C   UNL     1       3.144   4.008  20.309  0.00  0.00    +0.000 A 
ATOM      8  C   UNL     1       2.064   4.668  20.885  0.00  0.00    +0.000 A 
ATOM      9  C   UNL     1       1.740   5.959  20.452  0.00  0.00    +0.000 A 
ATOM     10  C   UNL     1       2.472   6.598  19.442  0.00  0.00    +0.000 A 
BRANCH   7  11
ATOM     11  N   UNL     1       3.501   2.659  20.763  0.00  0.00    +0.000 N 
ATOM     12  O   UNL     1       4.229   1.979  20.028  0.00  0.00    +0.000 OA
ATOM     13  O   UNL     1       3.045   2.279  21.852  0.00  0.00    +0.000 OA
ENDBRANCH   7  11
BRANCH   5  15
ATOM     14  C   UNL     1       5.614   6.206  17.705  0.00  0.00    +0.000 C 
ATOM     15  O   UNL     1       4.227   6.541  17.826  0.00  0.00    +0.000 OA
ENDBRANCH   5  15
ENDBRANCH   1  10
BRANCH   2  16
ATOM     16  C   UNL     1       1.185  10.190  18.985  0.00  0.00    +0.000 C 
BRANCH  16  17
ATOM     17  N   UNL     1       0.181  10.940  19.708  0.00  0.00    +0.000 N 
ATOM     18  C   UNL     1      -1.136  10.941  19.379  0.00  0.00    +0.000 C 
ATOM     19  O   UNL     1      -1.659  10.341  18.455  0.00  0.00    +0.000 OA
ATOM     20  N   UNL     1      -1.808  11.769  20.246  0.00  0.00    +0.000 N 
ATOM     21  C   UNL     1      -0.933  12.370  21.235  0.00  0.00    +0.000 C 
ATOM     22  C   UNL     1      -1.214  11.803  22.638  0.00  0.00    +0.000 C 
ATOM     23  C   UNL     1      -2.500  12.358  23.254  0.00  0.00    +0.000 C 
ATOM     24  C   UNL     1      -2.526  13.882  23.238  0.00  0.00    +0.000 C 
ATOM     25  C   UNL     1      -2.291  14.436  21.836  0.00  0.00    +0.000 C 
ATOM     26  C   UNL     1      -0.975  13.915  21.230  0.00  0.00    +0.000 C 
ATOM     27  C   UNL     1      -0.763  14.533  19.844  0.00  0.00    +0.000 C 
ATOM     28  C   UNL     1       0.420  11.815  20.734  0.00  0.00    +0.000 C 
ATOM     29  O   UNL     1       1.514  12.120  21.190  0.00  0.00    +0.000 OA
ATOM     30  H   UNL     1      -2.804  11.921  20.160  0.00  0.00    +0.000 HD
ENDBRANCH  16  17
ENDBRANCH   2  16
TORSDOF 5
ENDMDL
MODEL 7
REMARK VINA RESULT:      -7.2      1.270      2.007
REMARK  Name = 
REMARK  7 active torsions:
REMARK  status: ('A' for Active; 'I' for Inactive)
REMARK    1  A    between atoms: C_1  and  O_2
REMARK    2  A    between atoms: O_2  and  C_3
REMARK    3  A    between atoms: C_5  and  N_6
REMARK    4  A    between atoms: C_11  and  N_12
REMARK    5  A    between atoms: C_13  and  C_15
REMARK    6  A    between atoms: C_15  and  N_16
REMARK    7  A    between atoms: C_25  and  C_26
REMARK                            x       y       z     vdW  Elec       q    Type
REMARK                         _______ _______ _______ _____ _____    ______ ____
ROOT
ATOM      1  N   UNL     1       2.023   6.826  21.113  0.00  0.00    +0.000 N 
ATOM      2  C   UNL     1       1.804   5.565  20.566  0.00  0.00    +0.000 C 
ATOM      3  O   UNL     1       0.863   5.268  19.831  0.00  0.00    +0.000 OA
ATOM      4  H   UNL     1       2.875   6.992  21.642  0.00  0.00    +0.000 HD
ENDROOT
BRANCH   1  10
ATOM      5  C   UNL     1       1.305   8.717  19.726  0.00  0.00    +0.000 A 
ATOM      6  C   UNL     1       0.469   9.826  19.516  0.00  0.00    +0.000 A 
ATOM      7  C   UNL     1      -0.426  10.232  20.511  0.00  0.00    +0.000 A 
ATOM      8  C   UNL     1      -0.508   9.537  21.713  0.00  0.00    +0.000 A 
ATOM      9  C   UNL     1       0.301   8.411  21.910  0.00  0.00    +0.000 A 
ATOM     10  C   UNL     1       1.201   7.976  20.928  0.00  0.00    +0.000 A 
BRANCH   7  11
ATOM     11  N   UNL     1      -1.277  11.406  20.289  0.00  0.00    +0.000 N 
ATOM     12  O   UNL     1      -1.556  12.108  21.270  0.00  0.00    +0.000 OA
ATOM     13  O   UNL     1      -1.672  11.620  19.133  0.00  0.00    +0.000 OA
ENDBRANCH   7  11
BRANCH   5  15
ATOM     14  C   UNL     1       2.258   9.026  17.569  0.00  0.00    +0.000 C 
ATOM     15  O   UNL     1       2.217   8.282  18.791  0.00  0.00    +0.000 OA
ENDBRANCH   5  15
ENDBRANCH   1  10
BRANCH   2  16
ATOM     16  C   UNL     1       2.796   4.481  20.984  0.00  0.00    +0.000 C 
BRANCH  16  17
ATOM     17  N   UNL     1       3.756   4.279  19.920  0.00  0.00    +0.000 N 
ATOM     18  C   UNL     1       4.399   3.103  19.702  0.00  0.00    +0.000 C 
ATOM     19  O   UNL     1       4.279   2.075  20.347  0.00  0.00    +0.000 OA
ATOM     20  N   UNL     1       5.253   3.257  18.636  0.00  0.00    +0.000 N 
ATOM     21  C   UNL     1       5.205   4.591  18.070  0.00  0.00    +0.000 C 
ATOM     22  C   UNL     1       4.560   4.576  16.673  0.00  0.00    +0.000 C 
ATOM     23  C   UNL     1       5.492   4.017  15.597  0.00  0.00    +0.000 C 
ATOM     24  C   UNL     1       6.844   4.721  15.594  0.00  0.00    +0.000 C 
ATOM     25  C   UNL     1       7.498   4.693  16.973  0.00  0.00    +0.000 C 
ATOM     26  C   UNL     1       6.580   5.297  18.051  0.00  0.00    +0.000 C 
ATOM     27  C   UNL     1       7.297   5.287  19.406  0.00  0.00    +0.000 C 
ATOM     28  C   UNL     1       4.220   5.245  19.068  0.00  0.00    +0.000 C 
ATOM     29  O   UNL     1       3.920   6.432  19.080  0.00  0.00    +0.000 OA
ATOM     30  H   UNL     1       5.840   2.496  18.321  0.00  0.00    +0.000 HD
ENDBRANCH  16  17
ENDBRANCH   2  16
TORSDOF 5
ENDMDL
MODEL 8
REMARK VINA RESULT:      -7.2      2.856      9.028
REMARK  Name = 
REMARK  7 active torsions:
REMARK  status: ('A' for Active; 'I' for Inactive)
REMARK    1  A    between atoms: C_1  and  O_2
REMARK    2  A    between atoms: O_2  and  C_3
REMARK    3  A    between atoms: C_5  and  N_6
REMARK    4  A    between atoms: C_11  and  N_12
REMARK    5  A    between atoms: C_13  and  C_15
REMARK    6  A    between atoms: C_15  and  N_16
REMARK    7  A    between atoms: C_25  and  C_26
REMARK                            x       y       z     vdW  Elec       q    Type
REMARK                         _______ _______ _______ _____ _____    ______ ____
ROOT
ATOM      1  N   UNL     1       2.058   7.612  20.821  0.00  0.00    +0.000 N 
ATOM      2  C   UNL     1       1.041   8.436  21.293  0.00  0.00    +0.000 C 
ATOM      3  O   UNL     1      -0.161   8.177  21.238  0.00  0.00    +0.000 OA
ATOM      4  H   UNL     1       3.025   7.879  20.987  0.00  0.00    +0.000 HD
ENDROOT
BRANCH   1  10
ATOM      5  C   UNL     1       2.317   6.173  18.851  0.00  0.00    +0.000 A 
ATOM      6  C   UNL     1       2.192   4.917  18.235  0.00  0.00    +0.000 A 
ATOM      7  C   UNL     1       1.599   3.852  18.920  0.00  0.00    +0.000 A 
ATOM      8  C   UNL     1       1.136   4.020  20.221  0.00  0.00    +0.000 A 
ATOM      9  C   UNL     1       1.290   5.262  20.848  0.00  0.00    +0.000 A 
ATOM     10  C   UNL     1       1.888   6.345  20.190  0.00  0.00    +0.000 A 
BRANCH   7  11
ATOM     11  N   UNL     1       1.454   2.551  18.257  0.00  0.00    +0.000 N 
ATOM     12  O   UNL     1       2.425   2.118  17.622  0.00  0.00    +0.000 OA
ATOM     13  O   UNL     1       0.365   1.968  18.367  0.00  0.00    +0.000 OA
ENDBRANCH   7  11
BRANCH   5  15
ATOM     14  C   UNL     1       4.028   6.990  17.416  0.00  0.00    +0.000 C 
ATOM     15  O   UNL     1       2.876   7.262  18.221  0.00  0.00    +0.000 OA
ENDBRANCH   5  15
ENDBRANCH   1  10
BRANCH   2  16
ATOM     16  C   UNL     1       1.489   9.783  21.859  0.00  0.00    +0.000 C 
BRANCH  16  17
ATOM     17  N   UNL     1       0.574  10.813  21.415  0.00  0.00    +0.000 N 
ATOM     18  C   UNL     1       0.630  11.388  20.187  0.00  0.00    +0.000 C 
ATOM     19  O   UNL     1       1.434  11.144  19.303  0.00  0.00    +0.000 OA
ATOM     20  N   UNL     1      -0.359  12.338  20.098  0.00  0.00    +0.000 N 
ATOM     21  C   UNL     1      -1.155  12.430  21.307  0.00  0.00    +0.000 C 
ATOM     22  C   UNL     1      -2.582  11.906  21.070  0.00  0.00    +0.000 C 
ATOM     23  C   UNL     1      -3.448  12.885  20.275  0.00  0.00    +0.000 C 
ATOM     24  C   UNL     1      -3.447  14.278  20.893  0.00  0.00    +0.000 C 
ATOM     25  C   UNL     1      -2.029  14.809  21.084  0.00  0.00    +0.000 C 
ATOM     26  C   UNL     1      -1.167  13.848  21.923  0.00  0.00    +0.000 C 
ATOM     27  C   UNL     1       0.230  14.445  22.123  0.00  0.00    +0.000 C 
ATOM     28  C   UNL     1      -0.388  11.413  22.183  0.00  0.00    +0.000 C 
ATOM     29  O   UNL     1      -0.616  11.196  23.366  0.00  0.00    +0.000 OA
ATOM     30  H   UNL     1      -0.477  12.895  19.262  0.00  0.00    +0.000 HD
ENDBRANCH  16  17
ENDBRANCH   2  16
TORSDOF 5
ENDMDL
MODEL 9
REMARK VINA RESULT:      -7.2      2.721      3.892
REMARK  Name = 
REMARK  7 active torsions:
REMARK  status: ('A' for Active; 'I' for Inactive)
REMARK    1  A    between atoms: C_1  and  O_2
REMARK    2  A    between atoms: O_2  and  C_3
REMARK    3  A    between atoms: C_5  and  N_6
REMARK    4  A    between atoms: C_11  and  N_12
REMARK    5  A    between atoms: C_13  and  C_15
REMARK    6  A    between atoms: C_15  and  N_16
REMARK    7  A    between atoms: C_25  and  C_26
REMARK                            x       y       z     vdW  Elec       q    Type
REMARK                         _______ _______ _______ _____ _____    ______ ____
ROOT
ATOM      1  N   UNL     1       1.073  10.668  19.662  0.00  0.00    +0.000 N 
ATOM      2  C   UNL     1       1.148   9.799  18.578  0.00  0.00    +0.000 C 
ATOM      3  O   UNL     1       0.189   9.428  17.902  0.00  0.00    +0.000 OA
ATOM      4  H   UNL     1       1.934  10.979  20.104  0.00  0.00    +0.000 HD
ENDROOT
BRANCH   1  10
ATOM      5  C   UNL     1      -0.405  11.146  21.560  0.00  0.00    +0.000 A 
ATOM      6  C   UNL     1      -1.550  11.767  22.087  0.00  0.00    +0.000 A 
ATOM      7  C   UNL     1      -2.429  12.455  21.245  0.00  0.00    +0.000 A 
ATOM      8  C   UNL     1      -2.175  12.543  19.880  0.00  0.00    +0.000 A 
ATOM      9  C   UNL     1      -1.017  11.954  19.359  0.00  0.00    +0.000 A 
ATOM     10  C   UNL     1      -0.114  11.265  20.179  0.00  0.00    +0.000 A 
BRANCH   7  11
ATOM     11  N   UNL     1      -3.633  13.079  21.804  0.00  0.00    +0.000 N 
ATOM     12  O   UNL     1      -4.485  12.335  22.307  0.00  0.00    +0.000 OA
ATOM     13  O   UNL     1      -3.728  14.313  21.732  0.00  0.00    +0.000 OA
ENDBRANCH   7  11
BRANCH   5  15
ATOM     14  C   UNL     1      -0.093   9.587  23.329  0.00  0.00    +0.000 C 
ATOM     15  O   UNL     1       0.486  10.440  22.336  0.00  0.00    +0.000 OA
ENDBRANCH   5  15
ENDBRANCH   1  10
BRANCH   2  16
ATOM     16  C   UNL     1       2.537   9.237  18.274  0.00  0.00    +0.000 C 
BRANCH  16  17
ATOM     17  N   UNL     1       2.552   7.821  18.574  0.00  0.00    +0.000 N 
ATOM     18  C   UNL     1       2.149   7.301  19.762  0.00  0.00    +0.000 C 
ATOM     19  O   UNL     1       1.735   7.921  20.727  0.00  0.00    +0.000 OA
ATOM     20  N   UNL     1       2.313   5.937  19.726  0.00  0.00    +0.000 N 
ATOM     21  C   UNL     1       2.843   5.472  18.459  0.00  0.00    +0.000 C 
ATOM     22  C   UNL     1       1.783   4.679  17.674  0.00  0.00    +0.000 C 
ATOM     23  C   UNL     1       1.556   3.275  18.239  0.00  0.00    +0.000 C 
ATOM     24  C   UNL     1       2.861   2.501  18.377  0.00  0.00    +0.000 C 
ATOM     25  C   UNL     1       3.892   3.274  19.194  0.00  0.00    +0.000 C 
ATOM     26  C   UNL     1       4.157   4.671  18.603  0.00  0.00    +0.000 C 
ATOM     27  C   UNL     1       5.229   5.389  19.430  0.00  0.00    +0.000 C 
ATOM     28  C   UNL     1       3.058   6.838  17.767  0.00  0.00    +0.000 C 
ATOM     29  O   UNL     1       3.596   6.995  16.678  0.00  0.00    +0.000 OA
ATOM     30  H   UNL     1       2.085   5.361  20.524  0.00  0.00    +0.000 HD
ENDBRANCH  16  17
ENDBRANCH   2  16
TORSDOF 5
ENDMDL
