MODEL 1
REMARK VINA RESULT:      -8.0      0.000      0.000
REMARK  Name = 
REMARK  3 active torsions:
REMARK  status: ('A' for Active; 'I' for Inactive)
REMARK    1  A    between atoms: C_4  and  O_5
REMARK    2  A    between atoms: C_7  and  O_8
REMARK    3  A    between atoms: C_16  and  O_17
REMARK                            x       y       z     vdW  Elec       q    Type
REMARK                         _______ _______ _______ _____ _____    ______ ____
ROOT
ATOM      1  O   UNL     1       2.152   3.281  16.539  0.00  0.00    +0.000 OA
ATOM      2  C   UNL     1       2.894   3.425  17.507  0.00  0.00    +0.000 A 
ATOM      3  C   UNL     1       2.417   3.152  18.885  0.00  0.00    +0.000 A 
ATOM      4  C   UNL     1       1.103   2.723  19.100  0.00  0.00    +0.000 A 
ATOM      5  C   UNL     1       0.656   2.466  20.391  0.00  0.00    +0.000 A 
ATOM      6  C   UNL     1       1.527   2.643  21.464  0.00  0.00    +0.000 A 
ATOM      7  C   UNL     1       2.844   3.069  21.275  0.00  0.00    +0.000 A 
ATOM      8  C   UNL     1       3.297   3.326  19.981  0.00  0.00    +0.000 A 
ATOM      9  O   UNL     1       4.614   3.751  19.824  0.00  0.00    +0.000 OA
ATOM     10  C   UNL     1       4.984   3.981  18.568  0.00  0.00    +0.000 A 
ATOM     11  O   UNL     1       6.248   4.399  18.312  0.00  0.00    +0.000 OA
ATOM     12  C   UNL     1       6.320   4.546  16.945  0.00  0.00    +0.000 A 
ATOM     13  C   UNL     1       7.435   4.961  16.215  0.00  0.00    +0.000 A 
ATOM     14  C   UNL     1       7.263   5.035  14.828  0.00  0.00    +0.000 A 
ATOM     15  C   UNL     1       6.057   4.717  14.207  0.00  0.00    +0.000 A 
ATOM     16  C   UNL     1       4.957   4.304  14.962  0.00  0.00    +0.000 A 
ATOM     17  C   UNL     1       5.096   4.219  16.357  0.00  0.00    +0.000 A 
ATOM     18  C   UNL     1       4.253   3.858  17.419  0.00  0.00    +0.000 A 
ENDROOT
BRANCH   4  19
ATOM     19  O   UNL     1       0.199   2.530  18.089  0.00  0.00    +0.000 OA
ATOM     20  H   UNL     1       0.125   1.566  17.905  0.00  0.00    +0.000 HD
ENDBRANCH   4  19
BRANCH   6  21
ATOM     21  O   UNL     1       1.116   2.400  22.742  0.00  0.00    +0.000 OA
ATOM     22  H   UNL     1       1.370   1.493  22.987  0.00  0.00    +0.000 HD
ENDBRANCH   6  21
BRANCH  14  23
ATOM     23  O   UNL     1       8.283   5.428  14.008  0.00  0.00    +0.000 OA
ATOM     24  H   UNL     1       8.307   4.847  13.230  0.00  0.00    +0.000 HD
ENDBRANCH  14  23
TORSDOF 3
ENDMDL
MODEL 2
REMARK VINA RESULT:      -7.6      5.023      5.967
REMARK  Name = 
REMARK  3 active torsions:
REMARK  status: ('A' for Active; 'I' for Inactive)
REMARK    1  A    between atoms: C_4  and  O_5
REMARK    2  A    between atoms: C_7  and  O_8
REMARK    3  A    between atoms: C_16  and  O_17
REMARK                            x       y       z     vdW  Elec       q    Type
REMARK                         _______ _______ _______ _____ _____    ______ ____
ROOT
ATOM      1  O   UNL     1       2.676   7.916  17.255  0.00  0.00    +0.000 OA
ATOM      2  C   UNL     1       2.326   7.672  18.407  0.00  0.00    +0.000 A 
ATOM      3  C   UNL     1       1.739   8.728  19.268  0.00  0.00    +0.000 A 
ATOM      4  C   UNL     1       1.576  10.026  18.774  0.00  0.00    +0.000 A 
ATOM      5  C   UNL     1       1.026  11.016  19.581  0.00  0.00    +0.000 A 
ATOM      6  C   UNL     1       0.641  10.701  20.883  0.00  0.00    +0.000 A 
ATOM      7  C   UNL     1       0.792   9.411  21.398  0.00  0.00    +0.000 A 
ATOM      8  C   UNL     1       1.343   8.416  20.592  0.00  0.00    +0.000 A 
ATOM      9  O   UNL     1       1.483   7.141  21.135  0.00  0.00    +0.000 OA
ATOM     10  C   UNL     1       2.015   6.237  20.317  0.00  0.00    +0.000 A 
ATOM     11  O   UNL     1       2.192   4.966  20.754  0.00  0.00    +0.000 OA
ATOM     12  C   UNL     1       2.752   4.287  19.696  0.00  0.00    +0.000 A 
ATOM     13  C   UNL     1       3.114   2.938  19.677  0.00  0.00    +0.000 A 
ATOM     14  C   UNL     1       3.669   2.472  18.480  0.00  0.00    +0.000 A 
ATOM     15  C   UNL     1       3.854   3.296  17.372  0.00  0.00    +0.000 A 
ATOM     16  C   UNL     1       3.483   4.641  17.418  0.00  0.00    +0.000 A 
ATOM     17  C   UNL     1       2.923   5.141  18.605  0.00  0.00    +0.000 A 
ATOM     18  C   UNL     1       2.440   6.390  19.027  0.00  0.00    +0.000 A 
ENDROOT
BRANCH   4  19
ATOM     19  O   UNL     1       1.933  10.399  17.506  0.00  0.00    +0.000 OA
ATOM     20  H   UNL     1       1.159  10.284  16.908  0.00  0.00    +0.000 HD
ENDBRANCH   4  19
BRANCH   6  21
ATOM     21  O   UNL     1       0.100  11.651  21.698  0.00  0.00    +0.000 OA
ATOM     22  H   UNL     1       0.579  12.488  21.567  0.00  0.00    +0.000 HD
ENDBRANCH   6  21
BRANCH  14  23
ATOM     23  O   UNL     1       4.061   1.170  18.342  0.00  0.00    +0.000 OA
ATOM     24  H   UNL     1       4.680   1.102  17.596  0.00  0.00    +0.000 HD
ENDBRANCH  14  23
TORSDOF 3
ENDMDL
MODEL 3
REMARK VINA RESULT:      -7.5      5.259      5.569
REMARK  Name = 
REMARK  3 active torsions:
REMARK  status: ('A' for Active; 'I' for Inactive)
REMARK    1  A    between atoms: C_4  and  O_5
REMARK    2  A    between atoms: C_7  and  O_8
REMARK    3  A    between atoms: C_16  and  O_17
REMARK                            x       y       z     vdW  Elec       q    Type
REMARK                         _______ _______ _______ _____ _____    ______ ____
ROOT
ATOM      1  O   UNL     1       2.333   9.376  17.343  0.00  0.00    +0.000 OA
ATOM      2  C   UNL     1       2.159   8.707  18.358  0.00  0.00    +0.000 A 
ATOM      3  C   UNL     1       1.289   9.195  19.457  0.00  0.00    +0.000 A 
ATOM      4  C   UNL     1       0.651  10.434  19.348  0.00  0.00    +0.000 A 
ATOM      5  C   UNL     1      -0.165  10.891  20.378  0.00  0.00    +0.000 A 
ATOM      6  C   UNL     1      -0.337  10.103  21.515  0.00  0.00    +0.000 A 
ATOM      7  C   UNL     1       0.289   8.861  21.645  0.00  0.00    +0.000 A 
ATOM      8  C   UNL     1       1.107   8.399  20.615  0.00  0.00    +0.000 A 
ATOM      9  O   UNL     1       1.719   7.158  20.775  0.00  0.00    +0.000 OA
ATOM     10  C   UNL     1       2.487   6.775  19.758  0.00  0.00    +0.000 A 
ATOM     11  O   UNL     1       3.125   5.581  19.820  0.00  0.00    +0.000 OA
ATOM     12  C   UNL     1       3.826   5.475  18.640  0.00  0.00    +0.000 A 
ATOM     13  C   UNL     1       4.638   4.407  18.253  0.00  0.00    +0.000 A 
ATOM     14  C   UNL     1       5.251   4.530  17.000  0.00  0.00    +0.000 A 
ATOM     15  C   UNL     1       5.069   5.645  16.185  0.00  0.00    +0.000 A 
ATOM     16  C   UNL     1       4.250   6.699  16.598  0.00  0.00    +0.000 A 
ATOM     17  C   UNL     1       3.620   6.608  17.849  0.00  0.00    +0.000 A 
ATOM     18  C   UNL     1       2.754   7.429  18.588  0.00  0.00    +0.000 A 
ENDROOT
BRANCH   4  19
ATOM     19  O   UNL     1       0.778  11.254  18.259  0.00  0.00    +0.000 OA
ATOM     20  H   UNL     1       0.487  10.766  17.455  0.00  0.00    +0.000 HD
ENDBRANCH   4  19
BRANCH   6  21
ATOM     21  O   UNL     1      -1.130  10.525  22.541  0.00  0.00    +0.000 OA
ATOM     22  H   UNL     1      -1.677   9.779  22.843  0.00  0.00    +0.000 HD
ENDBRANCH   6  21
BRANCH  14  23
ATOM     23  O   UNL     1       6.068   3.549  16.513  0.00  0.00    +0.000 OA
ATOM     24  H   UNL     1       5.527   2.788  16.247  0.00  0.00    +0.000 HD
ENDBRANCH  14  23
TORSDOF 3
ENDMDL
MODEL 4
REMARK VINA RESULT:      -7.5      4.337      7.046
REMARK  Name = 
REMARK  3 active torsions:
REMARK  status: ('A' for Active; 'I' for Inactive)
REMARK    1  A    between atoms: C_4  and  O_5
REMARK    2  A    between atoms: C_7  and  O_8
REMARK    3  A    between atoms: C_16  and  O_17
REMARK                            x       y       z     vdW  Elec       q    Type
REMARK                         _______ _______ _______ _____ _____    ______ ____
ROOT
ATOM      1  O   UNL     1       3.675   5.234  19.934  0.00  0.00    +0.000 OA
ATOM      2  C   UNL     1       3.714   5.938  18.928  0.00  0.00    +0.000 A 
ATOM      3  C   UNL     1       4.588   5.587  17.782  0.00  0.00    +0.000 A 
ATOM      4  C   UNL     1       5.387   4.441  17.834  0.00  0.00    +0.000 A 
ATOM      5  C   UNL     1       6.207   4.112  16.760  0.00  0.00    +0.000 A 
ATOM      6  C   UNL     1       6.224   4.936  15.636  0.00  0.00    +0.000 A 
ATOM      7  C   UNL     1       5.433   6.086  15.560  0.00  0.00    +0.000 A 
ATOM      8  C   UNL     1       4.610   6.418  16.635  0.00  0.00    +0.000 A 
ATOM      9  O   UNL     1       3.835   7.570  16.530  0.00  0.00    +0.000 OA
ATOM     10  C   UNL     1       3.073   7.833  17.588  0.00  0.00    +0.000 A 
ATOM     11  O   UNL     1       2.282   8.935  17.581  0.00  0.00    +0.000 OA
ATOM     12  C   UNL     1       1.630   8.928  18.793  0.00  0.00    +0.000 A 
ATOM     13  C   UNL     1       0.705   9.875  19.240  0.00  0.00    +0.000 A 
ATOM     14  C   UNL     1       0.175   9.654  20.517  0.00  0.00    +0.000 A 
ATOM     15  C   UNL     1       0.543   8.561  21.300  0.00  0.00    +0.000 A 
ATOM     16  C   UNL     1       1.470   7.630  20.827  0.00  0.00    +0.000 A 
ATOM     17  C   UNL     1       2.021   7.822  19.550  0.00  0.00    +0.000 A 
ATOM     18  C   UNL     1       2.948   7.131  18.754  0.00  0.00    +0.000 A 
ENDROOT
BRANCH   4  19
ATOM     19  O   UNL     1       5.416   3.592  18.908  0.00  0.00    +0.000 OA
ATOM     20  H   UNL     1       6.352   3.361  19.109  0.00  0.00    +0.000 HD
ENDBRANCH   4  19
BRANCH   6  21
ATOM     21  O   UNL     1       7.019   4.640  14.568  0.00  0.00    +0.000 OA
ATOM     22  H   UNL     1       6.457   4.523  13.781  0.00  0.00    +0.000 HD
ENDBRANCH   6  21
BRANCH  14  23
ATOM     23  O   UNL     1      -0.738  10.511  21.062  0.00  0.00    +0.000 OA
ATOM     24  H   UNL     1      -0.749  11.334  20.545  0.00  0.00    +0.000 HD
ENDBRANCH  14  23
TORSDOF 3
ENDMDL
MODEL 5
REMARK VINA RESULT:      -7.2      5.214      6.912
REMARK  Name = 
REMARK  3 active torsions:
REMARK  status: ('A' for Active; 'I' for Inactive)
REMARK    1  A    between atoms: C_4  and  O_5
REMARK    2  A    between atoms: C_7  and  O_8
REMARK    3  A    between atoms: C_16  and  O_17
REMARK                            x       y       z     vdW  Elec       q    Type
REMARK                         _______ _______ _______ _____ _____    ______ ____
ROOT
ATOM      1  O   UNL     1       1.935   6.015  20.651  0.00  0.00    +0.000 OA
ATOM      2  C   UNL     1       2.399   6.478  19.613  0.00  0.00    +0.000 A 
ATOM      3  C   UNL     1       3.320   5.682  18.764  0.00  0.00    +0.000 A 
ATOM      4  C   UNL     1       3.673   4.383  19.140  0.00  0.00    +0.000 A 
ATOM      5  C   UNL     1       4.536   3.637  18.345  0.00  0.00    +0.000 A 
ATOM      6  C   UNL     1       5.043   4.197  17.173  0.00  0.00    +0.000 A 
ATOM      7  C   UNL     1       4.702   5.493  16.776  0.00  0.00    +0.000 A 
ATOM      8  C   UNL     1       3.837   6.244  17.571  0.00  0.00    +0.000 A 
ATOM      9  O   UNL     1       3.518   7.532  17.149  0.00  0.00    +0.000 OA
ATOM     10  C   UNL     1       2.690   8.196  17.950  0.00  0.00    +0.000 A 
ATOM     11  O   UNL     1       2.320   9.460  17.625  0.00  0.00    +0.000 OA
ATOM     12  C   UNL     1       1.476   9.868  18.632  0.00  0.00    +0.000 A 
ATOM     13  C   UNL     1       0.842  11.109  18.729  0.00  0.00    +0.000 A 
ATOM     14  C   UNL     1       0.028  11.292  19.852  0.00  0.00    +0.000 A 
ATOM     15  C   UNL     1      -0.144  10.304  20.819  0.00  0.00    +0.000 A 
ATOM     16  C   UNL     1       0.502   9.072  20.698  0.00  0.00    +0.000 A 
ATOM     17  C   UNL     1       1.327   8.855  19.582  0.00  0.00    +0.000 A 
ATOM     18  C   UNL     1       2.115   7.789  19.121  0.00  0.00    +0.000 A 
ENDROOT
BRANCH   4  19
ATOM     19  O   UNL     1       3.210   3.776  20.277  0.00  0.00    +0.000 OA
ATOM     20  H   UNL     1       3.954   3.682  20.916  0.00  0.00    +0.000 HD
ENDBRANCH   4  19
BRANCH   6  21
ATOM     21  O   UNL     1       5.892   3.490  16.374  0.00  0.00    +0.000 OA
ATOM     22  H   UNL     1       6.716   3.321  16.863  0.00  0.00    +0.000 HD
ENDBRANCH   6  21
BRANCH  14  23
ATOM     23  O   UNL     1      -0.644  12.464  20.055  0.00  0.00    +0.000 OA
ATOM     24  H   UNL     1      -0.155  13.188  19.631  0.00  0.00    +0.000 HD
ENDBRANCH  14  23
TORSDOF 3
ENDMDL
MODEL 6
REMARK VINA RESULT:      -7.2      4.751      6.116
REMARK  Name = 
REMARK  3 active torsions:
REMARK  status: ('A' for Active; 'I' for Inactive)
REMARK    1  A    between atoms: C_4  and  O_5
REMARK    2  A    between atoms: C_7  and  O_8
REMARK    3  A    between atoms: C_16  and  O_17
REMARK                            x       y       z     vdW  Elec       q    Type
REMARK                         _______ _______ _______ _____ _____    ______ ____
ROOT
ATOM      1  O   UNL     1       1.349   6.481  21.215  0.00  0.00    +0.000 OA
ATOM      2  C   UNL     1       1.789   6.819  20.120  0.00  0.00    +0.000 A 
ATOM      3  C   UNL     1       1.638   8.212  19.631  0.00  0.00    +0.000 A 
ATOM      4  C   UNL     1       0.986   9.165  20.420  0.00  0.00    +0.000 A 
ATOM      5  C   UNL     1       0.844  10.470  19.962  0.00  0.00    +0.000 A 
ATOM      6  C   UNL     1       1.356  10.816  18.712  0.00  0.00    +0.000 A 
ATOM      7  C   UNL     1       2.013   9.882  17.908  0.00  0.00    +0.000 A 
ATOM      8  C   UNL     1       2.157   8.572  18.364  0.00  0.00    +0.000 A 
ATOM      9  O   UNL     1       2.815   7.664  17.538  0.00  0.00    +0.000 OA
ATOM     10  C   UNL     1       2.919   6.432  18.029  0.00  0.00    +0.000 A 
ATOM     11  O   UNL     1       3.544   5.475  17.298  0.00  0.00    +0.000 OA
ATOM     12  C   UNL     1       3.489   4.332  18.063  0.00  0.00    +0.000 A 
ATOM     13  C   UNL     1       4.006   3.081  17.720  0.00  0.00    +0.000 A 
ATOM     14  C   UNL     1       3.825   2.066  18.666  0.00  0.00    +0.000 A 
ATOM     15  C   UNL     1       3.171   2.281  19.877  0.00  0.00    +0.000 A 
ATOM     16  C   UNL     1       2.663   3.543  20.195  0.00  0.00    +0.000 A 
ATOM     17  C   UNL     1       2.828   4.584  19.267  0.00  0.00    +0.000 A 
ATOM     18  C   UNL     1       2.472   5.942  19.223  0.00  0.00    +0.000 A 
ENDROOT
BRANCH   4  19
ATOM     19  O   UNL     1       0.461   8.889  21.654  0.00  0.00    +0.000 OA
ATOM     20  H   UNL     1       0.448   7.913  21.786  0.00  0.00    +0.000 HD
ENDBRANCH   4  19
BRANCH   6  21
ATOM     21  O   UNL     1       1.231  12.088  18.237  0.00  0.00    +0.000 OA
ATOM     22  H   UNL     1       0.434  12.138  17.680  0.00  0.00    +0.000 HD
ENDBRANCH   6  21
BRANCH  14  23
ATOM     23  O   UNL     1       4.288   0.800  18.443  0.00  0.00    +0.000 OA
ATOM     24  H   UNL     1       4.535   0.398  19.291  0.00  0.00    +0.000 HD
ENDBRANCH  14  23
TORSDOF 3
ENDMDL
MODEL 7
REMARK VINA RESULT:      -7.2      4.461      5.605
REMARK  Name = 
REMARK  3 active torsions:
REMARK  status: ('A' for Active; 'I' for Inactive)
REMARK    1  A    between atoms: C_4  and  O_5
REMARK    2  A    between atoms: C_7  and  O_8
REMARK    3  A    between atoms: C_16  and  O_17
REMARK                            x       y       z     vdW  Elec       q    Type
REMARK                         _______ _______ _______ _____ _____    ______ ____
ROOT
ATOM      1  O   UNL     1       1.455   5.709  21.207  0.00  0.00    +0.000 OA
ATOM      2  C   UNL     1       2.045   5.642  20.132  0.00  0.00    +0.000 A 
ATOM      3  C   UNL     1       2.641   4.366  19.663  0.00  0.00    +0.000 A 
ATOM      4  C   UNL     1       2.537   3.214  20.448  0.00  0.00    +0.000 A 
ATOM      5  C   UNL     1       3.095   2.018  20.009  0.00  0.00    +0.000 A 
ATOM      6  C   UNL     1       3.757   1.983  18.783  0.00  0.00    +0.000 A 
ATOM      7  C   UNL     1       3.872   3.120  17.980  0.00  0.00    +0.000 A 
ATOM      8  C   UNL     1       3.314   4.321  18.417  0.00  0.00    +0.000 A 
ATOM      9  O   UNL     1       3.446   5.438  17.596  0.00  0.00    +0.000 OA
ATOM     10  C   UNL     1       2.893   6.552  18.069  0.00  0.00    +0.000 A 
ATOM     11  O   UNL     1       2.970   7.693  17.341  0.00  0.00    +0.000 OA
ATOM     12  C   UNL     1       2.316   8.649  18.085  0.00  0.00    +0.000 A 
ATOM     13  C   UNL     1       2.137   9.990  17.736  0.00  0.00    +0.000 A 
ATOM     14  C   UNL     1       1.436  10.773  18.661  0.00  0.00    +0.000 A 
ATOM     15  C   UNL     1       0.944  10.255  19.858  0.00  0.00    +0.000 A 
ATOM     16  C   UNL     1       1.137   8.910  20.181  0.00  0.00    +0.000 A 
ATOM     17  C   UNL     1       1.837   8.097  19.275  0.00  0.00    +0.000 A 
ATOM     18  C   UNL     1       2.218   6.746  19.242  0.00  0.00    +0.000 A 
ENDROOT
BRANCH   4  19
ATOM     19  O   UNL     1       1.900   3.184  21.660  0.00  0.00    +0.000 OA
ATOM     20  H   UNL     1       0.928   3.150  21.510  0.00  0.00    +0.000 HD
ENDBRANCH   4  19
BRANCH   6  21
ATOM     21  O   UNL     1       4.316   0.825  18.327  0.00  0.00    +0.000 OA
ATOM     22  H   UNL     1       3.864   0.072  18.747  0.00  0.00    +0.000 HD
ENDBRANCH   6  21
BRANCH  14  23
ATOM     23  O   UNL     1       1.199  12.098  18.430  0.00  0.00    +0.000 OA
ATOM     24  H   UNL     1       1.150  12.250  17.472  0.00  0.00    +0.000 HD
ENDBRANCH  14  23
TORSDOF 3
ENDMDL
MODEL 8
REMARK VINA RESULT:      -6.9      5.397      6.978
REMARK  Name = 
REMARK  3 active torsions:
REMARK  status: ('A' for Active; 'I' for Inactive)
REMARK    1  A    between atoms: C_4  and  O_5
REMARK    2  A    between atoms: C_7  and  O_8
REMARK    3  A    between atoms: C_16  and  O_17
REMARK                            x       y       z     vdW  Elec       q    Type
REMARK                         _______ _______ _______ _____ _____    ______ ____
ROOT
ATOM      1  O   UNL     1       3.104   8.260  17.114  0.00  0.00    +0.000 OA
ATOM      2  C   UNL     1       2.845   7.646  18.145  0.00  0.00    +0.000 A 
ATOM      3  C   UNL     1       3.443   6.315  18.414  0.00  0.00    +0.000 A 
ATOM      4  C   UNL     1       4.318   5.739  17.488  0.00  0.00    +0.000 A 
ATOM      5  C   UNL     1       4.878   4.492  17.741  0.00  0.00    +0.000 A 
ATOM      6  C   UNL     1       4.559   3.825  18.922  0.00  0.00    +0.000 A 
ATOM      7  C   UNL     1       3.689   4.382  19.864  0.00  0.00    +0.000 A 
ATOM      8  C   UNL     1       3.125   5.632  19.614  0.00  0.00    +0.000 A 
ATOM      9  O   UNL     1       2.261   6.159  20.570  0.00  0.00    +0.000 OA
ATOM     10  C   UNL     1       1.755   7.354  20.273  0.00  0.00    +0.000 A 
ATOM     11  O   UNL     1       0.902   7.950  21.142  0.00  0.00    +0.000 OA
ATOM     12  C   UNL     1       0.562   9.150  20.560  0.00  0.00    +0.000 A 
ATOM     13  C   UNL     1      -0.300  10.112  21.091  0.00  0.00    +0.000 A 
ATOM     14  C   UNL     1      -0.493  11.257  20.308  0.00  0.00    +0.000 A 
ATOM     15  C   UNL     1       0.132  11.433  19.075  0.00  0.00    +0.000 A 
ATOM     16  C   UNL     1       0.990  10.454  18.568  0.00  0.00    +0.000 A 
ATOM     17  C   UNL     1       1.205   9.293  19.328  0.00  0.00    +0.000 A 
ATOM     18  C   UNL     1       1.968   8.126  19.165  0.00  0.00    +0.000 A 
ENDROOT
BRANCH   4  19
ATOM     19  O   UNL     1       4.671   6.342  16.311  0.00  0.00    +0.000 OA
ATOM     20  H   UNL     1       5.194   5.706  15.770  0.00  0.00    +0.000 HD
ENDBRANCH   4  19
BRANCH   6  21
ATOM     21  O   UNL     1       5.092   2.600  19.197  0.00  0.00    +0.000 OA
ATOM     22  H   UNL     1       5.793   2.411  18.549  0.00  0.00    +0.000 HD
ENDBRANCH   6  21
BRANCH  14  23
ATOM     23  O   UNL     1      -1.314  12.267  20.723  0.00  0.00    +0.000 OA
ATOM     24  H   UNL     1      -1.853  11.953  21.466  0.00  0.00    +0.000 HD
ENDBRANCH  14  23
TORSDOF 3
ENDMDL
MODEL 9
REMARK VINA RESULT:      -6.8      5.647      6.242
REMARK  Name = 
REMARK  3 active torsions:
REMARK  status: ('A' for Active; 'I' for Inactive)
REMARK    1  A    between atoms: C_4  and  O_5
REMARK    2  A    between atoms: C_7  and  O_8
REMARK    3  A    between atoms: C_16  and  O_17
REMARK                            x       y       z     vdW  Elec       q    Type
REMARK                         _______ _______ _______ _____ _____    ______ ____
ROOT
ATOM      1  O   UNL     1       1.601   7.125  21.003  0.00  0.00    +0.000 OA
ATOM      2  C   UNL     1       1.729   7.818  19.997  0.00  0.00    +0.000 A 
ATOM      3  C   UNL     1       0.993   9.098  19.850  0.00  0.00    +0.000 A 
ATOM      4  C   UNL     1       0.135   9.534  20.864  0.00  0.00    +0.000 A 
ATOM      5  C   UNL     1      -0.555  10.733  20.726  0.00  0.00    +0.000 A 
ATOM      6  C   UNL     1      -0.384  11.491  19.569  0.00  0.00    +0.000 A 
ATOM      7  C   UNL     1       0.469  11.077  18.543  0.00  0.00    +0.000 A 
ATOM      8  C   UNL     1       1.163   9.876  18.678  0.00  0.00    +0.000 A 
ATOM      9  O   UNL     1       2.004   9.489  17.638  0.00  0.00    +0.000 OA
ATOM     10  C   UNL     1       2.637   8.334  17.826  0.00  0.00    +0.000 A 
ATOM     11  O   UNL     1       3.478   7.872  16.869  0.00  0.00    +0.000 OA
ATOM     12  C   UNL     1       3.967   6.679  17.352  0.00  0.00    +0.000 A 
ATOM     13  C   UNL     1       4.874   5.835  16.707  0.00  0.00    +0.000 A 
ATOM     14  C   UNL     1       5.223   4.670  17.401  0.00  0.00    +0.000 A 
ATOM     15  C   UNL     1       4.701   4.364  18.656  0.00  0.00    +0.000 A 
ATOM     16  C   UNL     1       3.795   5.226  19.277  0.00  0.00    +0.000 A 
ATOM     17  C   UNL     1       3.424   6.404  18.608  0.00  0.00    +0.000 A 
ATOM     18  C   UNL     1       2.572   7.483  18.894  0.00  0.00    +0.000 A 
ENDROOT
BRANCH   4  19
ATOM     19  O   UNL     1      -0.076   8.836  22.023  0.00  0.00    +0.000 OA
ATOM     20  H   UNL     1      -0.919   9.141  22.432  0.00  0.00    +0.000 HD
ENDBRANCH   4  19
BRANCH   6  21
ATOM     21  O   UNL     1      -1.048  12.671  19.405  0.00  0.00    +0.000 OA
ATOM     22  H   UNL     1      -0.437  13.325  19.023  0.00  0.00    +0.000 HD
ENDBRANCH   6  21
BRANCH  14  23
ATOM     23  O   UNL     1       6.102   3.768  16.872  0.00  0.00    +0.000 OA
ATOM     24  H   UNL     1       6.692   4.226  16.251  0.00  0.00    +0.000 HD
ENDBRANCH  14  23
TORSDOF 3
ENDMDL
