MODEL 1
REMARK VINA RESULT:      -6.7      0.000      0.000
REMARK  Name = 
REMARK  11 active torsions:
REMARK  status: ('A' for Active; 'I' for Inactive)
REMARK    1  A    between atoms: C_1  and  C_2
REMARK    2  A    between atoms: C_2  and  C_3
REMARK    3  A    between atoms: C_3  and  C_4
REMARK    4  A    between atoms: C_4  and  C_5
REMARK    5  A    between atoms: C_5  and  C_6
REMARK    6  A    between atoms: C_6  and  N_7
REMARK    7  A    between atoms: N_7  and  C_8
REMARK    8  A    between atoms: C_8  and  N_10
REMARK    9  A    between atoms: N_10  and  C_11
REMARK   10  A    between atoms: C_14  and  C_15
REMARK   11  A    between atoms: N_20  and  C_21
REMARK                            x       y       z     vdW  Elec       q    Type
REMARK                         _______ _______ _______ _____ _____    ______ ____
ROOT
ATOM      1  C   UNL     1       3.578   6.222  18.266  0.00  0.00    +0.000 A 
ATOM      2  C   UNL     1       2.901   6.010  19.468  0.00  0.00    +0.000 A 
ATOM      3  C   UNL     1       2.050   6.993  19.994  0.00  0.00    +0.000 A 
ATOM      4  C   UNL     1       1.879   8.200  19.312  0.00  0.00    +0.000 A 
ATOM      5  C   UNL     1       2.583   8.417  18.123  0.00  0.00    +0.000 A 
ATOM      6  C   UNL     1       3.411   7.433  17.591  0.00  0.00    +0.000 A 
ENDROOT
BRANCH   4   7
ATOM      7  C   UNL     1       1.073   9.276  19.924  0.00  0.00    +0.000 A 
ATOM      8  N   UNL     1       1.212   9.614  21.194  0.00  0.00    +0.000 NA
ATOM      9  N   UNL     1       0.347  10.655  21.353  0.00  0.00    +0.000 N 
ATOM     10  C   UNL     1      -0.327  10.932  20.174  0.00  0.00    +0.000 A 
ATOM     11  S   UNL     1      -1.449  12.130  20.015  0.00  0.00    +0.000 S 
ATOM     12  N   UNL     1       0.145  10.020  19.247  0.00  0.00    +0.000 N 
ATOM     13  C   UNL     1      -0.384   9.812  17.909  0.00  0.00    +0.000 C 
ATOM     14  H   UNL     1       0.241  11.137  22.240  0.00  0.00    +0.000 HD
ENDBRANCH   4   7
BRANCH   1  15
ATOM     15  N   UNL     1       4.529   5.332  17.773  0.00  0.00    +0.000 N 
ATOM     16  H   UNL     1       4.312   4.857  16.908  0.00  0.00    +0.000 HD
BRANCH  15  17
ATOM     17  C   UNL     1       5.616   4.805  18.410  0.00  0.00    +0.000 C 
ATOM     18  S   UNL     1       6.933   5.646  19.000  0.00  0.00    +0.000 S 
BRANCH  17  19
ATOM     19  N   UNL     1       5.501   3.463  18.662  0.00  0.00    +0.000 N 
ATOM     20  H   UNL     1       6.198   2.876  18.216  0.00  0.00    +0.000 HD
BRANCH  19  21
ATOM     21  C   UNL     1       4.312   2.824  19.218  0.00  0.00    +0.000 C 
BRANCH  21  22
ATOM     22  C   UNL     1       3.463   2.032  18.212  0.00  0.00    +0.000 C 
BRANCH  22  23
ATOM     23  C   UNL     1       2.085   2.662  17.964  0.00  0.00    +0.000 C 
BRANCH  23  24
ATOM     24  C   UNL     1       1.031   2.184  18.971  0.00  0.00    +0.000 C 
BRANCH  24  26
ATOM     25  C   UNL     1       1.382   2.787  21.397  0.00  0.00    +0.000 C 
ATOM     26  C   UNL     1       0.801   3.232  20.063  0.00  0.00    +0.000 C 
ENDBRANCH  24  26
ENDBRANCH  23  24
ENDBRANCH  22  23
ENDBRANCH  21  22
ENDBRANCH  19  21
ENDBRANCH  17  19
ENDBRANCH  15  17
ENDBRANCH   1  15
TORSDOF 9
ENDMDL
MODEL 2
REMARK VINA RESULT:      -6.4      1.182      1.680
REMARK  Name = 
REMARK  11 active torsions:
REMARK  status: ('A' for Active; 'I' for Inactive)
REMARK    1  A    between atoms: C_1  and  C_2
REMARK    2  A    between atoms: C_2  and  C_3
REMARK    3  A    between atoms: C_3  and  C_4
REMARK    4  A    between atoms: C_4  and  C_5
REMARK    5  A    between atoms: C_5  and  C_6
REMARK    6  A    between atoms: C_6  and  N_7
REMARK    7  A    between atoms: N_7  and  C_8
REMARK    8  A    between atoms: C_8  and  N_10
REMARK    9  A    between atoms: N_10  and  C_11
REMARK   10  A    between atoms: C_14  and  C_15
REMARK   11  A    between atoms: N_20  and  C_21
REMARK                            x       y       z     vdW  Elec       q    Type
REMARK                         _______ _______ _______ _____ _____    ______ ____
ROOT
ATOM      1  C   UNL     1       4.005   6.070  18.577  0.00  0.00    +0.000 A 
ATOM      2  C   UNL     1       3.092   6.085  19.633  0.00  0.00    +0.000 A 
ATOM      3  C   UNL     1       2.117   7.090  19.723  0.00  0.00    +0.000 A 
ATOM      4  C   UNL     1       2.060   8.089  18.750  0.00  0.00    +0.000 A 
ATOM      5  C   UNL     1       2.996   8.084  17.711  0.00  0.00    +0.000 A 
ATOM      6  C   UNL     1       3.949   7.076  17.610  0.00  0.00    +0.000 A 
ENDROOT
BRANCH   4   7
ATOM      7  C   UNL     1       1.108   9.208  18.907  0.00  0.00    +0.000 A 
ATOM      8  N   UNL     1       0.540   9.791  17.866  0.00  0.00    +0.000 NA
ATOM      9  N   UNL     1      -0.288  10.720  18.422  0.00  0.00    +0.000 N 
ATOM     10  C   UNL     1      -0.204  10.704  19.805  0.00  0.00    +0.000 A 
ATOM     11  S   UNL     1      -1.072  11.701  20.791  0.00  0.00    +0.000 S 
ATOM     12  N   UNL     1       0.719   9.721  20.115  0.00  0.00    +0.000 N 
ATOM     13  C   UNL     1       1.262   9.447  21.434  0.00  0.00    +0.000 C 
ATOM     14  H   UNL     1      -0.875  11.325  17.856  0.00  0.00    +0.000 HD
ENDBRANCH   4   7
BRANCH   1  15
ATOM     15  N   UNL     1       5.067   5.171  18.517  0.00  0.00    +0.000 N 
ATOM     16  H   UNL     1       5.921   5.433  18.990  0.00  0.00    +0.000 HD
BRANCH  15  17
ATOM     17  C   UNL     1       5.224   4.089  17.698  0.00  0.00    +0.000 C 
ATOM     18  S   UNL     1       6.044   4.047  16.243  0.00  0.00    +0.000 S 
BRANCH  17  19
ATOM     19  N   UNL     1       4.738   2.926  18.236  0.00  0.00    +0.000 N 
ATOM     20  H   UNL     1       5.400   2.394  18.790  0.00  0.00    +0.000 HD
BRANCH  19  21
ATOM     21  C   UNL     1       3.506   2.267  17.809  0.00  0.00    +0.000 C 
BRANCH  21  22
ATOM     22  C   UNL     1       2.356   3.213  17.429  0.00  0.00    +0.000 C 
BRANCH  22  23
ATOM     23  C   UNL     1       1.129   3.060  18.339  0.00  0.00    +0.000 C 
BRANCH  23  24
ATOM     24  C   UNL     1       1.406   2.162  19.552  0.00  0.00    +0.000 C 
BRANCH  24  26
ATOM     25  C   UNL     1       2.428   3.135  21.645  0.00  0.00    +0.000 C 
ATOM     26  C   UNL     1       1.144   2.912  20.860  0.00  0.00    +0.000 C 
ENDBRANCH  24  26
ENDBRANCH  23  24
ENDBRANCH  22  23
ENDBRANCH  21  22
ENDBRANCH  19  21
ENDBRANCH  17  19
ENDBRANCH  15  17
ENDBRANCH   1  15
TORSDOF 9
ENDMDL
MODEL 3
REMARK VINA RESULT:      -6.4      2.129      3.969
REMARK  Name = 
REMARK  11 active torsions:
REMARK  status: ('A' for Active; 'I' for Inactive)
REMARK    1  A    between atoms: C_1  and  C_2
REMARK    2  A    between atoms: C_2  and  C_3
REMARK    3  A    between atoms: C_3  and  C_4
REMARK    4  A    between atoms: C_4  and  C_5
REMARK    5  A    between atoms: C_5  and  C_6
REMARK    6  A    between atoms: C_6  and  N_7
REMARK    7  A    between atoms: N_7  and  C_8
REMARK    8  A    between atoms: C_8  and  N_10
REMARK    9  A    between atoms: N_10  and  C_11
REMARK   10  A    between atoms: C_14  and  C_15
REMARK   11  A    between atoms: N_20  and  C_21
REMARK                            x       y       z     vdW  Elec       q    Type
REMARK                         _______ _______ _______ _____ _____    ______ ____
ROOT
ATOM      1  C   UNL     1       2.826   5.325  18.234  0.00  0.00    +0.000 A 
ATOM      2  C   UNL     1       3.054   6.649  17.852  0.00  0.00    +0.000 A 
ATOM      3  C   UNL     1       2.616   7.712  18.655  0.00  0.00    +0.000 A 
ATOM      4  C   UNL     1       1.939   7.447  19.848  0.00  0.00    +0.000 A 
ATOM      5  C   UNL     1       1.689   6.120  20.209  0.00  0.00    +0.000 A 
ATOM      6  C   UNL     1       2.143   5.065  19.424  0.00  0.00    +0.000 A 
ENDROOT
BRANCH   4   7
ATOM      7  C   UNL     1       1.379   8.566  20.633  0.00  0.00    +0.000 A 
ATOM      8  N   UNL     1       1.382   8.559  21.954  0.00  0.00    +0.000 NA
ATOM      9  N   UNL     1       0.835   9.762  22.290  0.00  0.00    +0.000 N 
ATOM     10  C   UNL     1       0.489  10.488  21.161  0.00  0.00    +0.000 A 
ATOM     11  S   UNL     1      -0.198  11.986  21.207  0.00  0.00    +0.000 S 
ATOM     12  N   UNL     1       0.837   9.695  20.082  0.00  0.00    +0.000 N 
ATOM     13  C   UNL     1       0.516   9.962  18.690  0.00  0.00    +0.000 C 
ATOM     14  H   UNL     1       0.716  10.049  23.257  0.00  0.00    +0.000 HD
ENDBRANCH   4   7
BRANCH   1  15
ATOM     15  N   UNL     1       3.127   4.244  17.410  0.00  0.00    +0.000 N 
ATOM     16  H   UNL     1       2.564   4.124  16.581  0.00  0.00    +0.000 HD
BRANCH  15  17
ATOM     17  C   UNL     1       3.914   3.159  17.678  0.00  0.00    +0.000 C 
ATOM     18  S   UNL     1       3.443   1.745  18.430  0.00  0.00    +0.000 S 
BRANCH  17  19
ATOM     19  N   UNL     1       5.174   3.259  17.149  0.00  0.00    +0.000 N 
ATOM     20  H   UNL     1       5.928   2.976  17.766  0.00  0.00    +0.000 HD
BRANCH  19  21
ATOM     21  C   UNL     1       5.511   4.019  15.949  0.00  0.00    +0.000 C 
BRANCH  21  22
ATOM     22  C   UNL     1       6.700   4.981  16.096  0.00  0.00    +0.000 C 
BRANCH  22  23
ATOM     23  C   UNL     1       7.490   4.764  17.394  0.00  0.00    +0.000 C 
BRANCH  23  24
ATOM     24  C   UNL     1       7.477   5.999  18.304  0.00  0.00    +0.000 C 
BRANCH  24  26
ATOM     25  C   UNL     1       8.167   8.396  17.923  0.00  0.00    +0.000 C 
ATOM     26  C   UNL     1       7.234   7.274  17.493  0.00  0.00    +0.000 C 
ENDBRANCH  24  26
ENDBRANCH  23  24
ENDBRANCH  22  23
ENDBRANCH  21  22
ENDBRANCH  19  21
ENDBRANCH  17  19
ENDBRANCH  15  17
ENDBRANCH   1  15
TORSDOF 9
ENDMDL
MODEL 4
REMARK VINA RESULT:      -6.4      2.645      4.057
REMARK  Name = 
REMARK  11 active torsions:
REMARK  status: ('A' for Active; 'I' for Inactive)
REMARK    1  A    between atoms: C_1  and  C_2
REMARK    2  A    between atoms: C_2  and  C_3
REMARK    3  A    between atoms: C_3  and  C_4
REMARK    4  A    between atoms: C_4  and  C_5
REMARK    5  A    between atoms: C_5  and  C_6
REMARK    6  A    between atoms: C_6  and  N_7
REMARK    7  A    between atoms: N_7  and  C_8
REMARK    8  A    between atoms: C_8  and  N_10
REMARK    9  A    between atoms: N_10  and  C_11
REMARK   10  A    between atoms: C_14  and  C_15
REMARK   11  A    between atoms: N_20  and  C_21
REMARK                            x       y       z     vdW  Elec       q    Type
REMARK                         _______ _______ _______ _____ _____    ______ ____
ROOT
ATOM      1  C   UNL     1       2.227   7.478  19.557  0.00  0.00    +0.000 A 
ATOM      2  C   UNL     1       1.512   8.158  20.545  0.00  0.00    +0.000 A 
ATOM      3  C   UNL     1       0.813   9.336  20.241  0.00  0.00    +0.000 A 
ATOM      4  C   UNL     1       0.835   9.839  18.938  0.00  0.00    +0.000 A 
ATOM      5  C   UNL     1       1.578   9.168  17.961  0.00  0.00    +0.000 A 
ATOM      6  C   UNL     1       2.253   7.989  18.258  0.00  0.00    +0.000 A 
ENDROOT
BRANCH   4   7
ATOM      7  C   UNL     1       0.195  11.138  18.647  0.00  0.00    +0.000 A 
ATOM      8  N   UNL     1      -0.942  11.219  17.978  0.00  0.00    +0.000 NA
ATOM      9  N   UNL     1      -1.219  12.554  17.962  0.00  0.00    +0.000 N 
ATOM     10  C   UNL     1      -0.232  13.279  18.612  0.00  0.00    +0.000 A 
ATOM     11  S   UNL     1      -0.253  14.919  18.775  0.00  0.00    +0.000 S 
ATOM     12  N   UNL     1       0.694  12.348  19.047  0.00  0.00    +0.000 N 
ATOM     13  C   UNL     1       1.988  12.644  19.638  0.00  0.00    +0.000 C 
ATOM     14  H   UNL     1      -2.053  12.925  17.519  0.00  0.00    +0.000 HD
ENDBRANCH   4   7
BRANCH   1  15
ATOM     15  N   UNL     1       3.037   6.382  19.838  0.00  0.00    +0.000 N 
ATOM     16  H   UNL     1       4.036   6.531  19.825  0.00  0.00    +0.000 HD
BRANCH  15  17
ATOM     17  C   UNL     1       2.699   5.059  19.885  0.00  0.00    +0.000 C 
ATOM     18  S   UNL     1       1.270   4.414  20.460  0.00  0.00    +0.000 S 
BRANCH  17  19
ATOM     19  N   UNL     1       3.616   4.241  19.279  0.00  0.00    +0.000 N 
ATOM     20  H   UNL     1       4.566   4.325  19.623  0.00  0.00    +0.000 HD
BRANCH  19  21
ATOM     21  C   UNL     1       3.398   3.545  18.014  0.00  0.00    +0.000 C 
BRANCH  21  22
ATOM     22  C   UNL     1       4.463   3.798  16.936  0.00  0.00    +0.000 C 
BRANCH  22  23
ATOM     23  C   UNL     1       4.701   5.290  16.668  0.00  0.00    +0.000 C 
BRANCH  23  24
ATOM     24  C   UNL     1       5.548   5.533  15.412  0.00  0.00    +0.000 C 
BRANCH  24  26
ATOM     25  C   UNL     1       6.167   3.889  13.600  0.00  0.00    +0.000 C 
ATOM     26  C   UNL     1       6.367   4.291  15.053  0.00  0.00    +0.000 C 
ENDBRANCH  24  26
ENDBRANCH  23  24
ENDBRANCH  22  23
ENDBRANCH  21  22
ENDBRANCH  19  21
ENDBRANCH  17  19
ENDBRANCH  15  17
ENDBRANCH   1  15
TORSDOF 9
ENDMDL
MODEL 5
REMARK VINA RESULT:      -6.3      1.211      1.666
REMARK  Name = 
REMARK  11 active torsions:
REMARK  status: ('A' for Active; 'I' for Inactive)
REMARK    1  A    between atoms: C_1  and  C_2
REMARK    2  A    between atoms: C_2  and  C_3
REMARK    3  A    between atoms: C_3  and  C_4
REMARK    4  A    between atoms: C_4  and  C_5
REMARK    5  A    between atoms: C_5  and  C_6
REMARK    6  A    between atoms: C_6  and  N_7
REMARK    7  A    between atoms: N_7  and  C_8
REMARK    8  A    between atoms: C_8  and  N_10
REMARK    9  A    between atoms: N_10  and  C_11
REMARK   10  A    between atoms: C_14  and  C_15
REMARK   11  A    between atoms: N_20  and  C_21
REMARK                            x       y       z     vdW  Elec       q    Type
REMARK                         _______ _______ _______ _____ _____    ______ ____
ROOT
ATOM      1  C   UNL     1       3.358   7.083  18.054  0.00  0.00    +0.000 A 
ATOM      2  C   UNL     1       2.823   6.746  19.299  0.00  0.00    +0.000 A 
ATOM      3  C   UNL     1       1.859   7.561  19.909  0.00  0.00    +0.000 A 
ATOM      4  C   UNL     1       1.431   8.726  19.269  0.00  0.00    +0.000 A 
ATOM      5  C   UNL     1       1.992   9.073  18.036  0.00  0.00    +0.000 A 
ATOM      6  C   UNL     1       2.933   8.252  17.421  0.00  0.00    +0.000 A 
ENDROOT
BRANCH   4   7
ATOM      7  C   UNL     1       0.502   9.641  19.964  0.00  0.00    +0.000 A 
ATOM      8  N   UNL     1      -0.368  10.384  19.302  0.00  0.00    +0.000 NA
ATOM      9  N   UNL     1      -1.056  11.034  20.283  0.00  0.00    +0.000 N 
ATOM     10  C   UNL     1      -0.585  10.690  21.540  0.00  0.00    +0.000 A 
ATOM     11  S   UNL     1      -1.193  11.295  22.948  0.00  0.00    +0.000 S 
ATOM     12  N   UNL     1       0.441   9.788  21.323  0.00  0.00    +0.000 N 
ATOM     13  C   UNL     1       1.348   9.269  22.333  0.00  0.00    +0.000 C 
ATOM     14  H   UNL     1      -1.811  11.680  20.073  0.00  0.00    +0.000 HD
ENDBRANCH   4   7
BRANCH   1  15
ATOM     15  N   UNL     1       4.407   6.376  17.471  0.00  0.00    +0.000 N 
ATOM     16  H   UNL     1       4.613   6.571  16.502  0.00  0.00    +0.000 HD
BRANCH  15  17
ATOM     17  C   UNL     1       5.050   5.264  17.937  0.00  0.00    +0.000 C 
ATOM     18  S   UNL     1       6.235   5.215  19.112  0.00  0.00    +0.000 S 
BRANCH  17  19
ATOM     19  N   UNL     1       4.546   4.094  17.433  0.00  0.00    +0.000 N 
ATOM     20  H   UNL     1       4.351   4.098  16.437  0.00  0.00    +0.000 HD
BRANCH  19  21
ATOM     21  C   UNL     1       3.984   3.017  18.243  0.00  0.00    +0.000 C 
BRANCH  21  22
ATOM     22  C   UNL     1       2.619   2.488  17.773  0.00  0.00    +0.000 C 
BRANCH  22  23
ATOM     23  C   UNL     1       1.455   3.412  18.157  0.00  0.00    +0.000 C 
BRANCH  23  24
ATOM     24  C   UNL     1       0.730   2.945  19.426  0.00  0.00    +0.000 C 
BRANCH  24  26
ATOM     25  C   UNL     1       2.082   2.974  21.557  0.00  0.00    +0.000 C 
ATOM     26  C   UNL     1       1.164   3.769  20.640  0.00  0.00    +0.000 C 
ENDBRANCH  24  26
ENDBRANCH  23  24
ENDBRANCH  22  23
ENDBRANCH  21  22
ENDBRANCH  19  21
ENDBRANCH  17  19
ENDBRANCH  15  17
ENDBRANCH   1  15
TORSDOF 9
ENDMDL
MODEL 6
REMARK VINA RESULT:      -6.3      1.327      1.876
REMARK  Name = 
REMARK  11 active torsions:
REMARK  status: ('A' for Active; 'I' for Inactive)
REMARK    1  A    between atoms: C_1  and  C_2
REMARK    2  A    between atoms: C_2  and  C_3
REMARK    3  A    between atoms: C_3  and  C_4
REMARK    4  A    between atoms: C_4  and  C_5
REMARK    5  A    between atoms: C_5  and  C_6
REMARK    6  A    between atoms: C_6  and  N_7
REMARK    7  A    between atoms: N_7  and  C_8
REMARK    8  A    between atoms: C_8  and  N_10
REMARK    9  A    between atoms: N_10  and  C_11
REMARK   10  A    between atoms: C_14  and  C_15
REMARK   11  A    between atoms: N_20  and  C_21
REMARK                            x       y       z     vdW  Elec       q    Type
REMARK                         _______ _______ _______ _____ _____    ______ ____
ROOT
ATOM      1  C   UNL     1       2.460   7.345  18.602  0.00  0.00    +0.000 A 
ATOM      2  C   UNL     1       2.190   8.489  17.850  0.00  0.00    +0.000 A 
ATOM      3  C   UNL     1       1.536   9.588  18.427  0.00  0.00    +0.000 A 
ATOM      4  C   UNL     1       1.147   9.538  19.767  0.00  0.00    +0.000 A 
ATOM      5  C   UNL     1       1.395   8.377  20.507  0.00  0.00    +0.000 A 
ATOM      6  C   UNL     1       2.062   7.295  19.940  0.00  0.00    +0.000 A 
ENDROOT
BRANCH   4   7
ATOM      7  C   UNL     1       0.359  10.649  20.341  0.00  0.00    +0.000 A 
ATOM      8  N   UNL     1       0.761  11.304  21.416  0.00  0.00    +0.000 NA
ATOM      9  N   UNL     1      -0.193  12.262  21.591  0.00  0.00    +0.000 N 
ATOM     10  C   UNL     1      -1.181  12.169  20.623  0.00  0.00    +0.000 A 
ATOM     11  S   UNL     1      -2.486  13.174  20.542  0.00  0.00    +0.000 S 
ATOM     12  N   UNL     1      -0.819  11.105  19.816  0.00  0.00    +0.000 N 
ATOM     13  C   UNL     1      -1.630  10.520  18.762  0.00  0.00    +0.000 C 
ATOM     14  H   UNL     1      -0.146  12.937  22.348  0.00  0.00    +0.000 HD
ENDBRANCH   4   7
BRANCH   1  15
ATOM     15  N   UNL     1       2.988   6.185  18.041  0.00  0.00    +0.000 N 
ATOM     16  H   UNL     1       2.363   5.398  17.933  0.00  0.00    +0.000 HD
BRANCH  15  17
ATOM     17  C   UNL     1       4.298   5.854  17.838  0.00  0.00    +0.000 C 
ATOM     18  S   UNL     1       5.323   6.492  16.685  0.00  0.00    +0.000 S 
BRANCH  17  19
ATOM     19  N   UNL     1       4.792   4.992  18.782  0.00  0.00    +0.000 N 
ATOM     20  H   UNL     1       5.630   5.305  19.259  0.00  0.00    +0.000 HD
BRANCH  19  21
ATOM     21  C   UNL     1       4.414   3.586  18.899  0.00  0.00    +0.000 C 
BRANCH  21  22
ATOM     22  C   UNL     1       3.958   2.919  17.592  0.00  0.00    +0.000 C 
BRANCH  22  23
ATOM     23  C   UNL     1       2.515   2.399  17.656  0.00  0.00    +0.000 C 
BRANCH  23  24
ATOM     24  C   UNL     1       2.068   2.083  19.088  0.00  0.00    +0.000 C 
BRANCH  24  26
ATOM     25  C   UNL     1       1.059   3.875  20.550  0.00  0.00    +0.000 C 
ATOM     26  C   UNL     1       0.799   2.857  19.450  0.00  0.00    +0.000 C 
ENDBRANCH  24  26
ENDBRANCH  23  24
ENDBRANCH  22  23
ENDBRANCH  21  22
ENDBRANCH  19  21
ENDBRANCH  17  19
ENDBRANCH  15  17
ENDBRANCH   1  15
TORSDOF 9
ENDMDL
MODEL 7
REMARK VINA RESULT:      -6.3      1.093      1.872
REMARK  Name = 
REMARK  11 active torsions:
REMARK  status: ('A' for Active; 'I' for Inactive)
REMARK    1  A    between atoms: C_1  and  C_2
REMARK    2  A    between atoms: C_2  and  C_3
REMARK    3  A    between atoms: C_3  and  C_4
REMARK    4  A    between atoms: C_4  and  C_5
REMARK    5  A    between atoms: C_5  and  C_6
REMARK    6  A    between atoms: C_6  and  N_7
REMARK    7  A    between atoms: N_7  and  C_8
REMARK    8  A    between atoms: C_8  and  N_10
REMARK    9  A    between atoms: N_10  and  C_11
REMARK   10  A    between atoms: C_14  and  C_15
REMARK   11  A    between atoms: N_20  and  C_21
REMARK                            x       y       z     vdW  Elec       q    Type
REMARK                         _______ _______ _______ _____ _____    ______ ____
ROOT
ATOM      1  C   UNL     1       3.429   6.726  17.974  0.00  0.00    +0.000 A 
ATOM      2  C   UNL     1       3.124   7.952  17.380  0.00  0.00    +0.000 A 
ATOM      3  C   UNL     1       2.280   8.870  18.023  0.00  0.00    +0.000 A 
ATOM      4  C   UNL     1       1.734   8.555  19.269  0.00  0.00    +0.000 A 
ATOM      5  C   UNL     1       2.020   7.312  19.845  0.00  0.00    +0.000 A 
ATOM      6  C   UNL     1       2.874   6.412  19.216  0.00  0.00    +0.000 A 
ENDROOT
BRANCH   4   7
ATOM      7  C   UNL     1       0.757   9.472  19.891  0.00  0.00    +0.000 A 
ATOM      8  N   UNL     1      -0.090  10.182  19.167  0.00  0.00    +0.000 NA
ATOM      9  N   UNL     1      -0.836  10.847  20.094  0.00  0.00    +0.000 N 
ATOM     10  C   UNL     1      -0.423  10.545  21.382  0.00  0.00    +0.000 A 
ATOM     11  S   UNL     1      -1.110  11.177  22.740  0.00  0.00    +0.000 S 
ATOM     12  N   UNL     1       0.626   9.654  21.241  0.00  0.00    +0.000 N 
ATOM     13  C   UNL     1       1.490   9.179  22.309  0.00  0.00    +0.000 C 
ATOM     14  H   UNL     1      -1.590  11.474  19.829  0.00  0.00    +0.000 HD
ENDBRANCH   4   7
BRANCH   1  15
ATOM     15  N   UNL     1       4.154   5.735  17.319  0.00  0.00    +0.000 N 
ATOM     16  H   UNL     1       3.850   5.477  16.391  0.00  0.00    +0.000 HD
BRANCH  15  17
ATOM     17  C   UNL     1       5.073   4.866  17.836  0.00  0.00    +0.000 C 
ATOM     18  S   UNL     1       6.420   5.260  18.741  0.00  0.00    +0.000 S 
BRANCH  17  19
ATOM     19  N   UNL     1       4.738   3.550  17.657  0.00  0.00    +0.000 N 
ATOM     20  H   UNL     1       4.695   3.240  16.692  0.00  0.00    +0.000 HD
BRANCH  19  21
ATOM     21  C   UNL     1       4.140   2.700  18.683  0.00  0.00    +0.000 C 
BRANCH  21  22
ATOM     22  C   UNL     1       2.738   2.164  18.353  0.00  0.00    +0.000 C 
BRANCH  22  23
ATOM     23  C   UNL     1       1.646   3.238  18.456  0.00  0.00    +0.000 C 
BRANCH  23  24
ATOM     24  C   UNL     1       0.661   2.966  19.600  0.00  0.00    +0.000 C 
BRANCH  24  26
ATOM     25  C   UNL     1       2.088   3.820  21.498  0.00  0.00    +0.000 C 
ATOM     26  C   UNL     1       1.403   2.606  20.889  0.00  0.00    +0.000 C 
ENDBRANCH  24  26
ENDBRANCH  23  24
ENDBRANCH  22  23
ENDBRANCH  21  22
ENDBRANCH  19  21
ENDBRANCH  17  19
ENDBRANCH  15  17
ENDBRANCH   1  15
TORSDOF 9
ENDMDL
MODEL 8
REMARK VINA RESULT:      -6.3      2.077      3.837
REMARK  Name = 
REMARK  11 active torsions:
REMARK  status: ('A' for Active; 'I' for Inactive)
REMARK    1  A    between atoms: C_1  and  C_2
REMARK    2  A    between atoms: C_2  and  C_3
REMARK    3  A    between atoms: C_3  and  C_4
REMARK    4  A    between atoms: C_4  and  C_5
REMARK    5  A    between atoms: C_5  and  C_6
REMARK    6  A    between atoms: C_6  and  N_7
REMARK    7  A    between atoms: N_7  and  C_8
REMARK    8  A    between atoms: C_8  and  N_10
REMARK    9  A    between atoms: N_10  and  C_11
REMARK   10  A    between atoms: C_14  and  C_15
REMARK   11  A    between atoms: N_20  and  C_21
REMARK                            x       y       z     vdW  Elec       q    Type
REMARK                         _______ _______ _______ _____ _____    ______ ____
ROOT
ATOM      1  C   UNL     1       3.254   5.241  19.292  0.00  0.00    +0.000 A 
ATOM      2  C   UNL     1       2.405   5.218  20.400  0.00  0.00    +0.000 A 
ATOM      3  C   UNL     1       1.691   6.364  20.780  0.00  0.00    +0.000 A 
ATOM      4  C   UNL     1       1.831   7.543  20.045  0.00  0.00    +0.000 A 
ATOM      5  C   UNL     1       2.705   7.567  18.953  0.00  0.00    +0.000 A 
ATOM      6  C   UNL     1       3.397   6.424  18.565  0.00  0.00    +0.000 A 
ENDROOT
BRANCH   4   7
ATOM      7  C   UNL     1       1.167   8.777  20.512  0.00  0.00    +0.000 A 
ATOM      8  N   UNL     1       1.004   9.036  21.797  0.00  0.00    +0.000 NA
ATOM      9  N   UNL     1       0.410  10.263  21.812  0.00  0.00    +0.000 N 
ATOM     10  C   UNL     1       0.200  10.735  20.525  0.00  0.00    +0.000 A 
ATOM     11  S   UNL     1      -0.501  12.186  20.181  0.00  0.00    +0.000 S 
ATOM     12  N   UNL     1       0.687   9.753  19.681  0.00  0.00    +0.000 N 
ATOM     13  C   UNL     1       0.540   9.722  18.235  0.00  0.00    +0.000 C 
ATOM     14  H   UNL     1       0.168  10.734  22.678  0.00  0.00    +0.000 HD
ENDBRANCH   4   7
BRANCH   1  15
ATOM     15  N   UNL     1       4.079   4.170  18.956  0.00  0.00    +0.000 N 
ATOM     16  H   UNL     1       5.013   4.170  19.340  0.00  0.00    +0.000 HD
BRANCH  15  17
ATOM     17  C   UNL     1       3.907   3.234  17.976  0.00  0.00    +0.000 C 
ATOM     18  S   UNL     1       2.551   2.292  17.722  0.00  0.00    +0.000 S 
BRANCH  17  19
ATOM     19  N   UNL     1       4.938   3.195  17.075  0.00  0.00    +0.000 N 
ATOM     20  H   UNL     1       5.454   2.321  17.044  0.00  0.00    +0.000 HD
BRANCH  19  21
ATOM     21  C   UNL     1       5.528   4.369  16.439  0.00  0.00    +0.000 C 
BRANCH  21  22
ATOM     22  C   UNL     1       7.063   4.430  16.472  0.00  0.00    +0.000 C 
BRANCH  22  23
ATOM     23  C   UNL     1       7.616   4.881  17.831  0.00  0.00    +0.000 C 
BRANCH  23  24
ATOM     24  C   UNL     1       7.057   6.240  18.270  0.00  0.00    +0.000 C 
BRANCH  24  26
ATOM     25  C   UNL     1       8.160   8.495  18.002  0.00  0.00    +0.000 C 
ATOM     26  C   UNL     1       7.465   7.344  17.291  0.00  0.00    +0.000 C 
ENDBRANCH  24  26
ENDBRANCH  23  24
ENDBRANCH  22  23
ENDBRANCH  21  22
ENDBRANCH  19  21
ENDBRANCH  17  19
ENDBRANCH  15  17
ENDBRANCH   1  15
TORSDOF 9
ENDMDL
MODEL 9
REMARK VINA RESULT:      -6.3      1.313      1.573
REMARK  Name = 
REMARK  11 active torsions:
REMARK  status: ('A' for Active; 'I' for Inactive)
REMARK    1  A    between atoms: C_1  and  C_2
REMARK    2  A    between atoms: C_2  and  C_3
REMARK    3  A    between atoms: C_3  and  C_4
REMARK    4  A    between atoms: C_4  and  C_5
REMARK    5  A    between atoms: C_5  and  C_6
REMARK    6  A    between atoms: C_6  and  N_7
REMARK    7  A    between atoms: N_7  and  C_8
REMARK    8  A    between atoms: C_8  and  N_10
REMARK    9  A    between atoms: N_10  and  C_11
REMARK   10  A    between atoms: C_14  and  C_15
REMARK   11  A    between atoms: N_20  and  C_21
REMARK                            x       y       z     vdW  Elec       q    Type
REMARK                         _______ _______ _______ _____ _____    ______ ____
ROOT
ATOM      1  C   UNL     1       2.682   6.676  19.170  0.00  0.00    +0.000 A 
ATOM      2  C   UNL     1       2.052   6.694  20.416  0.00  0.00    +0.000 A 
ATOM      3  C   UNL     1       1.287   7.799  20.817  0.00  0.00    +0.000 A 
ATOM      4  C   UNL     1       1.155   8.896  19.963  0.00  0.00    +0.000 A 
ATOM      5  C   UNL     1       1.812   8.884  18.729  0.00  0.00    +0.000 A 
ATOM      6  C   UNL     1       2.554   7.779  18.324  0.00  0.00    +0.000 A 
ENDROOT
BRANCH   4   7
ATOM      7  C   UNL     1       0.444  10.104  20.432  0.00  0.00    +0.000 A 
ATOM      8  N   UNL     1       0.776  10.714  21.556  0.00  0.00    +0.000 NA
ATOM      9  N   UNL     1      -0.064  11.787  21.607  0.00  0.00    +0.000 N 
ATOM     10  C   UNL     1      -0.915  11.810  20.513  0.00  0.00    +0.000 A 
ATOM     11  S   UNL     1      -2.059  12.971  20.263  0.00  0.00    +0.000 S 
ATOM     12  N   UNL     1      -0.585  10.701  19.756  0.00  0.00    +0.000 N 
ATOM     13  C   UNL     1      -1.314  10.211  18.597  0.00  0.00    +0.000 C 
ATOM     14  H   UNL     1      -0.034  12.459  22.368  0.00  0.00    +0.000 HD
ENDBRANCH   4   7
BRANCH   1  15
ATOM     15  N   UNL     1       3.553   5.661  18.785  0.00  0.00    +0.000 N 
ATOM     16  H   UNL     1       4.002   5.133  19.520  0.00  0.00    +0.000 HD
BRANCH  15  17
ATOM     17  C   UNL     1       4.098   5.425  17.554  0.00  0.00    +0.000 C 
ATOM     18  S   UNL     1       5.374   6.242  16.853  0.00  0.00    +0.000 S 
BRANCH  17  19
ATOM     19  N   UNL     1       3.577   4.320  16.932  0.00  0.00    +0.000 N 
ATOM     20  H   UNL     1       4.015   4.071  16.052  0.00  0.00    +0.000 HD
BRANCH  19  21
ATOM     21  C   UNL     1       2.289   3.715  17.260  0.00  0.00    +0.000 C 
BRANCH  21  22
ATOM     22  C   UNL     1       2.366   2.342  17.946  0.00  0.00    +0.000 C 
BRANCH  22  23
ATOM     23  C   UNL     1       1.172   2.066  18.870  0.00  0.00    +0.000 C 
BRANCH  23  24
ATOM     24  C   UNL     1       0.863   3.246  19.799  0.00  0.00    +0.000 C 
BRANCH  24  26
ATOM     25  C   UNL     1       2.638   2.938  21.566  0.00  0.00    +0.000 C 
ATOM     26  C   UNL     1       1.149   2.886  21.258  0.00  0.00    +0.000 C 
ENDBRANCH  24  26
ENDBRANCH  23  24
ENDBRANCH  22  23
ENDBRANCH  21  22
ENDBRANCH  19  21
ENDBRANCH  17  19
ENDBRANCH  15  17
ENDBRANCH   1  15
TORSDOF 9
ENDMDL
