MODEL 1
REMARK VINA RESULT:      -6.3      0.000      0.000
REMARK  Name = 
REMARK  19 active torsions:
REMARK  status: ('A' for Active; 'I' for Inactive)
REMARK    1  A    between atoms: C_1  and  C_2
REMARK    2  A    between atoms: C_2  and  C_3
REMARK    3  A    between atoms: C_3  and  C_4
REMARK    4  A    between atoms: C_4  and  C_5
REMARK    5  A    between atoms: C_5  and  C_6
REMARK    6  A    between atoms: C_7  and  C_8
REMARK    7  A    between atoms: C_8  and  N_9
REMARK    8  A    between atoms: N_12  and  C_13
REMARK    9  A    between atoms: C_13  and  C_14
REMARK   10  A    between atoms: C_14  and  C_15
REMARK   11  A    between atoms: C_15  and  C_16
REMARK   12  A    between atoms: C_16  and  C_17
REMARK   13  A    between atoms: C_17  and  C_18
REMARK   14  A    between atoms: C_18  and  C_19
REMARK   15  A    between atoms: C_19  and  C_20
REMARK   16  A    between atoms: C_20  and  C_21
REMARK   17  A    between atoms: C_21  and  C_22
REMARK   18  A    between atoms: C_22  and  C_23
REMARK   19  A    between atoms: C_24  and  C_25
REMARK                            x       y       z     vdW  Elec       q    Type
REMARK                         _______ _______ _______ _____ _____    ______ ____
ROOT
ATOM      1  N   UNL     1       6.265   5.441  17.483  0.00  0.00    +0.000 N 
ATOM      2  C   UNL     1       6.281   5.524  18.863  0.00  0.00    +0.000 A 
ATOM      3  C   UNL     1       5.416   4.581  19.317  0.00  0.00    +0.000 A 
ATOM      4  N   UNL     1       4.909   3.927  18.197  0.00  0.00    +0.000 N 
ATOM      5  C   UNL     1       5.440   4.461  17.071  0.00  0.00    +0.000 A 
ATOM      6  C   UNL     1       5.172   4.062  15.655  0.00  0.00    +0.000 C 
ENDROOT
BRANCH   4   7
ATOM      7  C   UNL     1       3.923   2.841  18.230  0.00  0.00    +0.000 C 
BRANCH   7   8
ATOM      8  C   UNL     1       3.389   2.635  19.635  0.00  0.00    +0.000 C 
BRANCH   8   9
ATOM      9  C   UNL     1       1.864   2.604  19.636  0.00  0.00    +0.000 C 
BRANCH   9  10
ATOM     10  C   UNL     1       1.327   4.000  19.358  0.00  0.00    +0.000 C 
BRANCH  10  11
ATOM     11  C   UNL     1       1.594   4.900  20.549  0.00  0.00    +0.000 C 
BRANCH  11  12
ATOM     12  C   UNL     1       2.224   6.201  20.085  0.00  0.00    +0.000 C 
BRANCH  12  13
ATOM     13  C   UNL     1       2.293   6.227  18.570  0.00  0.00    +0.000 C 
BRANCH  13  14
ATOM     14  C   UNL     1       2.943   7.517  18.103  0.00  0.00    +0.000 C 
BRANCH  14  15
ATOM     15  C   UNL     1       1.879   8.493  17.629  0.00  0.00    +0.000 C 
BRANCH  15  16
ATOM     16  C   UNL     1       1.437   9.393  18.773  0.00  0.00    +0.000 C 
ATOM     17  C   UNL     1       0.131  10.078  18.428  0.00  0.00    +0.000 C 
ENDBRANCH  15  16
ENDBRANCH  14  15
ENDBRANCH  13  14
ENDBRANCH  12  13
ENDBRANCH  11  12
ENDBRANCH  10  11
ENDBRANCH   9  10
ENDBRANCH   8   9
ENDBRANCH   7   8
ENDBRANCH   4   7
BRANCH   1  18
ATOM     18  C   UNL     1       6.960   6.359  16.598  0.00  0.00    +0.000 C 
BRANCH  18  20
ATOM     19  C   UNL     1       8.193   8.357  18.166  0.00  0.00    +0.000 C 
ATOM     20  C   UNL     1       7.624   7.434  17.442  0.00  0.00    +0.000 C 
BRANCH  19  21
ATOM     21  C   UNL     1       8.857   9.433  19.010  0.00  0.00    +0.000 C 
BRANCH  21  22
ATOM     22  C   UNL     1       9.065  10.680  18.171  0.00  0.00    +0.000 C 
BRANCH  22  23
ATOM     23  C   UNL     1      10.232  11.488  18.717  0.00  0.00    +0.000 C 
BRANCH  23  25
ATOM     24  C   UNL     1      11.180  13.471  17.539  0.00  0.00    +0.000 C 
ATOM     25  C   UNL     1      11.134  11.955  17.583  0.00  0.00    +0.000 C 
ENDBRANCH  23  25
ENDBRANCH  22  23
ENDBRANCH  21  22
ENDBRANCH  19  21
ENDBRANCH  18  20
ENDBRANCH   1  18
TORSDOF 16
ENDMDL
MODEL 2
REMARK VINA RESULT:      -5.9      1.085      1.843
REMARK  Name = 
REMARK  19 active torsions:
REMARK  status: ('A' for Active; 'I' for Inactive)
REMARK    1  A    between atoms: C_1  and  C_2
REMARK    2  A    between atoms: C_2  and  C_3
REMARK    3  A    between atoms: C_3  and  C_4
REMARK    4  A    between atoms: C_4  and  C_5
REMARK    5  A    between atoms: C_5  and  C_6
REMARK    6  A    between atoms: C_7  and  C_8
REMARK    7  A    between atoms: C_8  and  N_9
REMARK    8  A    between atoms: N_12  and  C_13
REMARK    9  A    between atoms: C_13  and  C_14
REMARK   10  A    between atoms: C_14  and  C_15
REMARK   11  A    between atoms: C_15  and  C_16
REMARK   12  A    between atoms: C_16  and  C_17
REMARK   13  A    between atoms: C_17  and  C_18
REMARK   14  A    between atoms: C_18  and  C_19
REMARK   15  A    between atoms: C_19  and  C_20
REMARK   16  A    between atoms: C_20  and  C_21
REMARK   17  A    between atoms: C_21  and  C_22
REMARK   18  A    between atoms: C_22  and  C_23
REMARK   19  A    between atoms: C_24  and  C_25
REMARK                            x       y       z     vdW  Elec       q    Type
REMARK                         _______ _______ _______ _____ _____    ______ ____
ROOT
ATOM      1  N   UNL     1       6.197   4.620  17.281  0.00  0.00    +0.000 N 
ATOM      2  C   UNL     1       5.845   4.750  15.950  0.00  0.00    +0.000 A 
ATOM      3  C   UNL     1       4.598   4.226  15.827  0.00  0.00    +0.000 A 
ATOM      4  N   UNL     1       4.209   3.807  17.098  0.00  0.00    +0.000 N 
ATOM      5  C   UNL     1       5.199   4.057  17.988  0.00  0.00    +0.000 A 
ATOM      6  C   UNL     1       5.204   3.768  19.456  0.00  0.00    +0.000 C 
ENDROOT
BRANCH   4   7
ATOM      7  C   UNL     1       2.930   3.165  17.418  0.00  0.00    +0.000 C 
BRANCH   7   8
ATOM      8  C   UNL     1       1.829   4.196  17.575  0.00  0.00    +0.000 C 
BRANCH   8   9
ATOM      9  C   UNL     1       1.140   4.053  18.928  0.00  0.00    +0.000 C 
BRANCH   9  10
ATOM     10  C   UNL     1       2.065   4.560  20.024  0.00  0.00    +0.000 C 
BRANCH  10  11
ATOM     11  C   UNL     1       2.384   6.024  19.793  0.00  0.00    +0.000 C 
BRANCH  11  12
ATOM     12  C   UNL     1       1.665   6.880  20.819  0.00  0.00    +0.000 C 
BRANCH  12  13
ATOM     13  C   UNL     1       1.468   8.281  20.273  0.00  0.00    +0.000 C 
BRANCH  13  14
ATOM     14  C   UNL     1       2.145   8.409  18.920  0.00  0.00    +0.000 C 
BRANCH  14  15
ATOM     15  C   UNL     1       1.225   9.119  17.943  0.00  0.00    +0.000 C 
BRANCH  15  16
ATOM     16  C   UNL     1       0.614  10.353  18.590  0.00  0.00    +0.000 C 
ATOM     17  C   UNL     1      -0.892  10.344  18.422  0.00  0.00    +0.000 C 
ENDBRANCH  15  16
ENDBRANCH  14  15
ENDBRANCH  13  14
ENDBRANCH  12  13
ENDBRANCH  11  12
ENDBRANCH  10  11
ENDBRANCH   9  10
ENDBRANCH   8   9
ENDBRANCH   7   8
ENDBRANCH   4   7
BRANCH   1  18
ATOM     18  C   UNL     1       7.505   4.945  17.818  0.00  0.00    +0.000 C 
BRANCH  18  20
ATOM     19  C   UNL     1       7.815   7.752  17.788  0.00  0.00    +0.000 C 
ATOM     20  C   UNL     1       7.672   6.456  17.802  0.00  0.00    +0.000 C 
BRANCH  19  21
ATOM     21  C   UNL     1       7.982   9.263  17.770  0.00  0.00    +0.000 C 
BRANCH  21  22
ATOM     22  C   UNL     1       8.972   9.677  18.843  0.00  0.00    +0.000 C 
BRANCH  22  23
ATOM     23  C   UNL     1       9.248  11.169  18.750  0.00  0.00    +0.000 C 
BRANCH  23  25
ATOM     24  C   UNL     1      10.601  12.810  17.449  0.00  0.00    +0.000 C 
ATOM     25  C   UNL     1      10.582  11.424  18.065  0.00  0.00    +0.000 C 
ENDBRANCH  23  25
ENDBRANCH  22  23
ENDBRANCH  21  22
ENDBRANCH  19  21
ENDBRANCH  18  20
ENDBRANCH   1  18
TORSDOF 16
ENDMDL
MODEL 3
REMARK VINA RESULT:      -5.9      1.389      2.243
REMARK  Name = 
REMARK  19 active torsions:
REMARK  status: ('A' for Active; 'I' for Inactive)
REMARK    1  A    between atoms: C_1  and  C_2
REMARK    2  A    between atoms: C_2  and  C_3
REMARK    3  A    between atoms: C_3  and  C_4
REMARK    4  A    between atoms: C_4  and  C_5
REMARK    5  A    between atoms: C_5  and  C_6
REMARK    6  A    between atoms: C_7  and  C_8
REMARK    7  A    between atoms: C_8  and  N_9
REMARK    8  A    between atoms: N_12  and  C_13
REMARK    9  A    between atoms: C_13  and  C_14
REMARK   10  A    between atoms: C_14  and  C_15
REMARK   11  A    between atoms: C_15  and  C_16
REMARK   12  A    between atoms: C_16  and  C_17
REMARK   13  A    between atoms: C_17  and  C_18
REMARK   14  A    between atoms: C_18  and  C_19
REMARK   15  A    between atoms: C_19  and  C_20
REMARK   16  A    between atoms: C_20  and  C_21
REMARK   17  A    between atoms: C_21  and  C_22
REMARK   18  A    between atoms: C_22  and  C_23
REMARK   19  A    between atoms: C_24  and  C_25
REMARK                            x       y       z     vdW  Elec       q    Type
REMARK                         _______ _______ _______ _____ _____    ______ ____
ROOT
ATOM      1  N   UNL     1       6.630   4.704  17.818  0.00  0.00    +0.000 N 
ATOM      2  C   UNL     1       6.619   4.648  16.436  0.00  0.00    +0.000 A 
ATOM      3  C   UNL     1       5.551   3.886  16.089  0.00  0.00    +0.000 A 
ATOM      4  N   UNL     1       4.919   3.513  17.273  0.00  0.00    +0.000 N 
ATOM      5  C   UNL     1       5.589   4.024  18.333  0.00  0.00    +0.000 A 
ATOM      6  C   UNL     1       5.260   3.870  19.784  0.00  0.00    +0.000 C 
ENDROOT
BRANCH   4   7
ATOM      7  C   UNL     1       3.723   2.668  17.360  0.00  0.00    +0.000 C 
BRANCH   7   8
ATOM      8  C   UNL     1       2.484   3.435  16.939  0.00  0.00    +0.000 C 
BRANCH   8   9
ATOM      9  C   UNL     1       1.920   4.239  18.105  0.00  0.00    +0.000 C 
BRANCH   9  10
ATOM     10  C   UNL     1       1.020   3.348  18.948  0.00  0.00    +0.000 C 
BRANCH  10  11
ATOM     11  C   UNL     1       0.907   3.910  20.351  0.00  0.00    +0.000 C 
BRANCH  11  12
ATOM     12  C   UNL     1       1.897   5.047  20.535  0.00  0.00    +0.000 C 
BRANCH  12  13
ATOM     13  C   UNL     1       1.150   6.337  20.818  0.00  0.00    +0.000 C 
BRANCH  13  14
ATOM     14  C   UNL     1       1.920   7.516  20.248  0.00  0.00    +0.000 C 
BRANCH  14  15
ATOM     15  C   UNL     1       3.034   7.020  19.343  0.00  0.00    +0.000 C 
BRANCH  15  16
ATOM     16  C   UNL     1       2.976   7.725  17.996  0.00  0.00    +0.000 C 
ATOM     17  C   UNL     1       4.085   7.224  17.093  0.00  0.00    +0.000 C 
ENDBRANCH  15  16
ENDBRANCH  14  15
ENDBRANCH  13  14
ENDBRANCH  12  13
ENDBRANCH  11  12
ENDBRANCH  10  11
ENDBRANCH   9  10
ENDBRANCH   8   9
ENDBRANCH   7   8
ENDBRANCH   4   7
BRANCH   1  18
ATOM     18  C   UNL     1       7.683   5.319  18.606  0.00  0.00    +0.000 C 
BRANCH  18  20
ATOM     19  C   UNL     1       7.826   8.057  17.931  0.00  0.00    +0.000 C 
ATOM     20  C   UNL     1       7.760   6.793  18.242  0.00  0.00    +0.000 C 
BRANCH  19  21
ATOM     21  C   UNL     1       7.904   9.531  17.568  0.00  0.00    +0.000 C 
BRANCH  21  22
ATOM     22  C   UNL     1       8.990  10.200  18.390  0.00  0.00    +0.000 C 
BRANCH  22  23
ATOM     23  C   UNL     1       9.136  11.656  17.975  0.00  0.00    +0.000 C 
BRANCH  23  25
ATOM     24  C   UNL     1      11.356  11.391  19.079  0.00  0.00    +0.000 C 
ATOM     25  C   UNL     1      10.604  12.057  17.943  0.00  0.00    +0.000 C 
ENDBRANCH  23  25
ENDBRANCH  22  23
ENDBRANCH  21  22
ENDBRANCH  19  21
ENDBRANCH  18  20
ENDBRANCH   1  18
TORSDOF 16
ENDMDL
MODEL 4
REMARK VINA RESULT:      -5.8      1.249      2.161
REMARK  Name = 
REMARK  19 active torsions:
REMARK  status: ('A' for Active; 'I' for Inactive)
REMARK    1  A    between atoms: C_1  and  C_2
REMARK    2  A    between atoms: C_2  and  C_3
REMARK    3  A    between atoms: C_3  and  C_4
REMARK    4  A    between atoms: C_4  and  C_5
REMARK    5  A    between atoms: C_5  and  C_6
REMARK    6  A    between atoms: C_7  and  C_8
REMARK    7  A    between atoms: C_8  and  N_9
REMARK    8  A    between atoms: N_12  and  C_13
REMARK    9  A    between atoms: C_13  and  C_14
REMARK   10  A    between atoms: C_14  and  C_15
REMARK   11  A    between atoms: C_15  and  C_16
REMARK   12  A    between atoms: C_16  and  C_17
REMARK   13  A    between atoms: C_17  and  C_18
REMARK   14  A    between atoms: C_18  and  C_19
REMARK   15  A    between atoms: C_19  and  C_20
REMARK   16  A    between atoms: C_20  and  C_21
REMARK   17  A    between atoms: C_21  and  C_22
REMARK   18  A    between atoms: C_22  and  C_23
REMARK   19  A    between atoms: C_24  and  C_25
REMARK                            x       y       z     vdW  Elec       q    Type
REMARK                         _______ _______ _______ _____ _____    ______ ____
ROOT
ATOM      1  N   UNL     1       6.560   4.519  17.351  0.00  0.00    +0.000 N 
ATOM      2  C   UNL     1       6.497   4.232  15.999  0.00  0.00    +0.000 A 
ATOM      3  C   UNL     1       5.257   3.728  15.769  0.00  0.00    +0.000 A 
ATOM      4  N   UNL     1       4.583   3.743  16.988  0.00  0.00    +0.000 N 
ATOM      5  C   UNL     1       5.393   4.235  17.956  0.00  0.00    +0.000 A 
ATOM      6  C   UNL     1       5.075   4.424  19.406  0.00  0.00    +0.000 C 
ENDROOT
BRANCH   4   7
ATOM      7  C   UNL     1       3.211   3.269  17.198  0.00  0.00    +0.000 C 
BRANCH   7   8
ATOM      8  C   UNL     1       3.199   1.962  17.968  0.00  0.00    +0.000 C 
BRANCH   8   9
ATOM      9  C   UNL     1       2.627   2.162  19.367  0.00  0.00    +0.000 C 
BRANCH   9  10
ATOM     10  C   UNL     1       1.113   2.284  19.284  0.00  0.00    +0.000 C 
BRANCH  10  11
ATOM     11  C   UNL     1       0.698   3.720  19.536  0.00  0.00    +0.000 C 
BRANCH  11  12
ATOM     12  C   UNL     1       1.550   4.320  20.639  0.00  0.00    +0.000 C 
BRANCH  12  13
ATOM     13  C   UNL     1       2.103   5.660  20.191  0.00  0.00    +0.000 C 
BRANCH  13  14
ATOM     14  C   UNL     1       1.839   5.858  18.708  0.00  0.00    +0.000 C 
BRANCH  14  15
ATOM     15  C   UNL     1       2.078   7.309  18.327  0.00  0.00    +0.000 C 
BRANCH  15  16
ATOM     16  C   UNL     1       3.567   7.576  18.165  0.00  0.00    +0.000 C 
ATOM     17  C   UNL     1       4.023   7.186  16.774  0.00  0.00    +0.000 C 
ENDBRANCH  15  16
ENDBRANCH  14  15
ENDBRANCH  13  14
ENDBRANCH  12  13
ENDBRANCH  11  12
ENDBRANCH  10  11
ENDBRANCH   9  10
ENDBRANCH   8   9
ENDBRANCH   7   8
ENDBRANCH   4   7
BRANCH   1  18
ATOM     18  C   UNL     1       7.759   4.963  18.039  0.00  0.00    +0.000 C 
BRANCH  18  20
ATOM     19  C   UNL     1       7.880   7.781  17.905  0.00  0.00    +0.000 C 
ATOM     20  C   UNL     1       7.824   6.480  17.967  0.00  0.00    +0.000 C 
BRANCH  19  21
ATOM     21  C   UNL     1       7.946   9.298  17.835  0.00  0.00    +0.000 C 
BRANCH  21  22
ATOM     22  C   UNL     1       8.949   9.811  18.850  0.00  0.00    +0.000 C 
BRANCH  22  23
ATOM     23  C   UNL     1       9.759  10.951  18.252  0.00  0.00    +0.000 C 
BRANCH  23  25
ATOM     24  C   UNL     1      11.321  12.822  18.780  0.00  0.00    +0.000 C 
ATOM     25  C   UNL     1      10.712  11.530  19.289  0.00  0.00    +0.000 C 
ENDBRANCH  23  25
ENDBRANCH  22  23
ENDBRANCH  21  22
ENDBRANCH  19  21
ENDBRANCH  18  20
ENDBRANCH   1  18
TORSDOF 16
ENDMDL
MODEL 5
REMARK VINA RESULT:      -5.8      3.782      6.519
REMARK  Name = 
REMARK  19 active torsions:
REMARK  status: ('A' for Active; 'I' for Inactive)
REMARK    1  A    between atoms: C_1  and  C_2
REMARK    2  A    between atoms: C_2  and  C_3
REMARK    3  A    between atoms: C_3  and  C_4
REMARK    4  A    between atoms: C_4  and  C_5
REMARK    5  A    between atoms: C_5  and  C_6
REMARK    6  A    between atoms: C_7  and  C_8
REMARK    7  A    between atoms: C_8  and  N_9
REMARK    8  A    between atoms: N_12  and  C_13
REMARK    9  A    between atoms: C_13  and  C_14
REMARK   10  A    between atoms: C_14  and  C_15
REMARK   11  A    between atoms: C_15  and  C_16
REMARK   12  A    between atoms: C_16  and  C_17
REMARK   13  A    between atoms: C_17  and  C_18
REMARK   14  A    between atoms: C_18  and  C_19
REMARK   15  A    between atoms: C_19  and  C_20
REMARK   16  A    between atoms: C_20  and  C_21
REMARK   17  A    between atoms: C_21  and  C_22
REMARK   18  A    between atoms: C_22  and  C_23
REMARK   19  A    between atoms: C_24  and  C_25
REMARK                            x       y       z     vdW  Elec       q    Type
REMARK                         _______ _______ _______ _____ _____    ______ ____
ROOT
ATOM      1  N   UNL     1       5.121   4.197  16.617  0.00  0.00    +0.000 N 
ATOM      2  C   UNL     1       4.429   3.069  17.021  0.00  0.00    +0.000 A 
ATOM      3  C   UNL     1       3.311   3.508  17.654  0.00  0.00    +0.000 A 
ATOM      4  N   UNL     1       3.336   4.900  17.600  0.00  0.00    +0.000 N 
ATOM      5  C   UNL     1       4.453   5.315  16.956  0.00  0.00    +0.000 A 
ATOM      6  C   UNL     1       4.878   6.722  16.676  0.00  0.00    +0.000 C 
ENDROOT
BRANCH   4   7
ATOM      7  C   UNL     1       2.320   5.785  18.179  0.00  0.00    +0.000 C 
BRANCH   7   8
ATOM      8  C   UNL     1       1.724   5.179  19.435  0.00  0.00    +0.000 C 
BRANCH   8   9
ATOM      9  C   UNL     1       1.997   6.063  20.647  0.00  0.00    +0.000 C 
BRANCH   9  10
ATOM     10  C   UNL     1       1.772   7.521  20.273  0.00  0.00    +0.000 C 
BRANCH  10  11
ATOM     11  C   UNL     1       0.719   8.128  21.179  0.00  0.00    +0.000 C 
BRANCH  11  12
ATOM     12  C   UNL     1       1.218   9.445  21.744  0.00  0.00    +0.000 C 
BRANCH  12  13
ATOM     13  C   UNL     1       0.719  10.594  20.888  0.00  0.00    +0.000 C 
BRANCH  13  14
ATOM     14  C   UNL     1      -0.502  10.157  20.096  0.00  0.00    +0.000 C 
BRANCH  14  15
ATOM     15  C   UNL     1      -0.300  10.460  18.622  0.00  0.00    +0.000 C 
BRANCH  15  16
ATOM     16  C   UNL     1      -1.597  10.957  18.001  0.00  0.00    +0.000 C 
ATOM     17  C   UNL     1      -2.237   9.862  17.172  0.00  0.00    +0.000 C 
ENDBRANCH  15  16
ENDBRANCH  14  15
ENDBRANCH  13  14
ENDBRANCH  12  13
ENDBRANCH  11  12
ENDBRANCH  10  11
ENDBRANCH   9  10
ENDBRANCH   8   9
ENDBRANCH   7   8
ENDBRANCH   4   7
BRANCH   1  18
ATOM     18  C   UNL     1       6.438   4.176  16.009  0.00  0.00    +0.000 C 
BRANCH  18  20
ATOM     19  C   UNL     1       6.136   3.792  13.227  0.00  0.00    +0.000 C 
ATOM     20  C   UNL     1       6.276   3.970  14.511  0.00  0.00    +0.000 C 
BRANCH  19  21
ATOM     21  C   UNL     1       5.974   3.585  11.730  0.00  0.00    +0.000 C 
BRANCH  21  22
ATOM     22  C   UNL     1       4.957   2.488  11.476  0.00  0.00    +0.000 C 
BRANCH  22  23
ATOM     23  C   UNL     1       3.629   3.096  11.054  0.00  0.00    +0.000 C 
BRANCH  23  25
ATOM     24  C   UNL     1       2.489   4.606   9.430  0.00  0.00    +0.000 C 
ATOM     25  C   UNL     1       3.805   3.955   9.811  0.00  0.00    +0.000 C 
ENDBRANCH  23  25
ENDBRANCH  22  23
ENDBRANCH  21  22
ENDBRANCH  19  21
ENDBRANCH  18  20
ENDBRANCH   1  18
TORSDOF 16
ENDMDL
MODEL 6
REMARK VINA RESULT:      -5.8      3.122      6.255
REMARK  Name = 
REMARK  19 active torsions:
REMARK  status: ('A' for Active; 'I' for Inactive)
REMARK    1  A    between atoms: C_1  and  C_2
REMARK    2  A    between atoms: C_2  and  C_3
REMARK    3  A    between atoms: C_3  and  C_4
REMARK    4  A    between atoms: C_4  and  C_5
REMARK    5  A    between atoms: C_5  and  C_6
REMARK    6  A    between atoms: C_7  and  C_8
REMARK    7  A    between atoms: C_8  and  N_9
REMARK    8  A    between atoms: N_12  and  C_13
REMARK    9  A    between atoms: C_13  and  C_14
REMARK   10  A    between atoms: C_14  and  C_15
REMARK   11  A    between atoms: C_15  and  C_16
REMARK   12  A    between atoms: C_16  and  C_17
REMARK   13  A    between atoms: C_17  and  C_18
REMARK   14  A    between atoms: C_18  and  C_19
REMARK   15  A    between atoms: C_19  and  C_20
REMARK   16  A    between atoms: C_20  and  C_21
REMARK   17  A    between atoms: C_21  and  C_22
REMARK   18  A    between atoms: C_22  and  C_23
REMARK   19  A    between atoms: C_24  and  C_25
REMARK                            x       y       z     vdW  Elec       q    Type
REMARK                         _______ _______ _______ _____ _____    ______ ____
ROOT
ATOM      1  N   UNL     1       6.093   4.931  15.954  0.00  0.00    +0.000 N 
ATOM      2  C   UNL     1       4.947   4.208  15.679  0.00  0.00    +0.000 A 
ATOM      3  C   UNL     1       4.421   3.848  16.878  0.00  0.00    +0.000 A 
ATOM      4  N   UNL     1       5.250   4.384  17.860  0.00  0.00    +0.000 N 
ATOM      5  C   UNL     1       6.276   5.053  17.282  0.00  0.00    +0.000 A 
ATOM      6  C   UNL     1       7.394   5.777  17.961  0.00  0.00    +0.000 C 
ENDROOT
BRANCH   4   7
ATOM      7  C   UNL     1       5.057   4.223  19.305  0.00  0.00    +0.000 C 
BRANCH   7   8
ATOM      8  C   UNL     1       3.759   3.497  19.603  0.00  0.00    +0.000 C 
BRANCH   8   9
ATOM      9  C   UNL     1       2.617   4.488  19.803  0.00  0.00    +0.000 C 
BRANCH   9  10
ATOM     10  C   UNL     1       3.187   5.878  20.041  0.00  0.00    +0.000 C 
BRANCH  10  11
ATOM     11  C   UNL     1       2.234   6.925  19.498  0.00  0.00    +0.000 C 
BRANCH  11  12
ATOM     12  C   UNL     1       2.656   7.334  18.099  0.00  0.00    +0.000 C 
BRANCH  12  13
ATOM     13  C   UNL     1       2.284   8.785  17.853  0.00  0.00    +0.000 C 
BRANCH  13  14
ATOM     14  C   UNL     1       1.361   9.276  18.955  0.00  0.00    +0.000 C 
BRANCH  14  15
ATOM     15  C   UNL     1       0.146   9.957  18.350  0.00  0.00    +0.000 C 
BRANCH  15  16
ATOM     16  C   UNL     1       0.111  11.426  18.743  0.00  0.00    +0.000 C 
ATOM     17  C   UNL     1       0.997  11.669  19.947  0.00  0.00    +0.000 C 
ENDBRANCH  15  16
ENDBRANCH  14  15
ENDBRANCH  13  14
ENDBRANCH  12  13
ENDBRANCH  11  12
ENDBRANCH  10  11
ENDBRANCH   9  10
ENDBRANCH   8   9
ENDBRANCH   7   8
ENDBRANCH   4   7
BRANCH   1  18
ATOM     18  C   UNL     1       7.027   5.401  14.947  0.00  0.00    +0.000 C 
BRANCH  18  20
ATOM     19  C   UNL     1       6.849   3.706  12.696  0.00  0.00    +0.000 C 
ATOM     20  C   UNL     1       6.931   4.489  13.735  0.00  0.00    +0.000 C 
BRANCH  19  21
ATOM     21  C   UNL     1       6.753   2.795  11.483  0.00  0.00    +0.000 C 
BRANCH  21  22
ATOM     22  C   UNL     1       5.361   2.197  11.406  0.00  0.00    +0.000 C 
BRANCH  22  23
ATOM     23  C   UNL     1       4.316   3.302  11.440  0.00  0.00    +0.000 C 
BRANCH  23  25
ATOM     24  C   UNL     1       2.966   4.247   9.568  0.00  0.00    +0.000 C 
ATOM     25  C   UNL     1       3.212   3.024  10.430  0.00  0.00    +0.000 C 
ENDBRANCH  23  25
ENDBRANCH  22  23
ENDBRANCH  21  22
ENDBRANCH  19  21
ENDBRANCH  18  20
ENDBRANCH   1  18
TORSDOF 16
ENDMDL
MODEL 7
REMARK VINA RESULT:      -5.7      2.129      4.362
REMARK  Name = 
REMARK  19 active torsions:
REMARK  status: ('A' for Active; 'I' for Inactive)
REMARK    1  A    between atoms: C_1  and  C_2
REMARK    2  A    between atoms: C_2  and  C_3
REMARK    3  A    between atoms: C_3  and  C_4
REMARK    4  A    between atoms: C_4  and  C_5
REMARK    5  A    between atoms: C_5  and  C_6
REMARK    6  A    between atoms: C_7  and  C_8
REMARK    7  A    between atoms: C_8  and  N_9
REMARK    8  A    between atoms: N_12  and  C_13
REMARK    9  A    between atoms: C_13  and  C_14
REMARK   10  A    between atoms: C_14  and  C_15
REMARK   11  A    between atoms: C_15  and  C_16
REMARK   12  A    between atoms: C_16  and  C_17
REMARK   13  A    between atoms: C_17  and  C_18
REMARK   14  A    between atoms: C_18  and  C_19
REMARK   15  A    between atoms: C_19  and  C_20
REMARK   16  A    between atoms: C_20  and  C_21
REMARK   17  A    between atoms: C_21  and  C_22
REMARK   18  A    between atoms: C_22  and  C_23
REMARK   19  A    between atoms: C_24  and  C_25
REMARK                            x       y       z     vdW  Elec       q    Type
REMARK                         _______ _______ _______ _____ _____    ______ ____
ROOT
ATOM      1  N   UNL     1       5.066   4.729  19.452  0.00  0.00    +0.000 N 
ATOM      2  C   UNL     1       4.409   5.945  19.401  0.00  0.00    +0.000 A 
ATOM      3  C   UNL     1       3.177   5.741  19.932  0.00  0.00    +0.000 A 
ATOM      4  N   UNL     1       3.120   4.403  20.317  0.00  0.00    +0.000 N 
ATOM      5  C   UNL     1       4.290   3.789  20.021  0.00  0.00    +0.000 A 
ATOM      6  C   UNL     1       4.659   2.359  20.261  0.00  0.00    +0.000 C 
ENDROOT
BRANCH   4   7
ATOM      7  C   UNL     1       1.956   3.750  20.926  0.00  0.00    +0.000 C 
BRANCH   7   8
ATOM      8  C   UNL     1       0.770   3.759  19.980  0.00  0.00    +0.000 C 
BRANCH   8   9
ATOM      9  C   UNL     1       1.009   2.822  18.801  0.00  0.00    +0.000 C 
BRANCH   9  10
ATOM     10  C   UNL     1       1.454   3.631  17.591  0.00  0.00    +0.000 C 
BRANCH  10  11
ATOM     11  C   UNL     1       2.757   3.075  17.051  0.00  0.00    +0.000 C 
BRANCH  11  12
ATOM     12  C   UNL     1       3.552   4.179  16.378  0.00  0.00    +0.000 C 
BRANCH  12  13
ATOM     13  C   UNL     1       4.904   3.646  15.943  0.00  0.00    +0.000 C 
BRANCH  13  14
ATOM     14  C   UNL     1       5.661   4.718  15.178  0.00  0.00    +0.000 C 
BRANCH  14  15
ATOM     15  C   UNL     1       6.300   4.118  13.937  0.00  0.00    +0.000 C 
BRANCH  15  16
ATOM     16  C   UNL     1       5.229   3.640  12.968  0.00  0.00    +0.000 C 
ATOM     17  C   UNL     1       5.855   2.826  11.854  0.00  0.00    +0.000 C 
ENDBRANCH  15  16
ENDBRANCH  14  15
ENDBRANCH  13  14
ENDBRANCH  12  13
ENDBRANCH  11  12
ENDBRANCH  10  11
ENDBRANCH   9  10
ENDBRANCH   8   9
ENDBRANCH   7   8
ENDBRANCH   4   7
BRANCH   1  18
ATOM     18  C   UNL     1       6.373   4.478  18.871  0.00  0.00    +0.000 C 
BRANCH  18  20
ATOM     19  C   UNL     1       7.448   6.934  17.984  0.00  0.00    +0.000 C 
ATOM     20  C   UNL     1       6.951   5.800  18.394  0.00  0.00    +0.000 C 
BRANCH  19  21
ATOM     21  C   UNL     1       8.027   8.256  17.507  0.00  0.00    +0.000 C 
BRANCH  21  22
ATOM     22  C   UNL     1       8.523   9.053  18.699  0.00  0.00    +0.000 C 
BRANCH  22  23
ATOM     23  C   UNL     1       8.921  10.454  18.261  0.00  0.00    +0.000 C 
BRANCH  23  25
ATOM     24  C   UNL     1       9.531  11.093  20.592  0.00  0.00    +0.000 C 
ATOM     25  C   UNL     1      10.020  11.002  19.159  0.00  0.00    +0.000 C 
ENDBRANCH  23  25
ENDBRANCH  22  23
ENDBRANCH  21  22
ENDBRANCH  19  21
ENDBRANCH  18  20
ENDBRANCH   1  18
TORSDOF 16
ENDMDL
MODEL 8
REMARK VINA RESULT:      -5.7      1.125      2.021
REMARK  Name = 
REMARK  19 active torsions:
REMARK  status: ('A' for Active; 'I' for Inactive)
REMARK    1  A    between atoms: C_1  and  C_2
REMARK    2  A    between atoms: C_2  and  C_3
REMARK    3  A    between atoms: C_3  and  C_4
REMARK    4  A    between atoms: C_4  and  C_5
REMARK    5  A    between atoms: C_5  and  C_6
REMARK    6  A    between atoms: C_7  and  C_8
REMARK    7  A    between atoms: C_8  and  N_9
REMARK    8  A    between atoms: N_12  and  C_13
REMARK    9  A    between atoms: C_13  and  C_14
REMARK   10  A    between atoms: C_14  and  C_15
REMARK   11  A    between atoms: C_15  and  C_16
REMARK   12  A    between atoms: C_16  and  C_17
REMARK   13  A    between atoms: C_17  and  C_18
REMARK   14  A    between atoms: C_18  and  C_19
REMARK   15  A    between atoms: C_19  and  C_20
REMARK   16  A    between atoms: C_20  and  C_21
REMARK   17  A    between atoms: C_21  and  C_22
REMARK   18  A    between atoms: C_22  and  C_23
REMARK   19  A    between atoms: C_24  and  C_25
REMARK                            x       y       z     vdW  Elec       q    Type
REMARK                         _______ _______ _______ _____ _____    ______ ____
ROOT
ATOM      1  N   UNL     1       6.469   5.442  17.613  0.00  0.00    +0.000 N 
ATOM      2  C   UNL     1       6.238   5.905  16.331  0.00  0.00    +0.000 A 
ATOM      3  C   UNL     1       5.127   5.267  15.884  0.00  0.00    +0.000 A 
ATOM      4  N   UNL     1       4.691   4.443  16.920  0.00  0.00    +0.000 N 
ATOM      5  C   UNL     1       5.522   4.560  17.982  0.00  0.00    +0.000 A 
ATOM      6  C   UNL     1       5.428   3.857  19.300  0.00  0.00    +0.000 C 
ENDROOT
BRANCH   4   7
ATOM      7  C   UNL     1       3.522   3.558  16.857  0.00  0.00    +0.000 C 
BRANCH   7   8
ATOM      8  C   UNL     1       2.707   3.644  18.133  0.00  0.00    +0.000 C 
BRANCH   8   9
ATOM      9  C   UNL     1       1.950   4.966  18.206  0.00  0.00    +0.000 C 
BRANCH   9  10
ATOM     10  C   UNL     1       2.112   5.567  19.595  0.00  0.00    +0.000 C 
BRANCH  10  11
ATOM     11  C   UNL     1       2.468   7.036  19.481  0.00  0.00    +0.000 C 
BRANCH  11  12
ATOM     12  C   UNL     1       2.981   7.339  18.085  0.00  0.00    +0.000 C 
BRANCH  12  13
ATOM     13  C   UNL     1       2.559   8.738  17.675  0.00  0.00    +0.000 C 
BRANCH  13  14
ATOM     14  C   UNL     1       1.275   9.122  18.390  0.00  0.00    +0.000 C 
BRANCH  14  15
ATOM     15  C   UNL     1       1.223  10.626  18.591  0.00  0.00    +0.000 C 
BRANCH  15  16
ATOM     16  C   UNL     1       0.629  10.958  19.952  0.00  0.00    +0.000 C 
ATOM     17  C   UNL     1       0.085   9.705  20.608  0.00  0.00    +0.000 C 
ENDBRANCH  15  16
ENDBRANCH  14  15
ENDBRANCH  13  14
ENDBRANCH  12  13
ENDBRANCH  11  12
ENDBRANCH  10  11
ENDBRANCH   9  10
ENDBRANCH   8   9
ENDBRANCH   7   8
ENDBRANCH   4   7
BRANCH   1  18
ATOM     18  C   UNL     1       7.635   5.780  18.410  0.00  0.00    +0.000 C 
BRANCH  18  20
ATOM     19  C   UNL     1       8.191   8.527  18.065  0.00  0.00    +0.000 C 
ATOM     20  C   UNL     1       7.935   7.259  18.224  0.00  0.00    +0.000 C 
BRANCH  19  21
ATOM     21  C   UNL     1       8.491  10.006  17.878  0.00  0.00    +0.000 C 
BRANCH  21  22
ATOM     22  C   UNL     1       9.397  10.485  18.997  0.00  0.00    +0.000 C 
BRANCH  22  23
ATOM     23  C   UNL     1      10.582  11.244  18.421  0.00  0.00    +0.000 C 
BRANCH  23  25
ATOM     24  C   UNL     1      11.159  13.190  16.973  0.00  0.00    +0.000 C 
ATOM     25  C   UNL     1      10.157  12.633  17.966  0.00  0.00    +0.000 C 
ENDBRANCH  23  25
ENDBRANCH  22  23
ENDBRANCH  21  22
ENDBRANCH  19  21
ENDBRANCH  18  20
ENDBRANCH   1  18
TORSDOF 16
ENDMDL
MODEL 9
REMARK VINA RESULT:      -5.7      3.938      8.421
REMARK  Name = 
REMARK  19 active torsions:
REMARK  status: ('A' for Active; 'I' for Inactive)
REMARK    1  A    between atoms: C_1  and  C_2
REMARK    2  A    between atoms: C_2  and  C_3
REMARK    3  A    between atoms: C_3  and  C_4
REMARK    4  A    between atoms: C_4  and  C_5
REMARK    5  A    between atoms: C_5  and  C_6
REMARK    6  A    between atoms: C_7  and  C_8
REMARK    7  A    between atoms: C_8  and  N_9
REMARK    8  A    between atoms: N_12  and  C_13
REMARK    9  A    between atoms: C_13  and  C_14
REMARK   10  A    between atoms: C_14  and  C_15
REMARK   11  A    between atoms: C_15  and  C_16
REMARK   12  A    between atoms: C_16  and  C_17
REMARK   13  A    between atoms: C_17  and  C_18
REMARK   14  A    between atoms: C_18  and  C_19
REMARK   15  A    between atoms: C_19  and  C_20
REMARK   16  A    between atoms: C_20  and  C_21
REMARK   17  A    between atoms: C_21  and  C_22
REMARK   18  A    between atoms: C_22  and  C_23
REMARK   19  A    between atoms: C_24  and  C_25
REMARK                            x       y       z     vdW  Elec       q    Type
REMARK                         _______ _______ _______ _____ _____    ______ ____
ROOT
ATOM      1  N   UNL     1       1.166   9.374  19.824  0.00  0.00    +0.000 N 
ATOM      2  C   UNL     1       0.819   8.986  21.106  0.00  0.00    +0.000 A 
ATOM      3  C   UNL     1       1.249   7.706  21.251  0.00  0.00    +0.000 A 
ATOM      4  N   UNL     1       1.872   7.351  20.056  0.00  0.00    +0.000 N 
ATOM      5  C   UNL     1       1.819   8.386  19.185  0.00  0.00    +0.000 A 
ATOM      6  C   UNL     1       2.362   8.437  17.792  0.00  0.00    +0.000 C 
ENDROOT
BRANCH   4   7
ATOM      7  C   UNL     1       2.470   6.042  19.775  0.00  0.00    +0.000 C 
BRANCH   7   8
ATOM      8  C   UNL     1       2.383   5.133  20.986  0.00  0.00    +0.000 C 
BRANCH   8   9
ATOM      9  C   UNL     1       1.480   3.937  20.704  0.00  0.00    +0.000 C 
BRANCH   9  10
ATOM     10  C   UNL     1       0.985   4.002  19.266  0.00  0.00    +0.000 C 
BRANCH  10  11
ATOM     11  C   UNL     1       1.185   2.659  18.592  0.00  0.00    +0.000 C 
BRANCH  11  12
ATOM     12  C   UNL     1       2.473   2.021  19.079  0.00  0.00    +0.000 C 
BRANCH  12  13
ATOM     13  C   UNL     1       3.524   2.083  17.986  0.00  0.00    +0.000 C 
BRANCH  13  14
ATOM     14  C   UNL     1       3.374   3.373  17.198  0.00  0.00    +0.000 C 
BRANCH  14  15
ATOM     15  C   UNL     1       4.715   3.782  16.612  0.00  0.00    +0.000 C 
BRANCH  15  16
ATOM     16  C   UNL     1       5.310   4.935  17.406  0.00  0.00    +0.000 C 
ATOM     17  C   UNL     1       5.051   6.249  16.697  0.00  0.00    +0.000 C 
ENDBRANCH  15  16
ENDBRANCH  14  15
ENDBRANCH  13  14
ENDBRANCH  12  13
ENDBRANCH  11  12
ENDBRANCH  10  11
ENDBRANCH   9  10
ENDBRANCH   8   9
ENDBRANCH   7   8
ENDBRANCH   4   7
BRANCH   1  18
ATOM     18  C   UNL     1       0.782  10.635  19.217  0.00  0.00    +0.000 C 
BRANCH  18  20
ATOM     19  C   UNL     1      -1.451  10.185  17.548  0.00  0.00    +0.000 C 
ATOM     20  C   UNL     1      -0.421  10.393  18.319  0.00  0.00    +0.000 C 
BRANCH  19  21
ATOM     21  C   UNL     1      -2.653   9.943  16.650  0.00  0.00    +0.000 C 
BRANCH  21  22
ATOM     22  C   UNL     1      -3.930  10.186  17.433  0.00  0.00    +0.000 C 
BRANCH  22  23
ATOM     23  C   UNL     1      -4.455  11.586  17.154  0.00  0.00    +0.000 C 
BRANCH  23  25
ATOM     24  C   UNL     1      -6.636  11.155  18.282  0.00  0.00    +0.000 C 
ATOM     25  C   UNL     1      -5.399  12.032  18.261  0.00  0.00    +0.000 C 
ENDBRANCH  23  25
ENDBRANCH  22  23
ENDBRANCH  21  22
ENDBRANCH  19  21
ENDBRANCH  18  20
ENDBRANCH   1  18
TORSDOF 16
ENDMDL
