MODEL 1
REMARK VINA RESULT:      -9.2      0.000      0.000
REMARK  Name = 
REMARK  7 active torsions:
REMARK  status: ('A' for Active; 'I' for Inactive)
REMARK    1  A    between atoms: C_1  and  C_2
REMARK    2  A    between atoms: C_2  and  C_3
REMARK    3  A    between atoms: C_13  and  C_14
REMARK    4  A    between atoms: C_17  and  C_18
REMARK    5  A    between atoms: C_21  and  C_22
REMARK    6  A    between atoms: C_22  and  C_23
REMARK    7  A    between atoms: C_23  and  O_25
REMARK                            x       y       z     vdW  Elec       q    Type
REMARK                         _______ _______ _______ _____ _____    ______ ____
ROOT
ATOM      1  C   UNL     1       2.328   7.268  19.143  0.00  0.00    +0.000 A 
ATOM      2  C   UNL     1       1.986   8.452  18.486  0.00  0.00    +0.000 A 
ATOM      3  C   UNL     1       1.221   9.414  19.139  0.00  0.00    +0.000 A 
ATOM      4  C   UNL     1       0.790   9.217  20.461  0.00  0.00    +0.000 A 
ATOM      5  C   UNL     1       1.194   8.060  21.139  0.00  0.00    +0.000 A 
ATOM      6  C   UNL     1       1.963   7.093  20.482  0.00  0.00    +0.000 A 
ENDROOT
BRANCH   1  19
ATOM      7  C   UNL     1       2.285   4.161  19.585  0.00  0.00    +0.000 C 
ATOM      8  C   UNL     1       2.587   4.840  18.238  0.00  0.00    +0.000 C 
ATOM      9  C   UNL     1       1.312   4.827  17.377  0.00  0.00    +0.000 C 
ATOM     10  O   UNL     1       3.503   3.934  17.575  0.00  0.00    +0.000 OA
ATOM     11  C   UNL     1       4.669   4.411  17.049  0.00  0.00    +0.000 A 
ATOM     12  N   UNL     1       5.364   3.477  16.372  0.00  0.00    +0.000 NA
ATOM     13  C   UNL     1       6.522   3.887  15.847  0.00  0.00    +0.000 A 
ATOM     14  N   UNL     1       7.035   5.124  15.923  0.00  0.00    +0.000 NA
ATOM     15  C   UNL     1       6.307   6.023  16.598  0.00  0.00    +0.000 A 
ATOM     16  N   UNL     1       6.872   7.301  16.683  0.00  0.00    +0.000 N 
ATOM     17  C   UNL     1       5.096   5.713  17.206  0.00  0.00    +0.000 A 
ATOM     18  C   UNL     1       4.305   6.662  17.963  0.00  0.00    +0.000 C 
ATOM     19  C   UNL     1       3.123   6.255  18.438  0.00  0.00    +0.000 C 
ATOM     20  H   UNL     1       7.719   7.295  16.121  0.00  0.00    +0.000 HD
ATOM     21  H   UNL     1       6.223   8.019  16.381  0.00  0.00    +0.000 HD
ENDBRANCH   1  19
BRANCH   4  22
ATOM     22  C   UNL     1      -0.226  10.192  21.021  0.00  0.00    +0.000 C 
ATOM     23  C   UNL     1      -0.135  10.132  22.553  0.00  0.00    +0.000 C 
ATOM     24  C   UNL     1      -1.277  10.908  23.190  0.00  0.00    +0.000 C 
ATOM     25  C   UNL     1      -1.325  12.363  22.700  0.00  0.00    +0.000 C 
ATOM     26  C   UNL     1      -1.260  12.487  21.164  0.00  0.00    +0.000 C 
ATOM     27  C   UNL     1      -0.126  11.651  20.551  0.00  0.00    +0.000 C 
BRANCH  25  28
ATOM     28  C   UNL     1      -2.517  13.122  23.309  0.00  0.00    +0.000 C 
BRANCH  28  29
ATOM     29  C   UNL     1      -3.868  12.437  23.204  0.00  0.00    +0.000 C 
ATOM     30  O   UNL     1      -4.553  12.341  22.200  0.00  0.00    +0.000 OA
BRANCH  29  31
ATOM     31  O   UNL     1      -4.267  11.922  24.391  0.00  0.00    +0.000 OA
ATOM     32  H   UNL     1      -4.555  10.989  24.343  0.00  0.00    +0.000 HD
ENDBRANCH  29  31
ENDBRANCH  28  29
ENDBRANCH  25  28
ENDBRANCH   4  22
TORSDOF 5
ENDMDL
MODEL 2
REMARK VINA RESULT:      -9.1      0.570      1.471
REMARK  Name = 
REMARK  7 active torsions:
REMARK  status: ('A' for Active; 'I' for Inactive)
REMARK    1  A    between atoms: C_1  and  C_2
REMARK    2  A    between atoms: C_2  and  C_3
REMARK    3  A    between atoms: C_13  and  C_14
REMARK    4  A    between atoms: C_17  and  C_18
REMARK    5  A    between atoms: C_21  and  C_22
REMARK    6  A    between atoms: C_22  and  C_23
REMARK    7  A    between atoms: C_23  and  O_25
REMARK                            x       y       z     vdW  Elec       q    Type
REMARK                         _______ _______ _______ _____ _____    ______ ____
ROOT
ATOM      1  C   UNL     1       2.388   7.310  19.103  0.00  0.00    +0.000 A 
ATOM      2  C   UNL     1       1.960   7.072  20.411  0.00  0.00    +0.000 A 
ATOM      3  C   UNL     1       1.167   8.010  21.065  0.00  0.00    +0.000 A 
ATOM      4  C   UNL     1       0.779   9.198  20.424  0.00  0.00    +0.000 A 
ATOM      5  C   UNL     1       1.152   9.400  19.090  0.00  0.00    +0.000 A 
ATOM      6  C   UNL     1       1.949   8.457  18.432  0.00  0.00    +0.000 A 
ENDROOT
BRANCH   1  19
ATOM      7  C   UNL     1       2.433   4.206  19.568  0.00  0.00    +0.000 C 
ATOM      8  C   UNL     1       2.753   4.885  18.225  0.00  0.00    +0.000 C 
ATOM      9  C   UNL     1       1.504   4.824  17.328  0.00  0.00    +0.000 C 
ATOM     10  O   UNL     1       3.717   4.005  17.597  0.00  0.00    +0.000 OA
ATOM     11  C   UNL     1       4.881   4.515  17.101  0.00  0.00    +0.000 A 
ATOM     12  N   UNL     1       5.626   3.601  16.452  0.00  0.00    +0.000 NA
ATOM     13  C   UNL     1       6.785   4.045  15.958  0.00  0.00    +0.000 A 
ATOM     14  N   UNL     1       7.255   5.297  16.039  0.00  0.00    +0.000 NA
ATOM     15  C   UNL     1       6.478   6.178  16.685  0.00  0.00    +0.000 A 
ATOM     16  N   UNL     1       6.999   7.474  16.776  0.00  0.00    +0.000 N 
ATOM     17  C   UNL     1       5.261   5.832  17.260  0.00  0.00    +0.000 A 
ATOM     18  C   UNL     1       4.418   6.761  17.985  0.00  0.00    +0.000 C 
ATOM     19  C   UNL     1       3.236   6.319  18.429  0.00  0.00    +0.000 C 
ATOM     20  H   UNL     1       7.862   7.491  16.239  0.00  0.00    +0.000 HD
ATOM     21  H   UNL     1       6.337   8.168  16.449  0.00  0.00    +0.000 HD
ENDBRANCH   1  19
BRANCH   4  22
ATOM     22  C   UNL     1       0.119  10.268  21.270  0.00  0.00    +0.000 C 
ATOM     23  C   UNL     1      -0.869  11.029  20.373  0.00  0.00    +0.000 C 
ATOM     24  C   UNL     1      -1.401  12.262  21.084  0.00  0.00    +0.000 C 
ATOM     25  C   UNL     1      -2.044  11.913  22.434  0.00  0.00    +0.000 C 
ATOM     26  C   UNL     1      -1.152  11.015  23.315  0.00  0.00    +0.000 C 
ATOM     27  C   UNL     1      -0.593   9.806  22.551  0.00  0.00    +0.000 C 
BRANCH  25  28
ATOM     28  C   UNL     1      -2.528  13.175  23.169  0.00  0.00    +0.000 C 
BRANCH  28  29
ATOM     29  C   UNL     1      -3.707  12.991  24.108  0.00  0.00    +0.000 C 
ATOM     30  O   UNL     1      -4.316  11.954  24.308  0.00  0.00    +0.000 OA
BRANCH  29  31
ATOM     31  O   UNL     1      -4.040  14.145  24.733  0.00  0.00    +0.000 OA
ATOM     32  H   UNL     1      -3.381  14.449  25.387  0.00  0.00    +0.000 HD
ENDBRANCH  29  31
ENDBRANCH  28  29
ENDBRANCH  25  28
ENDBRANCH   4  22
TORSDOF 5
ENDMDL
MODEL 3
REMARK VINA RESULT:      -8.9      0.993      1.163
REMARK  Name = 
REMARK  7 active torsions:
REMARK  status: ('A' for Active; 'I' for Inactive)
REMARK    1  A    between atoms: C_1  and  C_2
REMARK    2  A    between atoms: C_2  and  C_3
REMARK    3  A    between atoms: C_13  and  C_14
REMARK    4  A    between atoms: C_17  and  C_18
REMARK    5  A    between atoms: C_21  and  C_22
REMARK    6  A    between atoms: C_22  and  C_23
REMARK    7  A    between atoms: C_23  and  O_25
REMARK                            x       y       z     vdW  Elec       q    Type
REMARK                         _______ _______ _______ _____ _____    ______ ____
ROOT
ATOM      1  C   UNL     1       2.363   7.242  19.104  0.00  0.00    +0.000 A 
ATOM      2  C   UNL     1       1.985   8.405  18.429  0.00  0.00    +0.000 A 
ATOM      3  C   UNL     1       1.193   9.353  19.069  0.00  0.00    +0.000 A 
ATOM      4  C   UNL     1       0.770   9.164  20.395  0.00  0.00    +0.000 A 
ATOM      5  C   UNL     1       1.210   8.030  21.089  0.00  0.00    +0.000 A 
ATOM      6  C   UNL     1       2.006   7.077  20.446  0.00  0.00    +0.000 A 
ENDROOT
BRANCH   1  19
ATOM      7  C   UNL     1       2.364   4.135  19.545  0.00  0.00    +0.000 C 
ATOM      8  C   UNL     1       2.679   4.818  18.203  0.00  0.00    +0.000 C 
ATOM      9  C   UNL     1       1.419   4.784  17.321  0.00  0.00    +0.000 C 
ATOM     10  O   UNL     1       3.621   3.928  17.557  0.00  0.00    +0.000 OA
ATOM     11  C   UNL     1       4.788   4.424  17.051  0.00  0.00    +0.000 A 
ATOM     12  N   UNL     1       5.510   3.502  16.387  0.00  0.00    +0.000 NA
ATOM     13  C   UNL     1       6.670   3.932  15.882  0.00  0.00    +0.000 A 
ATOM     14  N   UNL     1       7.161   5.176  15.967  0.00  0.00    +0.000 NA
ATOM     15  C   UNL     1       6.406   6.063  16.629  0.00  0.00    +0.000 A 
ATOM     16  N   UNL     1       6.949   7.350  16.724  0.00  0.00    +0.000 N 
ATOM     17  C   UNL     1       5.191   5.733  17.216  0.00  0.00    +0.000 A 
ATOM     18  C   UNL     1       4.371   6.669  17.958  0.00  0.00    +0.000 C 
ATOM     19  C   UNL     1       3.188   6.243  18.413  0.00  0.00    +0.000 C 
ATOM     20  H   UNL     1       7.806   7.358  16.177  0.00  0.00    +0.000 HD
ATOM     21  H   UNL     1       6.294   8.057  16.410  0.00  0.00    +0.000 HD
ENDBRANCH   1  19
BRANCH   4  22
ATOM     22  C   UNL     1      -0.273  10.117  20.942  0.00  0.00    +0.000 C 
ATOM     23  C   UNL     1      -0.091  10.185  22.466  0.00  0.00    +0.000 C 
ATOM     24  C   UNL     1      -1.242  10.938  23.111  0.00  0.00    +0.000 C 
ATOM     25  C   UNL     1      -1.414  12.344  22.517  0.00  0.00    +0.000 C 
ATOM     26  C   UNL     1      -1.446  12.348  20.975  0.00  0.00    +0.000 C 
ATOM     27  C   UNL     1      -0.297  11.537  20.357  0.00  0.00    +0.000 C 
BRANCH  25  28
ATOM     28  C   UNL     1      -2.616  13.074  23.140  0.00  0.00    +0.000 C 
BRANCH  28  29
ATOM     29  C   UNL     1      -2.291  14.110  24.202  0.00  0.00    +0.000 C 
ATOM     30  O   UNL     1      -3.073  14.595  25.002  0.00  0.00    +0.000 OA
BRANCH  29  31
ATOM     31  O   UNL     1      -0.986  14.471  24.174  0.00  0.00    +0.000 OA
ATOM     32  H   UNL     1      -0.438  14.034  24.854  0.00  0.00    +0.000 HD
ENDBRANCH  29  31
ENDBRANCH  28  29
ENDBRANCH  25  28
ENDBRANCH   4  22
TORSDOF 5
ENDMDL
MODEL 4
REMARK VINA RESULT:      -8.7      0.636      1.098
REMARK  Name = 
REMARK  7 active torsions:
REMARK  status: ('A' for Active; 'I' for Inactive)
REMARK    1  A    between atoms: C_1  and  C_2
REMARK    2  A    between atoms: C_2  and  C_3
REMARK    3  A    between atoms: C_13  and  C_14
REMARK    4  A    between atoms: C_17  and  C_18
REMARK    5  A    between atoms: C_21  and  C_22
REMARK    6  A    between atoms: C_22  and  C_23
REMARK    7  A    between atoms: C_23  and  O_25
REMARK                            x       y       z     vdW  Elec       q    Type
REMARK                         _______ _______ _______ _____ _____    ______ ____
ROOT
ATOM      1  C   UNL     1       2.274   7.534  19.149  0.00  0.00    +0.000 A 
ATOM      2  C   UNL     1       1.794   7.369  20.450  0.00  0.00    +0.000 A 
ATOM      3  C   UNL     1       0.869   8.269  20.970  0.00  0.00    +0.000 A 
ATOM      4  C   UNL     1       0.398   9.345  20.199  0.00  0.00    +0.000 A 
ATOM      5  C   UNL     1       0.829   9.466  18.872  0.00  0.00    +0.000 A 
ATOM      6  C   UNL     1       1.759   8.561  18.350  0.00  0.00    +0.000 A 
ENDROOT
BRANCH   1  19
ATOM      7  C   UNL     1       2.673   4.533  19.976  0.00  0.00    +0.000 C 
ATOM      8  C   UNL     1       2.962   5.089  18.571  0.00  0.00    +0.000 C 
ATOM      9  C   UNL     1       1.767   4.773  17.656  0.00  0.00    +0.000 C 
ATOM     10  O   UNL     1       4.049   4.271  18.075  0.00  0.00    +0.000 OA
ATOM     11  C   UNL     1       5.163   4.862  17.553  0.00  0.00    +0.000 A 
ATOM     12  N   UNL     1       6.037   3.979  17.035  0.00  0.00    +0.000 NA
ATOM     13  C   UNL     1       7.153   4.504  16.522  0.00  0.00    +0.000 A 
ATOM     14  N   UNL     1       7.465   5.807  16.467  0.00  0.00    +0.000 NA
ATOM     15  C   UNL     1       6.564   6.651  16.986  0.00  0.00    +0.000 A 
ATOM     16  N   UNL     1       6.921   8.004  16.938  0.00  0.00    +0.000 N 
ATOM     17  C   UNL     1       5.375   6.225  17.567  0.00  0.00    +0.000 A 
ATOM     18  C   UNL     1       4.398   7.118  18.156  0.00  0.00    +0.000 C 
ATOM     19  C   UNL     1       3.261   6.586  18.618  0.00  0.00    +0.000 C 
ATOM     20  H   UNL     1       7.797   8.067  16.425  0.00  0.00    +0.000 HD
ATOM     21  H   UNL     1       6.194   8.569  16.515  0.00  0.00    +0.000 HD
ENDBRANCH   1  19
BRANCH   4  22
ATOM     22  C   UNL     1      -0.421  10.407  20.903  0.00  0.00    +0.000 C 
ATOM     23  C   UNL     1      -0.354  10.126  22.411  0.00  0.00    +0.000 C 
ATOM     24  C   UNL     1      -1.334  11.007  23.167  0.00  0.00    +0.000 C 
ATOM     25  C   UNL     1      -1.106  12.498  22.877  0.00  0.00    +0.000 C 
ATOM     26  C   UNL     1      -1.010  12.814  21.371  0.00  0.00    +0.000 C 
ATOM     27  C   UNL     1      -0.048  11.872  20.631  0.00  0.00    +0.000 C 
BRANCH  25  28
ATOM     28  C   UNL     1      -2.140  13.376  23.604  0.00  0.00    +0.000 C 
BRANCH  28  29
ATOM     29  C   UNL     1      -3.553  12.824  23.677  0.00  0.00    +0.000 C 
ATOM     30  O   UNL     1      -4.195  12.358  22.751  0.00  0.00    +0.000 OA
BRANCH  29  31
ATOM     31  O   UNL     1      -4.064  12.905  24.928  0.00  0.00    +0.000 OA
ATOM     32  H   UNL     1      -4.894  13.415  24.987  0.00  0.00    +0.000 HD
ENDBRANCH  29  31
ENDBRANCH  28  29
ENDBRANCH  25  28
ENDBRANCH   4  22
TORSDOF 5
ENDMDL
MODEL 5
REMARK VINA RESULT:      -8.7      4.260      9.360
REMARK  Name = 
REMARK  7 active torsions:
REMARK  status: ('A' for Active; 'I' for Inactive)
REMARK    1  A    between atoms: C_1  and  C_2
REMARK    2  A    between atoms: C_2  and  C_3
REMARK    3  A    between atoms: C_13  and  C_14
REMARK    4  A    between atoms: C_17  and  C_18
REMARK    5  A    between atoms: C_21  and  C_22
REMARK    6  A    between atoms: C_22  and  C_23
REMARK    7  A    between atoms: C_23  and  O_25
REMARK                            x       y       z     vdW  Elec       q    Type
REMARK                         _______ _______ _______ _____ _____    ______ ____
ROOT
ATOM      1  C   UNL     1       1.273  10.283  18.972  0.00  0.00    +0.000 A 
ATOM      2  C   UNL     1       1.177   9.541  20.151  0.00  0.00    +0.000 A 
ATOM      3  C   UNL     1       1.637   8.228  20.186  0.00  0.00    +0.000 A 
ATOM      4  C   UNL     1       2.209   7.634  19.049  0.00  0.00    +0.000 A 
ATOM      5  C   UNL     1       2.366   8.405  17.890  0.00  0.00    +0.000 A 
ATOM      6  C   UNL     1       1.904   9.724  17.856  0.00  0.00    +0.000 A 
ENDROOT
BRANCH   1  19
ATOM      7  C   UNL     1      -1.577  11.259  18.092  0.00  0.00    +0.000 C 
ATOM      8  C   UNL     1      -0.713  11.959  19.153  0.00  0.00    +0.000 C 
ATOM      9  C   UNL     1      -1.193  11.526  20.550  0.00  0.00    +0.000 C 
ATOM     10  O   UNL     1      -1.071  13.359  19.044  0.00  0.00    +0.000 OA
ATOM     11  C   UNL     1      -0.093  14.304  18.929  0.00  0.00    +0.000 A 
ATOM     12  N   UNL     1      -0.570  15.563  18.946  0.00  0.00    +0.000 NA
ATOM     13  C   UNL     1       0.345  16.529  18.822  0.00  0.00    +0.000 A 
ATOM     14  N   UNL     1       1.669  16.357  18.697  0.00  0.00    +0.000 NA
ATOM     15  C   UNL     1       2.101  15.089  18.693  0.00  0.00    +0.000 A 
ATOM     16  N   UNL     1       3.484  14.934  18.539  0.00  0.00    +0.000 N 
ATOM     17  C   UNL     1       1.246  13.998  18.794  0.00  0.00    +0.000 A 
ATOM     18  C   UNL     1       1.688  12.619  18.766  0.00  0.00    +0.000 C 
ATOM     19  C   UNL     1       0.771  11.662  18.945  0.00  0.00    +0.000 C 
ATOM     20  H   UNL     1       3.894  15.864  18.541  0.00  0.00    +0.000 HD
ATOM     21  H   UNL     1       3.878  14.345  19.264  0.00  0.00    +0.000 HD
ENDBRANCH   1  19
BRANCH   4  22
ATOM     22  C   UNL     1       2.470   6.142  19.092  0.00  0.00    +0.000 C 
ATOM     23  C   UNL     1       1.771   5.582  20.340  0.00  0.00    +0.000 C 
ATOM     24  C   UNL     1       2.176   4.137  20.579  0.00  0.00    +0.000 C 
ATOM     25  C   UNL     1       1.900   3.253  19.354  0.00  0.00    +0.000 C 
ATOM     26  C   UNL     1       2.448   3.850  18.042  0.00  0.00    +0.000 C 
ATOM     27  C   UNL     1       2.061   5.325  17.857  0.00  0.00    +0.000 C 
BRANCH  25  28
ATOM     28  C   UNL     1       2.365   1.805  19.590  0.00  0.00    +0.000 C 
BRANCH  28  29
ATOM     29  C   UNL     1       3.846   1.538  19.387  0.00  0.00    +0.000 C 
ATOM     30  O   UNL     1       4.760   2.000  20.047  0.00  0.00    +0.000 OA
BRANCH  29  31
ATOM     31  O   UNL     1       4.070   0.699  18.348  0.00  0.00    +0.000 OA
ATOM     32  H   UNL     1       4.746   1.018  17.718  0.00  0.00    +0.000 HD
ENDBRANCH  29  31
ENDBRANCH  28  29
ENDBRANCH  25  28
ENDBRANCH   4  22
TORSDOF 5
ENDMDL
MODEL 6
REMARK VINA RESULT:      -8.5      1.433      1.840
REMARK  Name = 
REMARK  7 active torsions:
REMARK  status: ('A' for Active; 'I' for Inactive)
REMARK    1  A    between atoms: C_1  and  C_2
REMARK    2  A    between atoms: C_2  and  C_3
REMARK    3  A    between atoms: C_13  and  C_14
REMARK    4  A    between atoms: C_17  and  C_18
REMARK    5  A    between atoms: C_21  and  C_22
REMARK    6  A    between atoms: C_22  and  C_23
REMARK    7  A    between atoms: C_23  and  O_25
REMARK                            x       y       z     vdW  Elec       q    Type
REMARK                         _______ _______ _______ _____ _____    ______ ____
ROOT
ATOM      1  C   UNL     1       2.283   7.622  19.074  0.00  0.00    +0.000 A 
ATOM      2  C   UNL     1       1.834   7.514  20.392  0.00  0.00    +0.000 A 
ATOM      3  C   UNL     1       0.931   8.444  20.898  0.00  0.00    +0.000 A 
ATOM      4  C   UNL     1       0.453   9.494  20.097  0.00  0.00    +0.000 A 
ATOM      5  C   UNL     1       0.852   9.557  18.757  0.00  0.00    +0.000 A 
ATOM      6  C   UNL     1       1.759   8.622  18.248  0.00  0.00    +0.000 A 
ENDROOT
BRANCH   1  19
ATOM      7  C   UNL     1       2.600   4.621  19.934  0.00  0.00    +0.000 C 
ATOM      8  C   UNL     1       2.908   5.154  18.525  0.00  0.00    +0.000 C 
ATOM      9  C   UNL     1       1.708   4.859  17.609  0.00  0.00    +0.000 C 
ATOM     10  O   UNL     1       3.975   4.302  18.042  0.00  0.00    +0.000 OA
ATOM     11  C   UNL     1       5.105   4.858  17.517  0.00  0.00    +0.000 A 
ATOM     12  N   UNL     1       5.958   3.947  17.012  0.00  0.00    +0.000 NA
ATOM     13  C   UNL     1       7.089   4.437  16.497  0.00  0.00    +0.000 A 
ATOM     14  N   UNL     1       7.436   5.730  16.430  0.00  0.00    +0.000 NA
ATOM     15  C   UNL     1       6.555   6.603  16.937  0.00  0.00    +0.000 A 
ATOM     16  N   UNL     1       6.948   7.945  16.875  0.00  0.00    +0.000 N 
ATOM     17  C   UNL     1       5.354   6.215  17.517  0.00  0.00    +0.000 A 
ATOM     18  C   UNL     1       4.398   7.139  18.093  0.00  0.00    +0.000 C 
ATOM     19  C   UNL     1       3.246   6.643  18.557  0.00  0.00    +0.000 C 
ATOM     20  H   UNL     1       7.827   7.980  16.365  0.00  0.00    +0.000 HD
ATOM     21  H   UNL     1       6.237   8.525  16.444  0.00  0.00    +0.000 HD
ENDBRANCH   1  19
BRANCH   4  22
ATOM     22  C   UNL     1      -0.338  10.592  20.779  0.00  0.00    +0.000 C 
ATOM     23  C   UNL     1      -0.295  10.330  22.291  0.00  0.00    +0.000 C 
ATOM     24  C   UNL     1      -1.253  11.254  23.025  0.00  0.00    +0.000 C 
ATOM     25  C   UNL     1      -0.972  12.732  22.718  0.00  0.00    +0.000 C 
ATOM     26  C   UNL     1      -0.850  13.023  21.209  0.00  0.00    +0.000 C 
ATOM     27  C   UNL     1       0.087  12.041  20.491  0.00  0.00    +0.000 C 
BRANCH  25  28
ATOM     28  C   UNL     1      -1.983  13.653  23.423  0.00  0.00    +0.000 C 
BRANCH  28  29
ATOM     29  C   UNL     1      -1.395  14.736  24.310  0.00  0.00    +0.000 C 
ATOM     30  O   UNL     1      -1.907  15.207  25.311  0.00  0.00    +0.000 OA
BRANCH  29  31
ATOM     31  O   UNL     1      -0.188  15.156  23.863  0.00  0.00    +0.000 OA
ATOM     32  H   UNL     1      -0.209  16.027  23.420  0.00  0.00    +0.000 HD
ENDBRANCH  29  31
ENDBRANCH  28  29
ENDBRANCH  25  28
ENDBRANCH   4  22
TORSDOF 5
ENDMDL
MODEL 7
REMARK VINA RESULT:      -8.5      4.127      9.240
REMARK  Name = 
REMARK  7 active torsions:
REMARK  status: ('A' for Active; 'I' for Inactive)
REMARK    1  A    between atoms: C_1  and  C_2
REMARK    2  A    between atoms: C_2  and  C_3
REMARK    3  A    between atoms: C_13  and  C_14
REMARK    4  A    between atoms: C_17  and  C_18
REMARK    5  A    between atoms: C_21  and  C_22
REMARK    6  A    between atoms: C_22  and  C_23
REMARK    7  A    between atoms: C_23  and  O_25
REMARK                            x       y       z     vdW  Elec       q    Type
REMARK                         _______ _______ _______ _____ _____    ______ ____
ROOT
ATOM      1  C   UNL     1       1.379  10.533  18.989  0.00  0.00    +0.000 A 
ATOM      2  C   UNL     1       1.791   9.852  17.841  0.00  0.00    +0.000 A 
ATOM      3  C   UNL     1       2.057   8.488  17.900  0.00  0.00    +0.000 A 
ATOM      4  C   UNL     1       1.910   7.775  19.102  0.00  0.00    +0.000 A 
ATOM      5  C   UNL     1       1.430   8.448  20.232  0.00  0.00    +0.000 A 
ATOM      6  C   UNL     1       1.162   9.819  20.172  0.00  0.00    +0.000 A 
ENDROOT
BRANCH   1  19
ATOM      7  C   UNL     1      -1.382  11.946  18.508  0.00  0.00    +0.000 C 
ATOM      8  C   UNL     1      -0.236  12.546  19.340  0.00  0.00    +0.000 C 
ATOM      9  C   UNL     1      -0.522  12.295  20.831  0.00  0.00    +0.000 C 
ATOM     10  O   UNL     1      -0.371  13.977  19.161  0.00  0.00    +0.000 OA
ATOM     11  C   UNL     1       0.712  14.722  18.797  0.00  0.00    +0.000 A 
ATOM     12  N   UNL     1       0.461  16.045  18.775  0.00  0.00    +0.000 NA
ATOM     13  C   UNL     1       1.486  16.821  18.410  0.00  0.00    +0.000 A 
ATOM     14  N   UNL     1       2.718  16.408  18.084  0.00  0.00    +0.000 NA
ATOM     15  C   UNL     1       2.927  15.085  18.126  0.00  0.00    +0.000 A 
ATOM     16  N   UNL     1       4.214  14.675  17.760  0.00  0.00    +0.000 N 
ATOM     17  C   UNL     1       1.935  14.174  18.470  0.00  0.00    +0.000 A 
ATOM     18  C   UNL     1       2.131  12.739  18.499  0.00  0.00    +0.000 C 
ATOM     19  C   UNL     1       1.115  11.975  18.917  0.00  0.00    +0.000 C 
ATOM     20  H   UNL     1       4.766  15.515  17.606  0.00  0.00    +0.000 HD
ATOM     21  H   UNL     1       4.629  14.072  18.461  0.00  0.00    +0.000 HD
ENDBRANCH   1  19
BRANCH   4  22
ATOM     22  C   UNL     1       2.438   6.356  19.145  0.00  0.00    +0.000 C 
ATOM     23  C   UNL     1       1.886   5.691  20.416  0.00  0.00    +0.000 C 
ATOM     24  C   UNL     1       2.552   4.345  20.651  0.00  0.00    +0.000 C 
ATOM     25  C   UNL     1       2.408   3.414  19.438  0.00  0.00    +0.000 C 
ATOM     26  C   UNL     1       2.803   4.087  18.108  0.00  0.00    +0.000 C 
ATOM     27  C   UNL     1       2.150   5.465  17.927  0.00  0.00    +0.000 C 
BRANCH  25  28
ATOM     28  C   UNL     1       3.134   2.077  19.668  0.00  0.00    +0.000 C 
BRANCH  28  29
ATOM     29  C   UNL     1       4.564   2.170  20.168  0.00  0.00    +0.000 C 
ATOM     30  O   UNL     1       4.994   1.717  21.215  0.00  0.00    +0.000 OA
BRANCH  29  31
ATOM     31  O   UNL     1       5.359   2.843  19.303  0.00  0.00    +0.000 OA
ATOM     32  H   UNL     1       5.112   2.730  18.365  0.00  0.00    +0.000 HD
ENDBRANCH  29  31
ENDBRANCH  28  29
ENDBRANCH  25  28
ENDBRANCH   4  22
TORSDOF 5
ENDMDL
MODEL 8
REMARK VINA RESULT:      -8.5      1.211      1.836
REMARK  Name = 
REMARK  7 active torsions:
REMARK  status: ('A' for Active; 'I' for Inactive)
REMARK    1  A    between atoms: C_1  and  C_2
REMARK    2  A    between atoms: C_2  and  C_3
REMARK    3  A    between atoms: C_13  and  C_14
REMARK    4  A    between atoms: C_17  and  C_18
REMARK    5  A    between atoms: C_21  and  C_22
REMARK    6  A    between atoms: C_22  and  C_23
REMARK    7  A    between atoms: C_23  and  O_25
REMARK                            x       y       z     vdW  Elec       q    Type
REMARK                         _______ _______ _______ _____ _____    ______ ____
ROOT
ATOM      1  C   UNL     1       2.346   7.441  19.073  0.00  0.00    +0.000 A 
ATOM      2  C   UNL     1       1.966   7.295  20.409  0.00  0.00    +0.000 A 
ATOM      3  C   UNL     1       1.177   8.266  21.018  0.00  0.00    +0.000 A 
ATOM      4  C   UNL     1       0.745   9.397  20.304  0.00  0.00    +0.000 A 
ATOM      5  C   UNL     1       1.070   9.503  18.946  0.00  0.00    +0.000 A 
ATOM      6  C   UNL     1       1.863   8.527  18.334  0.00  0.00    +0.000 A 
ENDROOT
BRANCH   1  19
ATOM      7  C   UNL     1       2.363   4.360  19.667  0.00  0.00    +0.000 C 
ATOM      8  C   UNL     1       2.697   4.979  18.299  0.00  0.00    +0.000 C 
ATOM      9  C   UNL     1       1.454   4.890  17.397  0.00  0.00    +0.000 C 
ATOM     10  O   UNL     1       3.659   4.067  17.714  0.00  0.00    +0.000 OA
ATOM     11  C   UNL     1       4.830   4.547  17.205  0.00  0.00    +0.000 A 
ATOM     12  N   UNL     1       5.571   3.601  16.600  0.00  0.00    +0.000 NA
ATOM     13  C   UNL     1       6.737   4.015  16.096  0.00  0.00    +0.000 A 
ATOM     14  N   UNL     1       7.216   5.267  16.128  0.00  0.00    +0.000 NA
ATOM     15  C   UNL     1       6.443   6.179  16.732  0.00  0.00    +0.000 A 
ATOM     16  N   UNL     1       6.973   7.473  16.772  0.00  0.00    +0.000 N 
ATOM     17  C   UNL     1       5.219   5.867  17.313  0.00  0.00    +0.000 A 
ATOM     18  C   UNL     1       4.378   6.831  17.993  0.00  0.00    +0.000 C 
ATOM     19  C   UNL     1       3.191   6.417  18.447  0.00  0.00    +0.000 C 
ATOM     20  H   UNL     1       7.840   7.462  16.241  0.00  0.00    +0.000 HD
ATOM     21  H   UNL     1       6.318   8.158  16.413  0.00  0.00    +0.000 HD
ENDBRANCH   1  19
BRANCH   4  22
ATOM     22  C   UNL     1       0.092  10.516  21.089  0.00  0.00    +0.000 C 
ATOM     23  C   UNL     1      -0.925  11.202  20.166  0.00  0.00    +0.000 C 
ATOM     24  C   UNL     1      -1.455  12.476  20.803  0.00  0.00    +0.000 C 
ATOM     25  C   UNL     1      -2.062  12.215  22.190  0.00  0.00    +0.000 C 
ATOM     26  C   UNL     1      -1.138  11.390  23.108  0.00  0.00    +0.000 C 
ATOM     27  C   UNL     1      -0.583  10.136  22.416  0.00  0.00    +0.000 C 
BRANCH  25  28
ATOM     28  C   UNL     1      -2.543  13.521  22.846  0.00  0.00    +0.000 C 
BRANCH  28  29
ATOM     29  C   UNL     1      -1.513  14.275  23.668  0.00  0.00    +0.000 C 
ATOM     30  O   UNL     1      -0.390  14.585  23.310  0.00  0.00    +0.000 OA
BRANCH  29  31
ATOM     31  O   UNL     1      -1.978  14.583  24.902  0.00  0.00    +0.000 OA
ATOM     32  H   UNL     1      -1.322  14.462  25.616  0.00  0.00    +0.000 HD
ENDBRANCH  29  31
ENDBRANCH  28  29
ENDBRANCH  25  28
ENDBRANCH   4  22
TORSDOF 5
ENDMDL
MODEL 9
REMARK VINA RESULT:      -8.3      4.176      9.394
REMARK  Name = 
REMARK  7 active torsions:
REMARK  status: ('A' for Active; 'I' for Inactive)
REMARK    1  A    between atoms: C_1  and  C_2
REMARK    2  A    between atoms: C_2  and  C_3
REMARK    3  A    between atoms: C_13  and  C_14
REMARK    4  A    between atoms: C_17  and  C_18
REMARK    5  A    between atoms: C_21  and  C_22
REMARK    6  A    between atoms: C_22  and  C_23
REMARK    7  A    between atoms: C_23  and  O_25
REMARK                            x       y       z     vdW  Elec       q    Type
REMARK                         _______ _______ _______ _____ _____    ______ ____
ROOT
ATOM      1  C   UNL     1       1.225  10.384  19.000  0.00  0.00    +0.000 A 
ATOM      2  C   UNL     1       1.093   9.685  20.201  0.00  0.00    +0.000 A 
ATOM      3  C   UNL     1       1.502   8.357  20.282  0.00  0.00    +0.000 A 
ATOM      4  C   UNL     1       2.058   7.705  19.169  0.00  0.00    +0.000 A 
ATOM      5  C   UNL     1       2.253   8.431  17.988  0.00  0.00    +0.000 A 
ATOM      6  C   UNL     1       1.842   9.765  17.907  0.00  0.00    +0.000 A 
ENDROOT
BRANCH   1  19
ATOM      7  C   UNL     1      -1.559  11.443  18.011  0.00  0.00    +0.000 C 
ATOM      8  C   UNL     1      -0.699  12.137  19.081  0.00  0.00    +0.000 C 
ATOM      9  C   UNL     1      -1.236  11.758  20.472  0.00  0.00    +0.000 C 
ATOM     10  O   UNL     1      -1.001  13.546  18.927  0.00  0.00    +0.000 OA
ATOM     11  C   UNL     1       0.015  14.451  18.818  0.00  0.00    +0.000 A 
ATOM     12  N   UNL     1      -0.414  15.726  18.791  0.00  0.00    +0.000 NA
ATOM     13  C   UNL     1       0.540  16.654  18.671  0.00  0.00    +0.000 A 
ATOM     14  N   UNL     1       1.859  16.430  18.590  0.00  0.00    +0.000 NA
ATOM     15  C   UNL     1       2.243  15.147  18.629  0.00  0.00    +0.000 A 
ATOM     16  N   UNL     1       3.623  14.937  18.521  0.00  0.00    +0.000 N 
ATOM     17  C   UNL     1       1.344  14.092  18.731  0.00  0.00    +0.000 A 
ATOM     18  C   UNL     1       1.735  12.697  18.750  0.00  0.00    +0.000 C 
ATOM     19  C   UNL     1       0.777  11.780  18.924  0.00  0.00    +0.000 C 
ATOM     20  H   UNL     1       4.068  15.851  18.512  0.00  0.00    +0.000 HD
ATOM     21  H   UNL     1       3.973  14.352  19.271  0.00  0.00    +0.000 HD
ENDBRANCH   1  19
BRANCH   4  22
ATOM     22  C   UNL     1       2.261   6.207  19.263  0.00  0.00    +0.000 C 
ATOM     23  C   UNL     1       3.753   5.922  19.032  0.00  0.00    +0.000 C 
ATOM     24  C   UNL     1       3.998   4.430  18.882  0.00  0.00    +0.000 C 
ATOM     25  C   UNL     1       3.469   3.637  20.087  0.00  0.00    +0.000 C 
ATOM     26  C   UNL     1       2.018   4.001  20.459  0.00  0.00    +0.000 C 
ATOM     27  C   UNL     1       1.794   5.518  20.554  0.00  0.00    +0.000 C 
BRANCH  25  28
ATOM     28  C   UNL     1       3.674   2.124  19.897  0.00  0.00    +0.000 C 
BRANCH  28  29
ATOM     29  C   UNL     1       3.390   1.580  18.508  0.00  0.00    +0.000 C 
ATOM     30  O   UNL     1       2.462   1.897  17.784  0.00  0.00    +0.000 OA
BRANCH  29  31
ATOM     31  O   UNL     1       4.307   0.659  18.129  0.00  0.00    +0.000 OA
ATOM     32  H   UNL     1       3.920  -0.182  17.816  0.00  0.00    +0.000 HD
ENDBRANCH  29  31
ENDBRANCH  28  29
ENDBRANCH  25  28
ENDBRANCH   4  22
TORSDOF 5
ENDMDL
