MODEL 1
REMARK VINA RESULT:      -8.0      0.000      0.000
REMARK  Name = 
REMARK  5 active torsions:
REMARK  status: ('A' for Active; 'I' for Inactive)
REMARK    1  A    between atoms: C_1  and  C_2
REMARK    2  A    between atoms: C_2  and  C_4
REMARK    3  A    between atoms: N_6  and  S_7
REMARK    4  A    between atoms: S_7  and  C_10
REMARK    5  A    between atoms: C_20  and  C_21
REMARK                            x       y       z     vdW  Elec       q    Type
REMARK                         _______ _______ _______ _____ _____    ______ ____
ROOT
ATOM      1  C   UNL     1       3.566   6.967  18.151  0.00  0.00    +0.000 A 
ATOM      2  C   UNL     1       4.721   7.030  17.393  0.00  0.00    +0.000 A 
ATOM      3  N   UNL     1       5.462   5.897  17.639  0.00  0.00    +0.000 N 
ATOM      4  C   UNL     1       4.795   5.049  18.501  0.00  0.00    +0.000 A 
ATOM      5  C   UNL     1       5.115   3.791  19.049  0.00  0.00    +0.000 A 
ATOM      6  C   UNL     1       4.201   3.186  19.922  0.00  0.00    +0.000 A 
ATOM      7  C   UNL     1       3.000   3.805  20.249  0.00  0.00    +0.000 A 
ATOM      8  C   UNL     1       2.694   5.060  19.715  0.00  0.00    +0.000 A 
ATOM      9  C   UNL     1       3.596   5.699  18.830  0.00  0.00    +0.000 A 
ENDROOT
BRANCH   1  11
ATOM     10  C   UNL     1       1.825   8.207  19.569  0.00  0.00    +0.000 C 
ATOM     11  C   UNL     1       2.519   7.993  18.247  0.00  0.00    +0.000 C 
ATOM     12  O   UNL     1       2.203   8.673  17.272  0.00  0.00    +0.000 OA
ENDBRANCH   1  11
BRANCH   3  13
ATOM     13  S   UNL     1       6.951   5.594  16.851  0.00  0.00    +0.000 S 
ATOM     14  O   UNL     1       7.499   6.916  16.603  0.00  0.00    +0.000 OA
ATOM     15  O   UNL     1       7.661   4.602  17.630  0.00  0.00    +0.000 OA
BRANCH  13  16
ATOM     16  C   UNL     1       6.567   4.876  15.273  0.00  0.00    +0.000 A 
ATOM     17  C   UNL     1       5.378   4.136  15.161  0.00  0.00    +0.000 A 
ATOM     18  C   UNL     1       5.064   3.495  13.959  0.00  0.00    +0.000 A 
ATOM     19  C   UNL     1       5.931   3.601  12.876  0.00  0.00    +0.000 A 
ATOM     20 CL   UNL     1       5.575   2.768  11.414  0.00  0.00    +0.000 Cl
ATOM     21  C   UNL     1       7.094   4.369  12.972  0.00  0.00    +0.000 A 
ATOM     22  C   UNL     1       7.416   5.015  14.172  0.00  0.00    +0.000 A 
ENDBRANCH  13  16
ENDBRANCH   3  13
BRANCH   7  23
ATOM     23  C   UNL     1       2.072   3.158  21.136  0.00  0.00    +0.000 C 
ATOM     24  N   UNL     1       1.331   2.631  21.860  0.00  0.00    +0.000 NA
ENDBRANCH   7  23
TORSDOF 4
ENDMDL
MODEL 2
REMARK VINA RESULT:      -7.9      0.730      1.272
REMARK  Name = 
REMARK  5 active torsions:
REMARK  status: ('A' for Active; 'I' for Inactive)
REMARK    1  A    between atoms: C_1  and  C_2
REMARK    2  A    between atoms: C_2  and  C_4
REMARK    3  A    between atoms: N_6  and  S_7
REMARK    4  A    between atoms: S_7  and  C_10
REMARK    5  A    between atoms: C_20  and  C_21
REMARK                            x       y       z     vdW  Elec       q    Type
REMARK                         _______ _______ _______ _____ _____    ______ ____
ROOT
ATOM      1  C   UNL     1       3.351   7.007  18.612  0.00  0.00    +0.000 A 
ATOM      2  C   UNL     1       4.485   7.180  17.839  0.00  0.00    +0.000 A 
ATOM      3  N   UNL     1       5.280   6.066  17.982  0.00  0.00    +0.000 N 
ATOM      4  C   UNL     1       4.671   5.125  18.790  0.00  0.00    +0.000 A 
ATOM      5  C   UNL     1       5.058   3.845  19.234  0.00  0.00    +0.000 A 
ATOM      6  C   UNL     1       4.192   3.135  20.075  0.00  0.00    +0.000 A 
ATOM      7  C   UNL     1       2.973   3.673  20.473  0.00  0.00    +0.000 A 
ATOM      8  C   UNL     1       2.600   4.950  20.043  0.00  0.00    +0.000 A 
ATOM      9  C   UNL     1       3.453   5.694  19.192  0.00  0.00    +0.000 A 
ENDROOT
BRANCH   1  11
ATOM     10  C   UNL     1       1.800   8.801  17.636  0.00  0.00    +0.000 C 
ATOM     11  C   UNL     1       2.263   7.975  18.808  0.00  0.00    +0.000 C 
ATOM     12  O   UNL     1       1.731   8.118  19.908  0.00  0.00    +0.000 OA
ENDBRANCH   1  11
BRANCH   3  13
ATOM     13  S   UNL     1       6.762   5.891  17.144  0.00  0.00    +0.000 S 
ATOM     14  O   UNL     1       7.116   7.245  16.758  0.00  0.00    +0.000 OA
ATOM     15  O   UNL     1       7.632   5.074  17.964  0.00  0.00    +0.000 OA
BRANCH  13  16
ATOM     16  C   UNL     1       6.413   4.990  15.654  0.00  0.00    +0.000 A 
ATOM     17  C   UNL     1       7.301   5.135  14.576  0.00  0.00    +0.000 A 
ATOM     18  C   UNL     1       7.034   4.500  13.360  0.00  0.00    +0.000 A 
ATOM     19  C   UNL     1       5.890   3.718  13.228  0.00  0.00    +0.000 A 
ATOM     20 CL   UNL     1       5.531   2.981  11.716  0.00  0.00    +0.000 Cl
ATOM     21  C   UNL     1       5.026   3.540  14.311  0.00  0.00    +0.000 A 
ATOM     22  C   UNL     1       5.285   4.173  15.533  0.00  0.00    +0.000 A 
ENDBRANCH  13  16
ENDBRANCH   3  13
BRANCH   7  23
ATOM     23  C   UNL     1       2.094   2.919  21.326  0.00  0.00    +0.000 C 
ATOM     24  N   UNL     1       1.391   2.300  22.013  0.00  0.00    +0.000 NA
ENDBRANCH   7  23
TORSDOF 4
ENDMDL
MODEL 3
REMARK VINA RESULT:      -7.7      1.276      1.282
REMARK  Name = 
REMARK  5 active torsions:
REMARK  status: ('A' for Active; 'I' for Inactive)
REMARK    1  A    between atoms: C_1  and  C_2
REMARK    2  A    between atoms: C_2  and  C_4
REMARK    3  A    between atoms: N_6  and  S_7
REMARK    4  A    between atoms: S_7  and  C_10
REMARK    5  A    between atoms: C_20  and  C_21
REMARK                            x       y       z     vdW  Elec       q    Type
REMARK                         _______ _______ _______ _____ _____    ______ ____
ROOT
ATOM      1  C   UNL     1       3.567   6.959  17.741  0.00  0.00    +0.000 A 
ATOM      2  C   UNL     1       4.865   7.102  17.283  0.00  0.00    +0.000 A 
ATOM      3  N   UNL     1       5.426   5.850  17.179  0.00  0.00    +0.000 N 
ATOM      4  C   UNL     1       4.509   4.869  17.499  0.00  0.00    +0.000 A 
ATOM      5  C   UNL     1       4.583   3.462  17.544  0.00  0.00    +0.000 A 
ATOM      6  C   UNL     1       3.445   2.741  17.930  0.00  0.00    +0.000 A 
ATOM      7  C   UNL     1       2.262   3.389  18.265  0.00  0.00    +0.000 A 
ATOM      8  C   UNL     1       2.197   4.785  18.235  0.00  0.00    +0.000 A 
ATOM      9  C   UNL     1       3.330   5.544  17.850  0.00  0.00    +0.000 A 
ENDROOT
BRANCH   1  11
ATOM     10  C   UNL     1       2.013   8.093  19.436  0.00  0.00    +0.000 C 
ATOM     11  C   UNL     1       2.621   8.037  18.058  0.00  0.00    +0.000 C 
ATOM     12  O   UNL     1       2.322   8.887  17.221  0.00  0.00    +0.000 OA
ENDBRANCH   1  11
BRANCH   3  13
ATOM     13  S   UNL     1       7.022   5.613  16.605  0.00  0.00    +0.000 S 
ATOM     14  O   UNL     1       7.563   6.956  16.489  0.00  0.00    +0.000 OA
ATOM     15  O   UNL     1       7.640   4.606  17.442  0.00  0.00    +0.000 OA
BRANCH  13  16
ATOM     16  C   UNL     1       6.890   4.951  14.962  0.00  0.00    +0.000 A 
ATOM     17  C   UNL     1       5.893   3.993  14.720  0.00  0.00    +0.000 A 
ATOM     18  C   UNL     1       5.792   3.392  13.461  0.00  0.00    +0.000 A 
ATOM     19  C   UNL     1       6.679   3.757  12.452  0.00  0.00    +0.000 A 
ATOM     20 CL   UNL     1       6.592   2.980  10.919  0.00  0.00    +0.000 Cl
ATOM     21  C   UNL     1       7.645   4.739  12.679  0.00  0.00    +0.000 A 
ATOM     22  C   UNL     1       7.754   5.345  13.936  0.00  0.00    +0.000 A 
ENDBRANCH  13  16
ENDBRANCH   3  13
BRANCH   7  23
ATOM     23  C   UNL     1       1.103   2.626  18.644  0.00  0.00    +0.000 C 
ATOM     24  N   UNL     1       0.162   2.021  18.956  0.00  0.00    +0.000 NA
ENDBRANCH   7  23
TORSDOF 4
ENDMDL
MODEL 4
REMARK VINA RESULT:      -7.5      1.251      1.591
REMARK  Name = 
REMARK  5 active torsions:
REMARK  status: ('A' for Active; 'I' for Inactive)
REMARK    1  A    between atoms: C_1  and  C_2
REMARK    2  A    between atoms: C_2  and  C_4
REMARK    3  A    between atoms: N_6  and  S_7
REMARK    4  A    between atoms: S_7  and  C_10
REMARK    5  A    between atoms: C_20  and  C_21
REMARK                            x       y       z     vdW  Elec       q    Type
REMARK                         _______ _______ _______ _____ _____    ______ ____
ROOT
ATOM      1  C   UNL     1       3.465   7.047  17.831  0.00  0.00    +0.000 A 
ATOM      2  C   UNL     1       4.775   7.208  17.417  0.00  0.00    +0.000 A 
ATOM      3  N   UNL     1       5.361   5.966  17.344  0.00  0.00    +0.000 N 
ATOM      4  C   UNL     1       4.451   4.971  17.643  0.00  0.00    +0.000 A 
ATOM      5  C   UNL     1       4.548   3.567  17.704  0.00  0.00    +0.000 A 
ATOM      6  C   UNL     1       3.411   2.829  18.058  0.00  0.00    +0.000 A 
ATOM      7  C   UNL     1       2.205   3.459  18.346  0.00  0.00    +0.000 A 
ATOM      8  C   UNL     1       2.117   4.853  18.299  0.00  0.00    +0.000 A 
ATOM      9  C   UNL     1       3.249   5.629  17.946  0.00  0.00    +0.000 A 
ENDROOT
BRANCH   1  11
ATOM     10  C   UNL     1       1.878   8.205  19.479  0.00  0.00    +0.000 C 
ATOM     11  C   UNL     1       2.490   8.111  18.105  0.00  0.00    +0.000 C 
ATOM     12  O   UNL     1       2.169   8.918  17.235  0.00  0.00    +0.000 OA
ENDBRANCH   1  11
BRANCH   3  13
ATOM     13  S   UNL     1       6.979   5.752  16.827  0.00  0.00    +0.000 S 
ATOM     14  O   UNL     1       7.482   7.104  16.658  0.00  0.00    +0.000 OA
ATOM     15  O   UNL     1       7.603   4.809  17.732  0.00  0.00    +0.000 OA
BRANCH  13  16
ATOM     16  C   UNL     1       6.917   5.005  15.218  0.00  0.00    +0.000 A 
ATOM     17  C   UNL     1       7.784   5.500  14.231  0.00  0.00    +0.000 A 
ATOM     18  C   UNL     1       7.726   4.992  12.930  0.00  0.00    +0.000 A 
ATOM     19  C   UNL     1       6.811   3.988  12.624  0.00  0.00    +0.000 A 
ATOM     20 CL   UNL     1       6.701   3.399  11.012  0.00  0.00    +0.000 Cl
ATOM     21  C   UNL     1       5.975   3.466  13.613  0.00  0.00    +0.000 A 
ATOM     22  C   UNL     1       6.026   3.970  14.919  0.00  0.00    +0.000 A 
ENDBRANCH  13  16
ENDBRANCH   3  13
BRANCH   7  23
ATOM     23  C   UNL     1       1.047   2.679  18.693  0.00  0.00    +0.000 C 
ATOM     24  N   UNL     1       0.105   2.058  18.967  0.00  0.00    +0.000 NA
ENDBRANCH   7  23
TORSDOF 4
ENDMDL
MODEL 5
REMARK VINA RESULT:      -7.3      2.107      3.592
REMARK  Name = 
REMARK  5 active torsions:
REMARK  status: ('A' for Active; 'I' for Inactive)
REMARK    1  A    between atoms: C_1  and  C_2
REMARK    2  A    between atoms: C_2  and  C_4
REMARK    3  A    between atoms: N_6  and  S_7
REMARK    4  A    between atoms: S_7  and  C_10
REMARK    5  A    between atoms: C_20  and  C_21
REMARK                            x       y       z     vdW  Elec       q    Type
REMARK                         _______ _______ _______ _____ _____    ______ ____
ROOT
ATOM      1  C   UNL     1       3.279   4.942  19.708  0.00  0.00    +0.000 A 
ATOM      2  C   UNL     1       4.552   4.536  19.351  0.00  0.00    +0.000 A 
ATOM      3  N   UNL     1       5.064   5.452  18.461  0.00  0.00    +0.000 N 
ATOM      4  C   UNL     1       4.182   6.495  18.263  0.00  0.00    +0.000 A 
ATOM      5  C   UNL     1       4.232   7.659  17.471  0.00  0.00    +0.000 A 
ATOM      6  C   UNL     1       3.136   8.533  17.488  0.00  0.00    +0.000 A 
ATOM      7  C   UNL     1       2.016   8.266  18.267  0.00  0.00    +0.000 A 
ATOM      8  C   UNL     1       1.964   7.103  19.040  0.00  0.00    +0.000 A 
ATOM      9  C   UNL     1       3.054   6.199  19.044  0.00  0.00    +0.000 A 
ENDROOT
BRANCH   1  11
ATOM     10  C   UNL     1       1.306   3.325  19.969  0.00  0.00    +0.000 C 
ATOM     11  C   UNL     1       2.342   4.230  20.586  0.00  0.00    +0.000 C 
ATOM     12  O   UNL     1       2.390   4.362  21.809  0.00  0.00    +0.000 OA
ENDBRANCH   1  11
BRANCH   3  13
ATOM     13  S   UNL     1       6.644   5.310  17.817  0.00  0.00    +0.000 S 
ATOM     14  O   UNL     1       7.160   6.667  17.834  0.00  0.00    +0.000 OA
ATOM     15  O   UNL     1       7.304   4.229  18.519  0.00  0.00    +0.000 OA
BRANCH  13  16
ATOM     16  C   UNL     1       6.471   4.831  16.116  0.00  0.00    +0.000 A 
ATOM     17  C   UNL     1       5.366   4.037  15.767  0.00  0.00    +0.000 A 
ATOM     18  C   UNL     1       5.222   3.578  14.455  0.00  0.00    +0.000 A 
ATOM     19  C   UNL     1       6.173   3.919  13.498  0.00  0.00    +0.000 A 
ATOM     20 CL   UNL     1       6.027   3.310  11.896  0.00  0.00    +0.000 Cl
ATOM     21  C   UNL     1       7.252   4.741  13.833  0.00  0.00    +0.000 A 
ATOM     22  C   UNL     1       7.404   5.205  15.145  0.00  0.00    +0.000 A 
ENDBRANCH  13  16
ENDBRANCH   3  13
BRANCH   7  23
ATOM     23  C   UNL     1       0.910   9.185  18.280  0.00  0.00    +0.000 C 
ATOM     24  N   UNL     1       0.020   9.932  18.301  0.00  0.00    +0.000 NA
ENDBRANCH   7  23
TORSDOF 4
ENDMDL
MODEL 6
REMARK VINA RESULT:      -7.3      3.546      5.078
REMARK  Name = 
REMARK  5 active torsions:
REMARK  status: ('A' for Active; 'I' for Inactive)
REMARK    1  A    between atoms: C_1  and  C_2
REMARK    2  A    between atoms: C_2  and  C_4
REMARK    3  A    between atoms: N_6  and  S_7
REMARK    4  A    between atoms: S_7  and  C_10
REMARK    5  A    between atoms: C_20  and  C_21
REMARK                            x       y       z     vdW  Elec       q    Type
REMARK                         _______ _______ _______ _____ _____    ______ ____
ROOT
ATOM      1  C   UNL     1       3.269   3.830  19.951  0.00  0.00    +0.000 A 
ATOM      2  C   UNL     1       4.246   3.660  18.987  0.00  0.00    +0.000 A 
ATOM      3  N   UNL     1       4.360   4.832  18.275  0.00  0.00    +0.000 N 
ATOM      4  C   UNL     1       3.521   5.803  18.784  0.00  0.00    +0.000 A 
ATOM      5  C   UNL     1       3.270   7.141  18.423  0.00  0.00    +0.000 A 
ATOM      6  C   UNL     1       2.324   7.870  19.157  0.00  0.00    +0.000 A 
ATOM      7  C   UNL     1       1.640   7.294  20.221  0.00  0.00    +0.000 A 
ATOM      8  C   UNL     1       1.880   5.961  20.566  0.00  0.00    +0.000 A 
ATOM      9  C   UNL     1       2.829   5.196  19.844  0.00  0.00    +0.000 A 
ENDROOT
BRANCH   1  11
ATOM     10  C   UNL     1       1.287   2.607  21.025  0.00  0.00    +0.000 C 
ATOM     11  C   UNL     1       2.774   2.817  20.893  0.00  0.00    +0.000 C 
ATOM     12  O   UNL     1       3.551   2.145  21.569  0.00  0.00    +0.000 OA
ENDBRANCH   1  11
BRANCH   3  13
ATOM     13  S   UNL     1       5.502   5.022  17.014  0.00  0.00    +0.000 S 
ATOM     14  O   UNL     1       6.257   3.783  17.025  0.00  0.00    +0.000 OA
ATOM     15  O   UNL     1       4.781   5.472  15.841  0.00  0.00    +0.000 OA
BRANCH  13  16
ATOM     16  C   UNL     1       6.608   6.321  17.506  0.00  0.00    +0.000 A 
ATOM     17  C   UNL     1       7.532   6.044  18.526  0.00  0.00    +0.000 A 
ATOM     18  C   UNL     1       8.379   7.053  18.995  0.00  0.00    +0.000 A 
ATOM     19  C   UNL     1       8.305   8.327  18.440  0.00  0.00    +0.000 A 
ATOM     20 CL   UNL     1       9.307   9.584  19.052  0.00  0.00    +0.000 Cl
ATOM     21  C   UNL     1       7.414   8.595  17.397  0.00  0.00    +0.000 A 
ATOM     22  C   UNL     1       6.562   7.591  16.922  0.00  0.00    +0.000 A 
ENDBRANCH  13  16
ENDBRANCH   3  13
BRANCH   7  23
ATOM     23  C   UNL     1       0.684   8.066  20.968  0.00  0.00    +0.000 C 
ATOM     24  N   UNL     1      -0.090   8.680  21.579  0.00  0.00    +0.000 NA
ENDBRANCH   7  23
TORSDOF 4
ENDMDL
MODEL 7
REMARK VINA RESULT:      -7.3      2.152      3.749
REMARK  Name = 
REMARK  5 active torsions:
REMARK  status: ('A' for Active; 'I' for Inactive)
REMARK    1  A    between atoms: C_1  and  C_2
REMARK    2  A    between atoms: C_2  and  C_4
REMARK    3  A    between atoms: N_6  and  S_7
REMARK    4  A    between atoms: S_7  and  C_10
REMARK    5  A    between atoms: C_20  and  C_21
REMARK                            x       y       z     vdW  Elec       q    Type
REMARK                         _______ _______ _______ _____ _____    ______ ____
ROOT
ATOM      1  C   UNL     1       3.157   5.002  19.705  0.00  0.00    +0.000 A 
ATOM      2  C   UNL     1       4.430   4.585  19.361  0.00  0.00    +0.000 A 
ATOM      3  N   UNL     1       4.957   5.495  18.473  0.00  0.00    +0.000 N 
ATOM      4  C   UNL     1       4.084   6.545  18.265  0.00  0.00    +0.000 A 
ATOM      5  C   UNL     1       4.150   7.706  17.470  0.00  0.00    +0.000 A 
ATOM      6  C   UNL     1       3.061   8.588  17.475  0.00  0.00    +0.000 A 
ATOM      7  C   UNL     1       1.931   8.331  18.244  0.00  0.00    +0.000 A 
ATOM      8  C   UNL     1       1.863   7.170  19.019  0.00  0.00    +0.000 A 
ATOM      9  C   UNL     1       2.947   6.258  19.036  0.00  0.00    +0.000 A 
ENDROOT
BRANCH   1  11
ATOM     10  C   UNL     1       0.990   3.654  19.961  0.00  0.00    +0.000 C 
ATOM     11  C   UNL     1       2.206   4.298  20.576  0.00  0.00    +0.000 C 
ATOM     12  O   UNL     1       2.387   4.230  21.791  0.00  0.00    +0.000 OA
ENDBRANCH   1  11
BRANCH   3  13
ATOM     13  S   UNL     1       6.542   5.341  17.845  0.00  0.00    +0.000 S 
ATOM     14  O   UNL     1       7.029   6.706  17.762  0.00  0.00    +0.000 OA
ATOM     15  O   UNL     1       7.222   4.329  18.627  0.00  0.00    +0.000 OA
BRANCH  13  16
ATOM     16  C   UNL     1       6.385   4.733  16.184  0.00  0.00    +0.000 A 
ATOM     17  C   UNL     1       7.386   5.079  15.262  0.00  0.00    +0.000 A 
ATOM     18  C   UNL     1       7.274   4.682  13.926  0.00  0.00    +0.000 A 
ATOM     19  C   UNL     1       6.172   3.936  13.520  0.00  0.00    +0.000 A 
ATOM     20 CL   UNL     1       6.004   3.492  11.867  0.00  0.00    +0.000 Cl
ATOM     21  C   UNL     1       5.195   3.556  14.444  0.00  0.00    +0.000 A 
ATOM     22  C   UNL     1       5.299   3.950  15.784  0.00  0.00    +0.000 A 
ENDBRANCH  13  16
ENDBRANCH   3  13
BRANCH   7  23
ATOM     23  C   UNL     1       0.832   9.258  18.244  0.00  0.00    +0.000 C 
ATOM     24  N   UNL     1      -0.051  10.013  18.254  0.00  0.00    +0.000 NA
ENDBRANCH   7  23
TORSDOF 4
ENDMDL
MODEL 8
REMARK VINA RESULT:      -6.9      3.611      5.130
REMARK  Name = 
REMARK  5 active torsions:
REMARK  status: ('A' for Active; 'I' for Inactive)
REMARK    1  A    between atoms: C_1  and  C_2
REMARK    2  A    between atoms: C_2  and  C_4
REMARK    3  A    between atoms: N_6  and  S_7
REMARK    4  A    between atoms: S_7  and  C_10
REMARK    5  A    between atoms: C_20  and  C_21
REMARK                            x       y       z     vdW  Elec       q    Type
REMARK                         _______ _______ _______ _____ _____    ______ ____
ROOT
ATOM      1  C   UNL     1       3.382   3.897  19.794  0.00  0.00    +0.000 A 
ATOM      2  C   UNL     1       4.385   3.830  18.843  0.00  0.00    +0.000 A 
ATOM      3  N   UNL     1       4.451   5.044  18.199  0.00  0.00    +0.000 N 
ATOM      4  C   UNL     1       3.554   5.941  18.743  0.00  0.00    +0.000 A 
ATOM      5  C   UNL     1       3.241   7.284  18.451  0.00  0.00    +0.000 A 
ATOM      6  C   UNL     1       2.246   7.922  19.203  0.00  0.00    +0.000 A 
ATOM      7  C   UNL     1       1.572   7.253  20.219  0.00  0.00    +0.000 A 
ATOM      8  C   UNL     1       1.874   5.917  20.495  0.00  0.00    +0.000 A 
ATOM      9  C   UNL     1       2.875   5.242  19.753  0.00  0.00    +0.000 A 
ENDROOT
BRANCH   1  11
ATOM     10  C   UNL     1       1.473   2.399  20.623  0.00  0.00    +0.000 C 
ATOM     11  C   UNL     1       2.923   2.809  20.667  0.00  0.00    +0.000 C 
ATOM     12  O   UNL     1       3.700   2.234  21.428  0.00  0.00    +0.000 OA
ENDBRANCH   1  11
BRANCH   3  13
ATOM     13  S   UNL     1       5.605   5.362  16.975  0.00  0.00    +0.000 S 
ATOM     14  O   UNL     1       6.371   4.133  16.877  0.00  0.00    +0.000 OA
ATOM     15  O   UNL     1       4.893   5.915  15.841  0.00  0.00    +0.000 OA
BRANCH  13  16
ATOM     16  C   UNL     1       6.693   6.618  17.600  0.00  0.00    +0.000 A 
ATOM     17  C   UNL     1       6.591   7.907  17.052  0.00  0.00    +0.000 A 
ATOM     18  C   UNL     1       7.471   8.912  17.462  0.00  0.00    +0.000 A 
ATOM     19  C   UNL     1       8.440   8.630  18.421  0.00  0.00    +0.000 A 
ATOM     20 CL   UNL     1       9.558   9.851  18.888  0.00  0.00    +0.000 Cl
ATOM     21  C   UNL     1       8.517   7.360  18.997  0.00  0.00    +0.000 A 
ATOM     22  C   UNL     1       7.641   6.347  18.591  0.00  0.00    +0.000 A 
ENDBRANCH  13  16
ENDBRANCH   3  13
BRANCH   7  23
ATOM     23  C   UNL     1       0.564   7.933  20.987  0.00  0.00    +0.000 C 
ATOM     24  N   UNL     1      -0.257   8.472  21.608  0.00  0.00    +0.000 NA
ENDBRANCH   7  23
TORSDOF 4
ENDMDL
MODEL 9
REMARK VINA RESULT:      -6.9      3.718      7.042
REMARK  Name = 
REMARK  5 active torsions:
REMARK  status: ('A' for Active; 'I' for Inactive)
REMARK    1  A    between atoms: C_1  and  C_2
REMARK    2  A    between atoms: C_2  and  C_4
REMARK    3  A    between atoms: N_6  and  S_7
REMARK    4  A    between atoms: S_7  and  C_10
REMARK    5  A    between atoms: C_20  and  C_21
REMARK                            x       y       z     vdW  Elec       q    Type
REMARK                         _______ _______ _______ _____ _____    ______ ____
ROOT
ATOM      1  C   UNL     1       6.626   5.516  18.570  0.00  0.00    +0.000 A 
ATOM      2  C   UNL     1       5.469   5.357  19.311  0.00  0.00    +0.000 A 
ATOM      3  N   UNL     1       4.447   5.024  18.452  0.00  0.00    +0.000 N 
ATOM      4  C   UNL     1       4.911   4.898  17.158  0.00  0.00    +0.000 A 
ATOM      5  C   UNL     1       4.282   4.577  15.938  0.00  0.00    +0.000 A 
ATOM      6  C   UNL     1       5.057   4.541  14.771  0.00  0.00    +0.000 A 
ATOM      7  C   UNL     1       6.419   4.818  14.802  0.00  0.00    +0.000 A 
ATOM      8  C   UNL     1       7.036   5.151  16.011  0.00  0.00    +0.000 A 
ATOM      9  C   UNL     1       6.282   5.196  17.210  0.00  0.00    +0.000 A 
ENDROOT
BRANCH   1  11
ATOM     10  C   UNL     1       8.436   7.323  18.757  0.00  0.00    +0.000 C 
ATOM     11  C   UNL     1       7.942   5.933  19.070  0.00  0.00    +0.000 C 
ATOM     12  O   UNL     1       8.641   5.170  19.735  0.00  0.00    +0.000 OA
ENDBRANCH   1  11
BRANCH   3  13
ATOM     13  S   UNL     1       2.859   4.707  19.006  0.00  0.00    +0.000 S 
ATOM     14  O   UNL     1       2.146   4.269  17.819  0.00  0.00    +0.000 OA
ATOM     15  O   UNL     1       2.969   3.875  20.187  0.00  0.00    +0.000 OA
BRANCH  13  16
ATOM     16  C   UNL     1       2.160   6.263  19.499  0.00  0.00    +0.000 A 
ATOM     17  C   UNL     1       2.251   7.337  18.599  0.00  0.00    +0.000 A 
ATOM     18  C   UNL     1       1.776   8.600  18.966  0.00  0.00    +0.000 A 
ATOM     19  C   UNL     1       1.207   8.782  20.224  0.00  0.00    +0.000 A 
ATOM     20 CL   UNL     1       0.673  10.346  20.699  0.00  0.00    +0.000 Cl
ATOM     21  C   UNL     1       1.079   7.706  21.106  0.00  0.00    +0.000 A 
ATOM     22  C   UNL     1       1.552   6.438  20.746  0.00  0.00    +0.000 A 
ENDBRANCH  13  16
ENDBRANCH   3  13
BRANCH   7  23
ATOM     23  C   UNL     1       7.195   4.761  13.593  0.00  0.00    +0.000 C 
ATOM     24  N   UNL     1       7.813   4.709  12.611  0.00  0.00    +0.000 NA
ENDBRANCH   7  23
TORSDOF 4
ENDMDL
