MODEL 1
REMARK VINA RESULT:      -8.2      0.000      0.000
REMARK  Name = 
REMARK  5 active torsions:
REMARK  status: ('A' for Active; 'I' for Inactive)
REMARK    1  A    between atoms: C_2  and  C_3
REMARK    2  A    between atoms: C_2  and  C_16
REMARK    3  A    between atoms: C_3  and  C_4
REMARK    4  A    between atoms: C_4  and  C_5
REMARK    5  A    between atoms: N_9  and  C_10
REMARK                            x       y       z     vdW  Elec       q    Type
REMARK                         _______ _______ _______ _____ _____    ______ ____
ROOT
ATOM      1  C   UNL     1       6.147   5.640  17.045  0.00  0.00    +0.000 A 
ATOM      2  C   UNL     1       6.758   5.509  18.280  0.00  0.00    +0.000 A 
ATOM      3  N   UNL     1       7.816   4.672  18.203  0.00  0.00    +0.000 NA
ATOM      4  N   UNL     1       7.917   4.269  16.949  0.00  0.00    +0.000 NA
ATOM      5  N   UNL     1       6.960   4.884  16.196  0.00  0.00    +0.000 N 
ENDROOT
BRANCH   5   6
ATOM      6  C   UNL     1       6.945   4.677  14.784  0.00  0.00    +0.000 A 
ATOM      7  C   UNL     1       6.059   3.724  14.251  0.00  0.00    +0.000 A 
ATOM      8  C   UNL     1       6.009   3.482  12.875  0.00  0.00    +0.000 A 
ATOM      9  C   UNL     1       6.838   4.194  12.013  0.00  0.00    +0.000 A 
ATOM     10  C   UNL     1       7.729   5.127  12.529  0.00  0.00    +0.000 A 
ATOM     11  C   UNL     1       7.789   5.366  13.907  0.00  0.00    +0.000 A 
ENDBRANCH   5   6
BRANCH   1  12
ATOM     12  C   UNL     1       4.895   6.372  16.675  0.00  0.00    +0.000 C 
BRANCH  12  13
ATOM     13  C   UNL     1       3.753   6.094  17.651  0.00  0.00    +0.000 C 
BRANCH  13  15
ATOM     14  O   UNL     1       3.434   3.923  16.654  0.00  0.00    +0.000 OA
ATOM     15  C   UNL     1       3.281   4.653  17.628  0.00  0.00    +0.000 C 
BRANCH  15  16
ATOM     16  C   UNL     1       2.556   4.152  18.834  0.00  0.00    +0.000 A 
ATOM     17  C   UNL     1       2.903   4.566  20.128  0.00  0.00    +0.000 A 
ATOM     18  C   UNL     1       2.206   4.080  21.235  0.00  0.00    +0.000 A 
ATOM     19  C   UNL     1       1.154   3.186  21.057  0.00  0.00    +0.000 A 
ATOM     20  C   UNL     1       0.797   2.775  19.774  0.00  0.00    +0.000 A 
ATOM     21  C   UNL     1       1.498   3.253  18.663  0.00  0.00    +0.000 A 
ENDBRANCH  15  16
ENDBRANCH  13  15
ENDBRANCH  12  13
ENDBRANCH   1  12
TORSDOF 5
ENDMDL
MODEL 2
REMARK VINA RESULT:      -8.2      0.125      1.061
REMARK  Name = 
REMARK  5 active torsions:
REMARK  status: ('A' for Active; 'I' for Inactive)
REMARK    1  A    between atoms: C_2  and  C_3
REMARK    2  A    between atoms: C_2  and  C_16
REMARK    3  A    between atoms: C_3  and  C_4
REMARK    4  A    between atoms: C_4  and  C_5
REMARK    5  A    between atoms: N_9  and  C_10
REMARK                            x       y       z     vdW  Elec       q    Type
REMARK                         _______ _______ _______ _____ _____    ______ ____
ROOT
ATOM      1  C   UNL     1       6.214   5.680  17.058  0.00  0.00    +0.000 A 
ATOM      2  C   UNL     1       6.812   5.508  18.294  0.00  0.00    +0.000 A 
ATOM      3  N   UNL     1       7.831   4.624  18.213  0.00  0.00    +0.000 NA
ATOM      4  N   UNL     1       7.919   4.231  16.955  0.00  0.00    +0.000 NA
ATOM      5  N   UNL     1       6.996   4.896  16.205  0.00  0.00    +0.000 N 
ENDROOT
BRANCH   5   6
ATOM      6  C   UNL     1       6.978   4.705  14.791  0.00  0.00    +0.000 A 
ATOM      7  C   UNL     1       6.110   3.738  14.251  0.00  0.00    +0.000 A 
ATOM      8  C   UNL     1       6.058   3.511  12.873  0.00  0.00    +0.000 A 
ATOM      9  C   UNL     1       6.868   4.250  12.014  0.00  0.00    +0.000 A 
ATOM     10  C   UNL     1       7.740   5.198  12.537  0.00  0.00    +0.000 A 
ATOM     11  C   UNL     1       7.802   5.422  13.917  0.00  0.00    +0.000 A 
ENDBRANCH   5   6
BRANCH   1  12
ATOM     12  C   UNL     1       4.998   6.472  16.690  0.00  0.00    +0.000 C 
BRANCH  12  13
ATOM     13  C   UNL     1       3.830   6.215  17.641  0.00  0.00    +0.000 C 
BRANCH  13  15
ATOM     14  O   UNL     1       3.452   4.076  16.596  0.00  0.00    +0.000 OA
ATOM     15  C   UNL     1       3.310   4.792  17.582  0.00  0.00    +0.000 C 
BRANCH  15  16
ATOM     16  C   UNL     1       2.548   4.293  18.767  0.00  0.00    +0.000 A 
ATOM     17  C   UNL     1       1.504   3.366  18.636  0.00  0.00    +0.000 A 
ATOM     18  C   UNL     1       0.812   2.920  19.764  0.00  0.00    +0.000 A 
ATOM     19  C   UNL     1       1.164   3.387  21.027  0.00  0.00    +0.000 A 
ATOM     20  C   UNL     1       2.207   4.302  21.166  0.00  0.00    +0.000 A 
ATOM     21  C   UNL     1       2.897   4.759  20.039  0.00  0.00    +0.000 A 
ENDBRANCH  15  16
ENDBRANCH  13  15
ENDBRANCH  12  13
ENDBRANCH   1  12
TORSDOF 5
ENDMDL
MODEL 3
REMARK VINA RESULT:      -8.2      1.050      1.699
REMARK  Name = 
REMARK  5 active torsions:
REMARK  status: ('A' for Active; 'I' for Inactive)
REMARK    1  A    between atoms: C_2  and  C_3
REMARK    2  A    between atoms: C_2  and  C_16
REMARK    3  A    between atoms: C_3  and  C_4
REMARK    4  A    between atoms: C_4  and  C_5
REMARK    5  A    between atoms: N_9  and  C_10
REMARK                            x       y       z     vdW  Elec       q    Type
REMARK                         _______ _______ _______ _____ _____    ______ ____
ROOT
ATOM      1  C   UNL     1       5.765   4.946  17.203  0.00  0.00    +0.000 A 
ATOM      2  C   UNL     1       6.423   5.002  18.419  0.00  0.00    +0.000 A 
ATOM      3  N   UNL     1       7.717   4.639  18.279  0.00  0.00    +0.000 NA
ATOM      4  N   UNL     1       7.920   4.365  17.002  0.00  0.00    +0.000 NA
ATOM      5  N   UNL     1       6.775   4.601  16.300  0.00  0.00    +0.000 N 
ENDROOT
BRANCH   5   6
ATOM      6  C   UNL     1       6.790   4.470  14.879  0.00  0.00    +0.000 A 
ATOM      7  C   UNL     1       7.688   5.259  14.137  0.00  0.00    +0.000 A 
ATOM      8  C   UNL     1       7.738   5.169  12.744  0.00  0.00    +0.000 A 
ATOM      9  C   UNL     1       6.898   4.286  12.071  0.00  0.00    +0.000 A 
ATOM     10  C   UNL     1       5.996   3.511  12.792  0.00  0.00    +0.000 A 
ATOM     11  C   UNL     1       5.936   3.604  14.187  0.00  0.00    +0.000 A 
ENDBRANCH   5   6
BRANCH   1  12
ATOM     12  C   UNL     1       4.316   5.159  16.893  0.00  0.00    +0.000 C 
BRANCH  12  13
ATOM     13  C   UNL     1       3.534   3.847  16.857  0.00  0.00    +0.000 C 
BRANCH  13  15
ATOM     14  O   UNL     1       1.189   4.316  17.150  0.00  0.00    +0.000 OA
ATOM     15  C   UNL     1       2.234   3.901  17.637  0.00  0.00    +0.000 C 
BRANCH  15  16
ATOM     16  C   UNL     1       2.279   3.475  19.069  0.00  0.00    +0.000 A 
ATOM     17  C   UNL     1       1.200   3.693  19.936  0.00  0.00    +0.000 A 
ATOM     18  C   UNL     1       1.273   3.283  21.269  0.00  0.00    +0.000 A 
ATOM     19  C   UNL     1       2.418   2.647  21.740  0.00  0.00    +0.000 A 
ATOM     20  C   UNL     1       3.492   2.419  20.881  0.00  0.00    +0.000 A 
ATOM     21  C   UNL     1       3.427   2.836  19.548  0.00  0.00    +0.000 A 
ENDBRANCH  15  16
ENDBRANCH  13  15
ENDBRANCH  12  13
ENDBRANCH   1  12
TORSDOF 5
ENDMDL
MODEL 4
REMARK VINA RESULT:      -8.2      1.081      1.563
REMARK  Name = 
REMARK  5 active torsions:
REMARK  status: ('A' for Active; 'I' for Inactive)
REMARK    1  A    between atoms: C_2  and  C_3
REMARK    2  A    between atoms: C_2  and  C_16
REMARK    3  A    between atoms: C_3  and  C_4
REMARK    4  A    between atoms: C_4  and  C_5
REMARK    5  A    between atoms: N_9  and  C_10
REMARK                            x       y       z     vdW  Elec       q    Type
REMARK                         _______ _______ _______ _____ _____    ______ ____
ROOT
ATOM      1  C   UNL     1       6.398   5.802  17.257  0.00  0.00    +0.000 A 
ATOM      2  C   UNL     1       7.059   5.648  18.463  0.00  0.00    +0.000 A 
ATOM      3  N   UNL     1       8.008   4.691  18.368  0.00  0.00    +0.000 NA
ATOM      4  N   UNL     1       7.991   4.232  17.129  0.00  0.00    +0.000 NA
ATOM      5  N   UNL     1       7.070   4.925  16.401  0.00  0.00    +0.000 N 
ENDROOT
BRANCH   5   6
ATOM      6  C   UNL     1       6.951   4.668  15.002  0.00  0.00    +0.000 A 
ATOM      7  C   UNL     1       7.819   5.331  14.117  0.00  0.00    +0.000 A 
ATOM      8  C   UNL     1       7.740   5.115  12.738  0.00  0.00    +0.000 A 
ATOM      9  C   UNL     1       6.797   4.228  12.225  0.00  0.00    +0.000 A 
ATOM     10  C   UNL     1       5.923   3.578  13.089  0.00  0.00    +0.000 A 
ATOM     11  C   UNL     1       5.993   3.798  14.469  0.00  0.00    +0.000 A 
ENDBRANCH   5   6
BRANCH   1  12
ATOM     12  C   UNL     1       5.218   6.661  16.920  0.00  0.00    +0.000 C 
BRANCH  12  13
ATOM     13  C   UNL     1       3.908   5.876  16.938  0.00  0.00    +0.000 C 
BRANCH  13  15
ATOM     14  O   UNL     1       2.942   7.352  18.580  0.00  0.00    +0.000 OA
ATOM     15  C   UNL     1       3.018   6.219  18.117  0.00  0.00    +0.000 C 
BRANCH  15  16
ATOM     16  C   UNL     1       2.262   5.097  18.752  0.00  0.00    +0.000 A 
ATOM     17  C   UNL     1       1.891   5.129  20.103  0.00  0.00    +0.000 A 
ATOM     18  C   UNL     1       1.185   4.064  20.666  0.00  0.00    +0.000 A 
ATOM     19  C   UNL     1       0.837   2.967  19.882  0.00  0.00    +0.000 A 
ATOM     20  C   UNL     1       1.195   2.931  18.535  0.00  0.00    +0.000 A 
ATOM     21  C   UNL     1       1.910   3.991  17.969  0.00  0.00    +0.000 A 
ENDBRANCH  15  16
ENDBRANCH  13  15
ENDBRANCH  12  13
ENDBRANCH   1  12
TORSDOF 5
ENDMDL
MODEL 5
REMARK VINA RESULT:      -8.2      0.943      1.765
REMARK  Name = 
REMARK  5 active torsions:
REMARK  status: ('A' for Active; 'I' for Inactive)
REMARK    1  A    between atoms: C_2  and  C_3
REMARK    2  A    between atoms: C_2  and  C_16
REMARK    3  A    between atoms: C_3  and  C_4
REMARK    4  A    between atoms: C_4  and  C_5
REMARK    5  A    between atoms: N_9  and  C_10
REMARK                            x       y       z     vdW  Elec       q    Type
REMARK                         _______ _______ _______ _____ _____    ______ ____
ROOT
ATOM      1  C   UNL     1       6.276   5.626  17.443  0.00  0.00    +0.000 A 
ATOM      2  C   UNL     1       6.980   5.517  18.630  0.00  0.00    +0.000 A 
ATOM      3  N   UNL     1       8.035   4.685  18.484  0.00  0.00    +0.000 NA
ATOM      4  N   UNL     1       8.043   4.264  17.232  0.00  0.00    +0.000 NA
ATOM      5  N   UNL     1       7.027   4.862  16.545  0.00  0.00    +0.000 N 
ENDROOT
BRANCH   5   6
ATOM      6  C   UNL     1       6.906   4.634  15.142  0.00  0.00    +0.000 A 
ATOM      7  C   UNL     1       7.776   5.312  14.269  0.00  0.00    +0.000 A 
ATOM      8  C   UNL     1       7.695   5.125  12.887  0.00  0.00    +0.000 A 
ATOM      9  C   UNL     1       6.748   4.252  12.357  0.00  0.00    +0.000 A 
ATOM     10  C   UNL     1       5.873   3.588  13.207  0.00  0.00    +0.000 A 
ATOM     11  C   UNL     1       5.945   3.779  14.592  0.00  0.00    +0.000 A 
ENDBRANCH   5   6
BRANCH   1  12
ATOM     12  C   UNL     1       4.994   6.345  17.159  0.00  0.00    +0.000 C 
BRANCH  12  13
ATOM     13  C   UNL     1       3.786   5.411  17.200  0.00  0.00    +0.000 C 
BRANCH  13  15
ATOM     14  O   UNL     1       2.320   7.012  18.247  0.00  0.00    +0.000 OA
ATOM     15  C   UNL     1       2.717   5.854  18.180  0.00  0.00    +0.000 C 
BRANCH  15  16
ATOM     16  C   UNL     1       2.189   4.824  19.126  0.00  0.00    +0.000 A 
ATOM     17  C   UNL     1       1.354   3.784  18.693  0.00  0.00    +0.000 A 
ATOM     18  C   UNL     1       0.877   2.837  19.601  0.00  0.00    +0.000 A 
ATOM     19  C   UNL     1       1.239   2.917  20.943  0.00  0.00    +0.000 A 
ATOM     20  C   UNL     1       2.076   3.943  21.381  0.00  0.00    +0.000 A 
ATOM     21  C   UNL     1       2.548   4.898  20.476  0.00  0.00    +0.000 A 
ENDBRANCH  15  16
ENDBRANCH  13  15
ENDBRANCH  12  13
ENDBRANCH   1  12
TORSDOF 5
ENDMDL
MODEL 6
REMARK VINA RESULT:      -8.2      1.012      1.450
REMARK  Name = 
REMARK  5 active torsions:
REMARK  status: ('A' for Active; 'I' for Inactive)
REMARK    1  A    between atoms: C_2  and  C_3
REMARK    2  A    between atoms: C_2  and  C_16
REMARK    3  A    between atoms: C_3  and  C_4
REMARK    4  A    between atoms: C_4  and  C_5
REMARK    5  A    between atoms: N_9  and  C_10
REMARK                            x       y       z     vdW  Elec       q    Type
REMARK                         _______ _______ _______ _____ _____    ______ ____
ROOT
ATOM      1  C   UNL     1       6.336   5.734  17.271  0.00  0.00    +0.000 A 
ATOM      2  C   UNL     1       6.989   5.574  18.481  0.00  0.00    +0.000 A 
ATOM      3  N   UNL     1       7.987   4.670  18.369  0.00  0.00    +0.000 NA
ATOM      4  N   UNL     1       8.010   4.252  17.116  0.00  0.00    +0.000 NA
ATOM      5  N   UNL     1       7.063   4.920  16.397  0.00  0.00    +0.000 N 
ENDROOT
BRANCH   5   6
ATOM      6  C   UNL     1       6.975   4.703  14.989  0.00  0.00    +0.000 A 
ATOM      7  C   UNL     1       6.008   3.805  14.503  0.00  0.00    +0.000 A 
ATOM      8  C   UNL     1       5.884   3.556  13.134  0.00  0.00    +0.000 A 
ATOM      9  C   UNL     1       6.720   4.205  12.229  0.00  0.00    +0.000 A 
ATOM     10  C   UNL     1       7.691   5.083  12.698  0.00  0.00    +0.000 A 
ATOM     11  C   UNL     1       7.823   5.329  14.069  0.00  0.00    +0.000 A 
ENDBRANCH   5   6
BRANCH   1  12
ATOM     12  C   UNL     1       5.119   6.542  16.945  0.00  0.00    +0.000 C 
BRANCH  12  13
ATOM     13  C   UNL     1       3.835   5.718  17.041  0.00  0.00    +0.000 C 
BRANCH  13  15
ATOM     14  O   UNL     1       2.827   7.268  18.586  0.00  0.00    +0.000 OA
ATOM     15  C   UNL     1       2.958   6.107  18.215  0.00  0.00    +0.000 C 
BRANCH  15  16
ATOM     16  C   UNL     1       2.287   5.000  18.962  0.00  0.00    +0.000 A 
ATOM     17  C   UNL     1       1.615   3.964  18.298  0.00  0.00    +0.000 A 
ATOM     18  C   UNL     1       0.998   2.944  19.025  0.00  0.00    +0.000 A 
ATOM     19  C   UNL     1       1.056   2.948  20.416  0.00  0.00    +0.000 A 
ATOM     20  C   UNL     1       1.729   3.970  21.084  0.00  0.00    +0.000 A 
ATOM     21  C   UNL     1       2.341   4.998  20.360  0.00  0.00    +0.000 A 
ENDBRANCH  15  16
ENDBRANCH  13  15
ENDBRANCH  12  13
ENDBRANCH   1  12
TORSDOF 5
ENDMDL
MODEL 7
REMARK VINA RESULT:      -8.1      1.188      1.336
REMARK  Name = 
REMARK  5 active torsions:
REMARK  status: ('A' for Active; 'I' for Inactive)
REMARK    1  A    between atoms: C_2  and  C_3
REMARK    2  A    between atoms: C_2  and  C_16
REMARK    3  A    between atoms: C_3  and  C_4
REMARK    4  A    between atoms: C_4  and  C_5
REMARK    5  A    between atoms: N_9  and  C_10
REMARK                            x       y       z     vdW  Elec       q    Type
REMARK                         _______ _______ _______ _____ _____    ______ ____
ROOT
ATOM      1  C   UNL     1       5.988   5.295  17.097  0.00  0.00    +0.000 A 
ATOM      2  C   UNL     1       6.613   5.201  18.328  0.00  0.00    +0.000 A 
ATOM      3  N   UNL     1       7.797   4.559  18.215  0.00  0.00    +0.000 NA
ATOM      4  N   UNL     1       7.964   4.249  16.942  0.00  0.00    +0.000 NA
ATOM      5  N   UNL     1       6.917   4.734  16.215  0.00  0.00    +0.000 N 
ENDROOT
BRANCH   5   6
ATOM      6  C   UNL     1       6.936   4.606  14.794  0.00  0.00    +0.000 A 
ATOM      7  C   UNL     1       6.070   3.678  14.188  0.00  0.00    +0.000 A 
ATOM      8  C   UNL     1       6.053   3.513  12.800  0.00  0.00    +0.000 A 
ATOM      9  C   UNL     1       6.898   4.276  11.998  0.00  0.00    +0.000 A 
ATOM     10  C   UNL     1       7.769   5.185  12.586  0.00  0.00    +0.000 A 
ATOM     11  C   UNL     1       7.795   5.348  13.976  0.00  0.00    +0.000 A 
ENDBRANCH   5   6
BRANCH   1  12
ATOM     12  C   UNL     1       4.630   5.825  16.756  0.00  0.00    +0.000 C 
BRANCH  12  13
ATOM     13  C   UNL     1       4.196   6.949  17.696  0.00  0.00    +0.000 C 
BRANCH  13  15
ATOM     14  O   UNL     1       1.971   7.860  17.847  0.00  0.00    +0.000 OA
ATOM     15  C   UNL     1       2.719   6.909  18.038  0.00  0.00    +0.000 C 
BRANCH  15  16
ATOM     16  C   UNL     1       2.201   5.664  18.682  0.00  0.00    +0.000 A 
ATOM     17  C   UNL     1       2.137   5.527  20.076  0.00  0.00    +0.000 A 
ATOM     18  C   UNL     1       1.648   4.351  20.648  0.00  0.00    +0.000 A 
ATOM     19  C   UNL     1       1.211   3.310  19.832  0.00  0.00    +0.000 A 
ATOM     20  C   UNL     1       1.264   3.441  18.445  0.00  0.00    +0.000 A 
ATOM     21  C   UNL     1       1.761   4.614  17.869  0.00  0.00    +0.000 A 
ENDBRANCH  15  16
ENDBRANCH  13  15
ENDBRANCH  12  13
ENDBRANCH   1  12
TORSDOF 5
ENDMDL
MODEL 8
REMARK VINA RESULT:      -8.0      1.018      1.298
REMARK  Name = 
REMARK  5 active torsions:
REMARK  status: ('A' for Active; 'I' for Inactive)
REMARK    1  A    between atoms: C_2  and  C_3
REMARK    2  A    between atoms: C_2  and  C_16
REMARK    3  A    between atoms: C_3  and  C_4
REMARK    4  A    between atoms: C_4  and  C_5
REMARK    5  A    between atoms: N_9  and  C_10
REMARK                            x       y       z     vdW  Elec       q    Type
REMARK                         _______ _______ _______ _____ _____    ______ ____
ROOT
ATOM      1  C   UNL     1       5.674   4.792  16.967  0.00  0.00    +0.000 A 
ATOM      2  C   UNL     1       6.254   4.861  18.222  0.00  0.00    +0.000 A 
ATOM      3  N   UNL     1       7.584   4.631  18.146  0.00  0.00    +0.000 NA
ATOM      4  N   UNL     1       7.883   4.431  16.875  0.00  0.00    +0.000 NA
ATOM      5  N   UNL     1       6.762   4.583  16.114  0.00  0.00    +0.000 N 
ENDROOT
BRANCH   5   6
ATOM      6  C   UNL     1       6.869   4.513  14.693  0.00  0.00    +0.000 A 
ATOM      7  C   UNL     1       6.087   3.570  14.002  0.00  0.00    +0.000 A 
ATOM      8  C   UNL     1       6.159   3.460  12.611  0.00  0.00    +0.000 A 
ATOM      9  C   UNL     1       7.008   4.295  11.889  0.00  0.00    +0.000 A 
ATOM     10  C   UNL     1       7.796   5.222  12.562  0.00  0.00    +0.000 A 
ATOM     11  C   UNL     1       7.734   5.329  13.956  0.00  0.00    +0.000 A 
ENDBRANCH   5   6
BRANCH   1  12
ATOM     12  C   UNL     1       4.230   4.877  16.579  0.00  0.00    +0.000 C 
BRANCH  12  13
ATOM     13  C   UNL     1       3.355   5.396  17.719  0.00  0.00    +0.000 C 
BRANCH  13  15
ATOM     14  O   UNL     1       1.210   4.392  17.278  0.00  0.00    +0.000 OA
ATOM     15  C   UNL     1       2.174   4.497  18.028  0.00  0.00    +0.000 C 
BRANCH  15  16
ATOM     16  C   UNL     1       2.194   3.767  19.332  0.00  0.00    +0.000 A 
ATOM     17  C   UNL     1       1.048   3.657  20.132  0.00  0.00    +0.000 A 
ATOM     18  C   UNL     1       1.099   2.968  21.346  0.00  0.00    +0.000 A 
ATOM     19  C   UNL     1       2.290   2.379  21.762  0.00  0.00    +0.000 A 
ATOM     20  C   UNL     1       3.432   2.478  20.968  0.00  0.00    +0.000 A 
ATOM     21  C   UNL     1       3.387   3.174  19.756  0.00  0.00    +0.000 A 
ENDBRANCH  15  16
ENDBRANCH  13  15
ENDBRANCH  12  13
ENDBRANCH   1  12
TORSDOF 5
ENDMDL
MODEL 9
REMARK VINA RESULT:      -7.9      1.582      1.960
REMARK  Name = 
REMARK  5 active torsions:
REMARK  status: ('A' for Active; 'I' for Inactive)
REMARK    1  A    between atoms: C_2  and  C_3
REMARK    2  A    between atoms: C_2  and  C_16
REMARK    3  A    between atoms: C_3  and  C_4
REMARK    4  A    between atoms: C_4  and  C_5
REMARK    5  A    between atoms: N_9  and  C_10
REMARK                            x       y       z     vdW  Elec       q    Type
REMARK                         _______ _______ _______ _____ _____    ______ ____
ROOT
ATOM      1  C   UNL     1       6.642   5.984  17.265  0.00  0.00    +0.000 A 
ATOM      2  C   UNL     1       7.293   5.775  18.469  0.00  0.00    +0.000 A 
ATOM      3  N   UNL     1       8.080   4.679  18.402  0.00  0.00    +0.000 NA
ATOM      4  N   UNL     1       7.969   4.181  17.184  0.00  0.00    +0.000 NA
ATOM      5  N   UNL     1       7.154   4.980  16.438  0.00  0.00    +0.000 N 
ENDROOT
BRANCH   5   6
ATOM      6  C   UNL     1       6.971   4.690  15.053  0.00  0.00    +0.000 A 
ATOM      7  C   UNL     1       7.820   5.307  14.116  0.00  0.00    +0.000 A 
ATOM      8  C   UNL     1       7.679   5.058  12.748  0.00  0.00    +0.000 A 
ATOM      9  C   UNL     1       6.693   4.185  12.297  0.00  0.00    +0.000 A 
ATOM     10  C   UNL     1       5.838   3.581  13.212  0.00  0.00    +0.000 A 
ATOM     11  C   UNL     1       5.970   3.834  14.582  0.00  0.00    +0.000 A 
ENDBRANCH   5   6
BRANCH   1  12
ATOM     12  C   UNL     1       5.604   7.002  16.908  0.00  0.00    +0.000 C 
BRANCH  12  13
ATOM     13  C   UNL     1       4.212   6.386  16.772  0.00  0.00    +0.000 C 
BRANCH  13  15
ATOM     14  O   UNL     1       3.320   6.646  18.995  0.00  0.00    +0.000 OA
ATOM     15  C   UNL     1       3.644   5.889  18.087  0.00  0.00    +0.000 C 
BRANCH  15  16
ATOM     16  C   UNL     1       3.542   4.409  18.270  0.00  0.00    +0.000 A 
ATOM     17  C   UNL     1       4.285   3.734  19.248  0.00  0.00    +0.000 A 
ATOM     18  C   UNL     1       4.167   2.351  19.394  0.00  0.00    +0.000 A 
ATOM     19  C   UNL     1       3.300   1.636  18.572  0.00  0.00    +0.000 A 
ATOM     20  C   UNL     1       2.551   2.301  17.602  0.00  0.00    +0.000 A 
ATOM     21  C   UNL     1       2.673   3.685  17.447  0.00  0.00    +0.000 A 
ENDBRANCH  15  16
ENDBRANCH  13  15
ENDBRANCH  12  13
ENDBRANCH   1  12
TORSDOF 5
ENDMDL
