MODEL 1
REMARK VINA RESULT:      -7.7      0.000      0.000
REMARK  Name = 
REMARK  4 active torsions:
REMARK  status: ('A' for Active; 'I' for Inactive)
REMARK    1  A    between atoms: C_1  and  C_2
REMARK    2  A    between atoms: N_7  and  C_8
REMARK    3  A    between atoms: C_8  and  C_9
REMARK    4  A    between atoms: N_19  and  C_20
REMARK                            x       y       z     vdW  Elec       q    Type
REMARK                         _______ _______ _______ _____ _____    ______ ____
ROOT
ATOM      1  C   UNL     1       2.865   2.454  21.686  0.00  0.00    +0.000 C 
ATOM      2  C   UNL     1       3.543   2.423  20.338  0.00  0.00    +0.000 C 
ATOM      3  O   UNL     1       4.714   2.047  20.245  0.00  0.00    +0.000 OA
ATOM      4  N   UNL     1       2.831   2.852  19.225  0.00  0.00    +0.000 N 
ATOM      5  C   UNL     1       1.607   3.643  19.347  0.00  0.00    +0.000 C 
ATOM      6  C   UNL     1       1.946   5.122  19.601  0.00  0.00    +0.000 C 
ATOM      7  N   UNL     1       2.242   5.936  18.413  0.00  0.00    +0.000 NA
ATOM      8  C   UNL     1       2.994   5.299  17.321  0.00  0.00    +0.000 C 
ATOM      9  C   UNL     1       4.139   4.281  17.591  0.00  0.00    +0.000 C 
ATOM     10  C   UNL     1       5.164   4.757  18.638  0.00  0.00    +0.000 C 
ATOM     11  C   UNL     1       6.522   4.535  18.058  0.00  0.00    +0.000 C 
ATOM     12  O   UNL     1       7.570   4.651  18.670  0.00  0.00    +0.000 OA
ATOM     13  N   UNL     1       6.365   4.381  16.699  0.00  0.00    +0.000 N 
ATOM     14  C   UNL     1       7.372   4.860  15.777  0.00  0.00    +0.000 C 
ATOM     15  C   UNL     1       4.996   4.157  16.298  0.00  0.00    +0.000 C 
ATOM     16  C   UNL     1       3.516   2.906  17.931  0.00  0.00    +0.000 C 
ENDROOT
BRANCH   7  17
ATOM     17  C   UNL     1       2.841   7.236  18.778  0.00  0.00    +0.000 C 
BRANCH  17  18
ATOM     18  C   UNL     1       1.888   8.373  18.802  0.00  0.00    +0.000 A 
ATOM     19  C   UNL     1       1.439   9.265  17.857  0.00  0.00    +0.000 A 
ATOM     20  C   UNL     1       0.595  10.176  18.543  0.00  0.00    +0.000 A 
ATOM     21  C   UNL     1       0.576   9.763  19.860  0.00  0.00    +0.000 A 
ATOM     22  O   UNL     1       1.352   8.670  20.021  0.00  0.00    +0.000 OA
ENDBRANCH  17  18
ENDBRANCH   7  17
TORSDOF 2
ENDMDL
MODEL 2
REMARK VINA RESULT:      -7.3      1.165      1.436
REMARK  Name = 
REMARK  4 active torsions:
REMARK  status: ('A' for Active; 'I' for Inactive)
REMARK    1  A    between atoms: C_1  and  C_2
REMARK    2  A    between atoms: N_7  and  C_8
REMARK    3  A    between atoms: C_8  and  C_9
REMARK    4  A    between atoms: N_19  and  C_20
REMARK                            x       y       z     vdW  Elec       q    Type
REMARK                         _______ _______ _______ _____ _____    ______ ____
ROOT
ATOM      1  C   UNL     1       2.330   2.445  21.819  0.00  0.00    +0.000 C 
ATOM      2  C   UNL     1       3.100   2.661  20.539  0.00  0.00    +0.000 C 
ATOM      3  O   UNL     1       4.285   2.328  20.467  0.00  0.00    +0.000 OA
ATOM      4  N   UNL     1       2.453   3.266  19.468  0.00  0.00    +0.000 N 
ATOM      5  C   UNL     1       1.200   4.002  19.636  0.00  0.00    +0.000 C 
ATOM      6  C   UNL     1       1.476   5.418  20.166  0.00  0.00    +0.000 C 
ATOM      7  N   UNL     1       1.828   6.433  19.161  0.00  0.00    +0.000 NA
ATOM      8  C   UNL     1       2.671   6.010  18.033  0.00  0.00    +0.000 C 
ATOM      9  C   UNL     1       3.826   4.981  18.205  0.00  0.00    +0.000 C 
ATOM     10  C   UNL     1       4.762   5.285  19.390  0.00  0.00    +0.000 C 
ATOM     11  C   UNL     1       6.162   5.193  18.881  0.00  0.00    +0.000 C 
ATOM     12  O   UNL     1       7.162   5.218  19.578  0.00  0.00    +0.000 OA
ATOM     13  N   UNL     1       6.103   5.276  17.508  0.00  0.00    +0.000 N 
ATOM     14  C   UNL     1       7.156   5.926  16.758  0.00  0.00    +0.000 C 
ATOM     15  C   UNL     1       4.772   5.100  16.976  0.00  0.00    +0.000 C 
ATOM     16  C   UNL     1       3.222   3.558  18.256  0.00  0.00    +0.000 C 
ENDROOT
BRANCH   7  17
ATOM     17  C   UNL     1       2.360   7.660  19.788  0.00  0.00    +0.000 C 
BRANCH  17  18
ATOM     18  C   UNL     1       1.331   8.559  20.365  0.00  0.00    +0.000 A 
ATOM     19  C   UNL     1       0.770   8.695  21.613  0.00  0.00    +0.000 A 
ATOM     20  C   UNL     1      -0.235   9.688  21.488  0.00  0.00    +0.000 A 
ATOM     21  C   UNL     1      -0.205  10.101  20.171  0.00  0.00    +0.000 A 
ATOM     22  O   UNL     1       0.744   9.425  19.489  0.00  0.00    +0.000 OA
ENDBRANCH  17  18
ENDBRANCH   7  17
TORSDOF 2
ENDMDL
MODEL 3
REMARK VINA RESULT:      -7.2      1.611      2.004
REMARK  Name = 
REMARK  4 active torsions:
REMARK  status: ('A' for Active; 'I' for Inactive)
REMARK    1  A    between atoms: C_1  and  C_2
REMARK    2  A    between atoms: N_7  and  C_8
REMARK    3  A    between atoms: C_8  and  C_9
REMARK    4  A    between atoms: N_19  and  C_20
REMARK                            x       y       z     vdW  Elec       q    Type
REMARK                         _______ _______ _______ _____ _____    ______ ____
ROOT
ATOM      1  C   UNL     1       2.361   1.790  19.017  0.00  0.00    +0.000 C 
ATOM      2  C   UNL     1       3.406   2.621  18.315  0.00  0.00    +0.000 C 
ATOM      3  O   UNL     1       4.599   2.325  18.414  0.00  0.00    +0.000 OA
ATOM      4  N   UNL     1       2.995   3.732  17.588  0.00  0.00    +0.000 N 
ATOM      5  C   UNL     1       1.666   4.320  17.758  0.00  0.00    +0.000 C 
ATOM      6  C   UNL     1       1.634   5.222  19.003  0.00  0.00    +0.000 C 
ATOM      7  N   UNL     1       2.117   6.599  18.823  0.00  0.00    +0.000 NA
ATOM      8  C   UNL     1       3.266   6.805  17.929  0.00  0.00    +0.000 C 
ATOM      9  C   UNL     1       4.446   5.793  17.851  0.00  0.00    +0.000 C 
ATOM     10  C   UNL     1       5.002   5.376  19.226  0.00  0.00    +0.000 C 
ATOM     11  C   UNL     1       6.487   5.507  19.158  0.00  0.00    +0.000 C 
ATOM     12  O   UNL     1       7.263   5.112  20.012  0.00  0.00    +0.000 OA
ATOM     13  N   UNL     1       6.777   6.312  18.079  0.00  0.00    +0.000 N 
ATOM     14  C   UNL     1       7.908   7.214  18.110  0.00  0.00    +0.000 C 
ATOM     15  C   UNL     1       5.659   6.506  17.188  0.00  0.00    +0.000 C 
ATOM     16  C   UNL     1       4.014   4.590  16.979  0.00  0.00    +0.000 C 
ENDROOT
BRANCH   7  17
ATOM     17  C   UNL     1       2.327   7.277  20.118  0.00  0.00    +0.000 C 
BRANCH  17  18
ATOM     18  C   UNL     1       1.375   8.378  20.403  0.00  0.00    +0.000 A 
ATOM     19  C   UNL     1       0.614   8.727  21.495  0.00  0.00    +0.000 A 
ATOM     20  C   UNL     1      -0.163   9.844  21.094  0.00  0.00    +0.000 A 
ATOM     21  C   UNL     1       0.192  10.109  19.786  0.00  0.00    +0.000 A 
ATOM     22  O   UNL     1       1.125   9.228  19.366  0.00  0.00    +0.000 OA
ENDBRANCH  17  18
ENDBRANCH   7  17
TORSDOF 2
ENDMDL
MODEL 4
REMARK VINA RESULT:      -6.9      1.838      4.209
REMARK  Name = 
REMARK  4 active torsions:
REMARK  status: ('A' for Active; 'I' for Inactive)
REMARK    1  A    between atoms: C_1  and  C_2
REMARK    2  A    between atoms: N_7  and  C_8
REMARK    3  A    between atoms: C_8  and  C_9
REMARK    4  A    between atoms: N_19  and  C_20
REMARK                            x       y       z     vdW  Elec       q    Type
REMARK                         _______ _______ _______ _____ _____    ______ ____
ROOT
ATOM      1  C   UNL     1       6.553   4.890  14.505  0.00  0.00    +0.000 C 
ATOM      2  C   UNL     1       6.157   4.222  15.798  0.00  0.00    +0.000 C 
ATOM      3  O   UNL     1       5.777   3.049  15.796  0.00  0.00    +0.000 OA
ATOM      4  N   UNL     1       6.204   4.964  16.972  0.00  0.00    +0.000 N 
ATOM      5  C   UNL     1       6.278   6.425  16.962  0.00  0.00    +0.000 C 
ATOM      6  C   UNL     1       4.886   7.032  16.727  0.00  0.00    +0.000 C 
ATOM      7  N   UNL     1       4.029   7.179  17.913  0.00  0.00    +0.000 NA
ATOM      8  C   UNL     1       4.087   6.117  18.929  0.00  0.00    +0.000 C 
ATOM      9  C   UNL     1       4.250   4.617  18.548  0.00  0.00    +0.000 C 
ATOM     10  C   UNL     1       3.285   4.145  17.444  0.00  0.00    +0.000 C 
ATOM     11  C   UNL     1       2.661   2.874  17.918  0.00  0.00    +0.000 C 
ATOM     12  O   UNL     1       1.966   2.140  17.236  0.00  0.00    +0.000 OA
ATOM     13  N   UNL     1       2.852   2.808  19.280  0.00  0.00    +0.000 N 
ATOM     14  C   UNL     1       1.858   2.204  20.140  0.00  0.00    +0.000 C 
ATOM     15  C   UNL     1       3.826   3.754  19.772  0.00  0.00    +0.000 C 
ATOM     16  C   UNL     1       5.736   4.345  18.214  0.00  0.00    +0.000 C 
ENDROOT
BRANCH   7  17
ATOM     17  C   UNL     1       2.632   7.481  17.544  0.00  0.00    +0.000 C 
BRANCH  17  18
ATOM     18  C   UNL     1       2.032   8.626  18.271  0.00  0.00    +0.000 A 
ATOM     19  C   UNL     1       1.426   8.769  19.497  0.00  0.00    +0.000 A 
ATOM     20  C   UNL     1       0.982  10.114  19.565  0.00  0.00    +0.000 A 
ATOM     21  C   UNL     1       1.365  10.704  18.376  0.00  0.00    +0.000 A 
ATOM     22  O   UNL     1       2.005   9.809  17.593  0.00  0.00    +0.000 OA
ENDBRANCH  17  18
ENDBRANCH   7  17
TORSDOF 2
ENDMDL
MODEL 5
REMARK VINA RESULT:      -6.9      1.809      4.163
REMARK  Name = 
REMARK  4 active torsions:
REMARK  status: ('A' for Active; 'I' for Inactive)
REMARK    1  A    between atoms: C_1  and  C_2
REMARK    2  A    between atoms: N_7  and  C_8
REMARK    3  A    between atoms: C_8  and  C_9
REMARK    4  A    between atoms: N_19  and  C_20
REMARK                            x       y       z     vdW  Elec       q    Type
REMARK                         _______ _______ _______ _____ _____    ______ ____
ROOT
ATOM      1  C   UNL     1       5.618   4.670  14.886  0.00  0.00    +0.000 C 
ATOM      2  C   UNL     1       5.255   4.153  16.256  0.00  0.00    +0.000 C 
ATOM      3  O   UNL     1       4.793   3.018  16.385  0.00  0.00    +0.000 OA
ATOM      4  N   UNL     1       5.427   4.993  17.350  0.00  0.00    +0.000 N 
ATOM      5  C   UNL     1       5.605   6.437  17.198  0.00  0.00    +0.000 C 
ATOM      6  C   UNL     1       4.247   7.126  16.982  0.00  0.00    +0.000 C 
ATOM      7  N   UNL     1       3.478   7.444  18.194  0.00  0.00    +0.000 NA
ATOM      8  C   UNL     1       3.522   6.476  19.302  0.00  0.00    +0.000 C 
ATOM      9  C   UNL     1       3.553   4.940  19.056  0.00  0.00    +0.000 C 
ATOM     10  C   UNL     1       2.491   4.447  18.055  0.00  0.00    +0.000 C 
ATOM     11  C   UNL     1       1.808   3.275  18.680  0.00  0.00    +0.000 C 
ATOM     12  O   UNL     1       1.022   2.538  18.109  0.00  0.00    +0.000 OA
ATOM     13  N   UNL     1       2.077   3.318  20.030  0.00  0.00    +0.000 N 
ATOM     14  C   UNL     1       1.097   2.872  20.996  0.00  0.00    +0.000 C 
ATOM     15  C   UNL     1       3.144   4.226  20.376  0.00  0.00    +0.000 C 
ATOM     16  C   UNL     1       4.993   4.526  18.669  0.00  0.00    +0.000 C 
ENDROOT
BRANCH   7  17
ATOM     17  C   UNL     1       2.086   7.818  17.874  0.00  0.00    +0.000 C 
BRANCH  17  18
ATOM     18  C   UNL     1       1.641   9.108  18.456  0.00  0.00    +0.000 A 
ATOM     19  C   UNL     1       1.702  10.417  18.041  0.00  0.00    +0.000 A 
ATOM     20  C   UNL     1       1.178  11.195  19.104  0.00  0.00    +0.000 A 
ATOM     21  C   UNL     1       0.817  10.300  20.092  0.00  0.00    +0.000 A 
ATOM     22  O   UNL     1       1.090   9.036  19.703  0.00  0.00    +0.000 OA
ENDBRANCH  17  18
ENDBRANCH   7  17
TORSDOF 2
ENDMDL
MODEL 6
REMARK VINA RESULT:      -6.0      6.904      9.891
REMARK  Name = 
REMARK  4 active torsions:
REMARK  status: ('A' for Active; 'I' for Inactive)
REMARK    1  A    between atoms: C_1  and  C_2
REMARK    2  A    between atoms: N_7  and  C_8
REMARK    3  A    between atoms: C_8  and  C_9
REMARK    4  A    between atoms: N_19  and  C_20
REMARK                            x       y       z     vdW  Elec       q    Type
REMARK                         _______ _______ _______ _____ _____    ______ ____
ROOT
ATOM      1  C   UNL     1       0.727   8.717  21.830  0.00  0.00    +0.000 C 
ATOM      2  C   UNL     1       0.367  10.126  22.230  0.00  0.00    +0.000 C 
ATOM      3  O   UNL     1      -0.065  10.356  23.361  0.00  0.00    +0.000 OA
ATOM      4  N   UNL     1       0.507  11.141  21.289  0.00  0.00    +0.000 N 
ATOM      5  C   UNL     1       0.647  10.858  19.861  0.00  0.00    +0.000 C 
ATOM      6  C   UNL     1      -0.728  10.573  19.233  0.00  0.00    +0.000 C 
ATOM      7  N   UNL     1      -1.515  11.747  18.828  0.00  0.00    +0.000 NA
ATOM      8  C   UNL     1      -1.454  12.938  19.689  0.00  0.00    +0.000 C 
ATOM      9  C   UNL     1      -1.379  12.833  21.239  0.00  0.00    +0.000 C 
ATOM     10  C   UNL     1      -2.419  11.876  21.852  0.00  0.00    +0.000 C 
ATOM     11  C   UNL     1      -3.074  12.601  22.980  0.00  0.00    +0.000 C 
ATOM     12  O   UNL     1      -3.835  12.095  23.788  0.00  0.00    +0.000 OA
ATOM     13  N   UNL     1      -2.818  13.943  22.807  0.00  0.00    +0.000 N 
ATOM     14  C   UNL     1      -3.793  14.940  23.191  0.00  0.00    +0.000 C 
ATOM     15  C   UNL     1      -1.778  14.211  21.841  0.00  0.00    +0.000 C 
ATOM     16  C   UNL     1       0.075  12.493  21.647  0.00  0.00    +0.000 C 
ENDROOT
BRANCH   7  17
ATOM     17  C   UNL     1      -2.915  11.386  18.524  0.00  0.00    +0.000 C 
BRANCH  17  18
ATOM     18  C   UNL     1      -3.167  11.020  17.108  0.00  0.00    +0.000 A 
ATOM     19  C   UNL     1      -4.183  11.282  16.219  0.00  0.00    +0.000 A 
ATOM     20  C   UNL     1      -3.870  10.562  15.038  0.00  0.00    +0.000 A 
ATOM     21  C   UNL     1      -2.671   9.923  15.285  0.00  0.00    +0.000 A 
ATOM     22  O   UNL     1      -2.240  10.201  16.534  0.00  0.00    +0.000 OA
ENDBRANCH  17  18
ENDBRANCH   7  17
TORSDOF 2
ENDMDL
MODEL 7
REMARK VINA RESULT:      -5.8      2.938      6.336
REMARK  Name = 
REMARK  4 active torsions:
REMARK  status: ('A' for Active; 'I' for Inactive)
REMARK    1  A    between atoms: C_1  and  C_2
REMARK    2  A    between atoms: N_7  and  C_8
REMARK    3  A    between atoms: C_8  and  C_9
REMARK    4  A    between atoms: N_19  and  C_20
REMARK                            x       y       z     vdW  Elec       q    Type
REMARK                         _______ _______ _______ _____ _____    ______ ____
ROOT
ATOM      1  C   UNL     1       8.351   5.768  19.200  0.00  0.00    +0.000 C 
ATOM      2  C   UNL     1       6.864   5.579  19.367  0.00  0.00    +0.000 C 
ATOM      3  O   UNL     1       6.428   4.897  20.296  0.00  0.00    +0.000 OA
ATOM      4  N   UNL     1       6.011   6.165  18.438  0.00  0.00    +0.000 N 
ATOM      5  C   UNL     1       6.491   6.647  17.143  0.00  0.00    +0.000 C 
ATOM      6  C   UNL     1       6.635   5.478  16.155  0.00  0.00    +0.000 C 
ATOM      7  N   UNL     1       5.413   5.069  15.445  0.00  0.00    +0.000 NA
ATOM      8  C   UNL     1       4.147   5.106  16.192  0.00  0.00    +0.000 C 
ATOM      9  C   UNL     1       4.065   4.720  17.697  0.00  0.00    +0.000 C 
ATOM     10  C   UNL     1       4.763   3.390  18.040  0.00  0.00    +0.000 C 
ATOM     11  C   UNL     1       3.807   2.590  18.862  0.00  0.00    +0.000 C 
ATOM     12  O   UNL     1       4.082   1.552  19.440  0.00  0.00    +0.000 OA
ATOM     13  N   UNL     1       2.555   3.130  18.673  0.00  0.00    +0.000 N 
ATOM     14  C   UNL     1       1.377   2.290  18.671  0.00  0.00    +0.000 C 
ATOM     15  C   UNL     1       2.577   4.431  18.046  0.00  0.00    +0.000 C 
ATOM     16  C   UNL     1       4.573   5.910  18.546  0.00  0.00    +0.000 C 
ENDROOT
BRANCH   7  17
ATOM     17  C   UNL     1       5.587   3.771  14.763  0.00  0.00    +0.000 C 
BRANCH  17  18
ATOM     18  C   UNL     1       6.181   3.858  13.406  0.00  0.00    +0.000 A 
ATOM     19  C   UNL     1       6.037   3.127  12.250  0.00  0.00    +0.000 A 
ATOM     20  C   UNL     1       6.961   3.670  11.321  0.00  0.00    +0.000 A 
ATOM     21  C   UNL     1       7.595   4.708  11.974  0.00  0.00    +0.000 A 
ATOM     22  O   UNL     1       7.123   4.829  13.233  0.00  0.00    +0.000 OA
ENDBRANCH  17  18
ENDBRANCH   7  17
TORSDOF 2
ENDMDL
MODEL 8
REMARK VINA RESULT:      -5.6      7.372      9.995
REMARK  Name = 
REMARK  4 active torsions:
REMARK  status: ('A' for Active; 'I' for Inactive)
REMARK    1  A    between atoms: C_1  and  C_2
REMARK    2  A    between atoms: N_7  and  C_8
REMARK    3  A    between atoms: C_8  and  C_9
REMARK    4  A    between atoms: N_19  and  C_20
REMARK                            x       y       z     vdW  Elec       q    Type
REMARK                         _______ _______ _______ _____ _____    ______ ____
ROOT
ATOM      1  C   UNL     1      -0.208   9.089  22.431  0.00  0.00    +0.000 C 
ATOM      2  C   UNL     1      -0.196  10.596  22.352  0.00  0.00    +0.000 C 
ATOM      3  O   UNL     1      -0.601  11.267  23.303  0.00  0.00    +0.000 OA
ATOM      4  N   UNL     1       0.250  11.197  21.181  0.00  0.00    +0.000 N 
ATOM      5  C   UNL     1       0.373  10.454  19.927  0.00  0.00    +0.000 C 
ATOM      6  C   UNL     1      -0.998  10.323  19.244  0.00  0.00    +0.000 C 
ATOM      7  N   UNL     1      -1.426  11.462  18.417  0.00  0.00    +0.000 NA
ATOM      8  C   UNL     1      -1.088  12.812  18.891  0.00  0.00    +0.000 C 
ATOM      9  C   UNL     1      -1.112  13.187  20.401  0.00  0.00    +0.000 C 
ATOM     10  C   UNL     1      -2.396  12.751  21.133  0.00  0.00    +0.000 C 
ATOM     11  C   UNL     1      -2.883  13.930  21.907  0.00  0.00    +0.000 C 
ATOM     12  O   UNL     1      -3.786  13.903  22.727  0.00  0.00    +0.000 OA
ATOM     13  N   UNL     1      -2.271  15.046  21.382  0.00  0.00    +0.000 N 
ATOM     14  C   UNL     1      -2.961  16.316  21.332  0.00  0.00    +0.000 C 
ATOM     15  C   UNL     1      -1.156  14.738  20.518  0.00  0.00    +0.000 C 
ATOM     16  C   UNL     1       0.179  12.656  21.068  0.00  0.00    +0.000 C 
ENDROOT
BRANCH   7  17
ATOM     17  C   UNL     1      -2.856  11.370  18.060  0.00  0.00    +0.000 C 
BRANCH  17  18
ATOM     18  C   UNL     1      -3.120  10.936  16.666  0.00  0.00    +0.000 A 
ATOM     19  C   UNL     1      -4.144  11.153  15.774  0.00  0.00    +0.000 A 
ATOM     20  C   UNL     1      -3.840  10.377  14.626  0.00  0.00    +0.000 A 
ATOM     21  C   UNL     1      -2.638   9.752  14.894  0.00  0.00    +0.000 A 
ATOM     22  O   UNL     1      -2.196  10.091  16.123  0.00  0.00    +0.000 OA
ENDBRANCH  17  18
ENDBRANCH   7  17
TORSDOF 2
ENDMDL
MODEL 9
REMARK VINA RESULT:      -5.6      2.227      4.812
REMARK  Name = 
REMARK  4 active torsions:
REMARK  status: ('A' for Active; 'I' for Inactive)
REMARK    1  A    between atoms: C_1  and  C_2
REMARK    2  A    between atoms: N_7  and  C_8
REMARK    3  A    between atoms: C_8  and  C_9
REMARK    4  A    between atoms: N_19  and  C_20
REMARK                            x       y       z     vdW  Elec       q    Type
REMARK                         _______ _______ _______ _____ _____    ______ ____
ROOT
ATOM      1  C   UNL     1       2.275   7.814  20.174  0.00  0.00    +0.000 C 
ATOM      2  C   UNL     1       2.109   6.387  19.712  0.00  0.00    +0.000 C 
ATOM      3  O   UNL     1       1.799   5.509  20.519  0.00  0.00    +0.000 OA
ATOM      4  N   UNL     1       2.341   6.091  18.374  0.00  0.00    +0.000 N 
ATOM      5  C   UNL     1       3.062   7.008  17.492  0.00  0.00    +0.000 C 
ATOM      6  C   UNL     1       4.579   6.874  17.702  0.00  0.00    +0.000 C 
ATOM      7  N   UNL     1       5.247   5.790  16.965  0.00  0.00    +0.000 NA
ATOM      8  C   UNL     1       4.520   4.520  16.816  0.00  0.00    +0.000 C 
ATOM      9  C   UNL     1       3.621   3.945  17.949  0.00  0.00    +0.000 C 
ATOM     10  C   UNL     1       4.296   3.930  19.334  0.00  0.00    +0.000 C 
ATOM     11  C   UNL     1       4.086   2.569  19.910  0.00  0.00    +0.000 C 
ATOM     12  O   UNL     1       4.348   2.247  21.057  0.00  0.00    +0.000 OA
ATOM     13  N   UNL     1       3.744   1.733  18.871  0.00  0.00    +0.000 N 
ATOM     14  C   UNL     1       4.159   0.347  18.866  0.00  0.00    +0.000 C 
ATOM     15  C   UNL     1       3.382   2.435  17.663  0.00  0.00    +0.000 C 
ATOM     16  C   UNL     1       2.267   4.694  17.941  0.00  0.00    +0.000 C 
ENDROOT
BRANCH   7  17
ATOM     17  C   UNL     1       6.619   5.559  17.460  0.00  0.00    +0.000 C 
BRANCH  17  18
ATOM     18  C   UNL     1       7.375   6.791  17.791  0.00  0.00    +0.000 A 
ATOM     19  C   UNL     1       8.186   7.165  18.837  0.00  0.00    +0.000 A 
ATOM     20  C   UNL     1       8.532   8.520  18.605  0.00  0.00    +0.000 A 
ATOM     21  C   UNL     1       7.918   8.875  17.420  0.00  0.00    +0.000 A 
ATOM     22  O   UNL     1       7.221   7.832  16.921  0.00  0.00    +0.000 OA
ENDBRANCH  17  18
ENDBRANCH   7  17
TORSDOF 2
ENDMDL
