MODEL 1
REMARK VINA RESULT:      -7.6      0.000      0.000
REMARK  Name = 
REMARK  9 active torsions:
REMARK  status: ('A' for Active; 'I' for Inactive)
REMARK    1  A    between atoms: O_1  and  C_2
REMARK    2  A    between atoms: C_7  and  O_8
REMARK    3  A    between atoms: O_8  and  C_9
REMARK    4  A    between atoms: C_9  and  C_10
REMARK    5  A    between atoms: C_10  and  O_11
REMARK    6  A    between atoms: C_10  and  C_12
REMARK    7  A    between atoms: C_12  and  N_13
REMARK    8  A    between atoms: N_13  and  C_14
REMARK    9  A    between atoms: C_14  and  C_15
REMARK                            x       y       z     vdW  Elec       q    Type
REMARK                         _______ _______ _______ _____ _____    ______ ____
ROOT
ATOM      1  C   UNL     1       2.606   3.203  19.944  0.00  0.00    +0.000 C 
ENDROOT
BRANCH   1   2
ATOM      2  O   UNL     1       3.389   4.356  19.631  0.00  0.00    +0.000 OA
BRANCH   2   8
ATOM      3  C   UNL     1       1.095  10.151  18.964  0.00  0.00    +0.000 A 
ATOM      4  C   UNL     1       1.844   9.886  17.833  0.00  0.00    +0.000 A 
ATOM      5  C   UNL     1       2.496   8.659  17.760  0.00  0.00    +0.000 A 
ATOM      6  C   UNL     1       2.352   7.737  18.802  0.00  0.00    +0.000 A 
ATOM      7  C   UNL     1       2.964   6.473  18.766  0.00  0.00    +0.000 A 
ATOM      8  C   UNL     1       2.757   5.556  19.794  0.00  0.00    +0.000 A 
ATOM      9  C   UNL     1       1.948   5.917  20.872  0.00  0.00    +0.000 A 
ATOM     10  C   UNL     1       1.371   7.188  20.922  0.00  0.00    +0.000 A 
ATOM     11  C   UNL     1       1.550   8.107  19.903  0.00  0.00    +0.000 A 
ATOM     12  N   UNL     1       0.944   9.300  19.989  0.00  0.00    +0.000 NA
BRANCH   3  13
ATOM     13  O   UNL     1       0.425  11.322  19.109  0.00  0.00    +0.000 OA
ATOM     14  H   UNL     1       0.193  11.648  18.226  0.00  0.00    +0.000 HD
ENDBRANCH   3  13
ENDBRANCH   2   8
ENDBRANCH   1   2
BRANCH   1  15
ATOM     15  C   UNL     1       2.646   2.206  18.776  0.00  0.00    +0.000 C 
BRANCH  15  16
ATOM     16  O   UNL     1       1.388   1.540  18.607  0.00  0.00    +0.000 OA
ATOM     17  H   UNL     1       1.305   0.870  19.307  0.00  0.00    +0.000 HD
ENDBRANCH  15  16
BRANCH  15  18
ATOM     18  C   UNL     1       3.000   2.938  17.467  0.00  0.00    +0.000 C 
BRANCH  18  19
ATOM     19  N   UNL     1       4.446   3.097  17.344  0.00  0.00    +0.000 NA
ATOM     20  H   UNL     1       4.868   2.215  17.049  0.00  0.00    +0.000 HD
BRANCH  19  21
ATOM     21  C   UNL     1       4.820   4.140  16.398  0.00  0.00    +0.000 C 
BRANCH  21  22
ATOM     22  C   UNL     1       5.814   5.085  17.038  0.00  0.00    +0.000 A 
ATOM     23  C   UNL     1       5.880   6.431  16.649  0.00  0.00    +0.000 A 
ATOM     24  C   UNL     1       6.818   7.287  17.232  0.00  0.00    +0.000 A 
ATOM     25  C   UNL     1       7.688   6.799  18.199  0.00  0.00    +0.000 A 
ATOM     26  F   UNL     1       8.595   7.621  18.746  0.00  0.00    +0.000 F 
ATOM     27  C   UNL     1       7.634   5.474  18.607  0.00  0.00    +0.000 A 
ATOM     28  C   UNL     1       6.695   4.617  18.029  0.00  0.00    +0.000 A 
ENDBRANCH  21  22
ENDBRANCH  19  21
ENDBRANCH  18  19
ENDBRANCH  15  18
ENDBRANCH   1  15
TORSDOF 9
ENDMDL
MODEL 2
REMARK VINA RESULT:      -7.6      2.645      4.388
REMARK  Name = 
REMARK  9 active torsions:
REMARK  status: ('A' for Active; 'I' for Inactive)
REMARK    1  A    between atoms: O_1  and  C_2
REMARK    2  A    between atoms: C_7  and  O_8
REMARK    3  A    between atoms: O_8  and  C_9
REMARK    4  A    between atoms: C_9  and  C_10
REMARK    5  A    between atoms: C_10  and  O_11
REMARK    6  A    between atoms: C_10  and  C_12
REMARK    7  A    between atoms: C_12  and  N_13
REMARK    8  A    between atoms: N_13  and  C_14
REMARK    9  A    between atoms: C_14  and  C_15
REMARK                            x       y       z     vdW  Elec       q    Type
REMARK                         _______ _______ _______ _____ _____    ______ ____
ROOT
ATOM      1  C   UNL     1       5.881   6.210  17.156  0.00  0.00    +0.000 C 
ENDROOT
BRANCH   1   2
ATOM      2  O   UNL     1       4.495   6.244  16.810  0.00  0.00    +0.000 OA
BRANCH   2   8
ATOM      3  C   UNL     1       0.399   9.539  20.224  0.00  0.00    +0.000 A 
ATOM      4  C   UNL     1       0.566  10.222  19.034  0.00  0.00    +0.000 A 
ATOM      5  C   UNL     1       1.468   9.703  18.111  0.00  0.00    +0.000 A 
ATOM      6  C   UNL     1       2.145   8.513  18.399  0.00  0.00    +0.000 A 
ATOM      7  C   UNL     1       3.044   7.931  17.490  0.00  0.00    +0.000 A 
ATOM      8  C   UNL     1       3.660   6.716  17.784  0.00  0.00    +0.000 A 
ATOM      9  C   UNL     1       3.387   6.093  19.002  0.00  0.00    +0.000 A 
ATOM     10  C   UNL     1       2.520   6.694  19.918  0.00  0.00    +0.000 A 
ATOM     11  C   UNL     1       1.885   7.892  19.639  0.00  0.00    +0.000 A 
ATOM     12  N   UNL     1       1.037   8.404  20.543  0.00  0.00    +0.000 NA
BRANCH   3  13
ATOM     13  O   UNL     1      -0.466   9.977  21.174  0.00  0.00    +0.000 OA
ATOM     14  H   UNL     1      -1.364   9.928  20.810  0.00  0.00    +0.000 HD
ENDBRANCH   3  13
ENDBRANCH   2   8
ENDBRANCH   1   2
BRANCH   1  15
ATOM     15  C   UNL     1       6.406   4.767  17.085  0.00  0.00    +0.000 C 
BRANCH  15  16
ATOM     16  O   UNL     1       6.698   4.246  18.387  0.00  0.00    +0.000 OA
ATOM     17  H   UNL     1       6.304   3.359  18.453  0.00  0.00    +0.000 HD
ENDBRANCH  15  16
BRANCH  15  18
ATOM     18  C   UNL     1       5.361   3.857  16.410  0.00  0.00    +0.000 C 
BRANCH  18  19
ATOM     19  N   UNL     1       4.760   2.954  17.388  0.00  0.00    +0.000 NA
ATOM     20  H   UNL     1       4.963   3.281  18.333  0.00  0.00    +0.000 HD
BRANCH  19  21
ATOM     21  C   UNL     1       3.316   2.834  17.230  0.00  0.00    +0.000 C 
BRANCH  21  22
ATOM     22  C   UNL     1       2.651   2.786  18.588  0.00  0.00    +0.000 A 
ATOM     23  C   UNL     1       1.277   3.035  18.725  0.00  0.00    +0.000 A 
ATOM     24  C   UNL     1       0.679   3.010  19.988  0.00  0.00    +0.000 A 
ATOM     25  C   UNL     1       1.452   2.739  21.110  0.00  0.00    +0.000 A 
ATOM     26  F   UNL     1       0.877   2.729  22.321  0.00  0.00    +0.000 F 
ATOM     27  C   UNL     1       2.811   2.479  20.998  0.00  0.00    +0.000 A 
ATOM     28  C   UNL     1       3.410   2.500  19.737  0.00  0.00    +0.000 A 
ENDBRANCH  21  22
ENDBRANCH  19  21
ENDBRANCH  18  19
ENDBRANCH  15  18
ENDBRANCH   1  15
TORSDOF 9
ENDMDL
MODEL 3
REMARK VINA RESULT:      -7.4      2.854      5.512
REMARK  Name = 
REMARK  9 active torsions:
REMARK  status: ('A' for Active; 'I' for Inactive)
REMARK    1  A    between atoms: O_1  and  C_2
REMARK    2  A    between atoms: C_7  and  O_8
REMARK    3  A    between atoms: O_8  and  C_9
REMARK    4  A    between atoms: C_9  and  C_10
REMARK    5  A    between atoms: C_10  and  O_11
REMARK    6  A    between atoms: C_10  and  C_12
REMARK    7  A    between atoms: C_12  and  N_13
REMARK    8  A    between atoms: N_13  and  C_14
REMARK    9  A    between atoms: C_14  and  C_15
REMARK                            x       y       z     vdW  Elec       q    Type
REMARK                         _______ _______ _______ _____ _____    ______ ____
ROOT
ATOM      1  C   UNL     1       3.072   2.413  19.717  0.00  0.00    +0.000 C 
ENDROOT
BRANCH   1   2
ATOM      2  O   UNL     1       3.552   2.385  18.372  0.00  0.00    +0.000 OA
BRANCH   2   8
ATOM      3  C   UNL     1       7.428   7.254  17.623  0.00  0.00    +0.000 A 
ATOM      4  C   UNL     1       7.889   6.542  18.715  0.00  0.00    +0.000 A 
ATOM      5  C   UNL     1       7.165   5.422  19.110  0.00  0.00    +0.000 A 
ATOM      6  C   UNL     1       6.029   5.043  18.387  0.00  0.00    +0.000 A 
ATOM      7  C   UNL     1       5.279   3.904  18.725  0.00  0.00    +0.000 A 
ATOM      8  C   UNL     1       4.185   3.521  17.952  0.00  0.00    +0.000 A 
ATOM      9  C   UNL     1       3.832   4.295  16.846  0.00  0.00    +0.000 A 
ATOM     10  C   UNL     1       4.559   5.446  16.534  0.00  0.00    +0.000 A 
ATOM     11  C   UNL     1       5.658   5.835  17.279  0.00  0.00    +0.000 A 
ATOM     12  N   UNL     1       6.338   6.931  16.913  0.00  0.00    +0.000 NA
BRANCH   3  13
ATOM     13  O   UNL     1       8.080   8.355  17.172  0.00  0.00    +0.000 OA
ATOM     14  H   UNL     1       7.690   9.134  17.600  0.00  0.00    +0.000 HD
ENDBRANCH   3  13
ENDBRANCH   2   8
ENDBRANCH   1   2
BRANCH   1  15
ATOM     15  C   UNL     1       2.009   3.513  19.874  0.00  0.00    +0.000 C 
BRANCH  15  16
ATOM     16  O   UNL     1       0.682   2.975  19.823  0.00  0.00    +0.000 OA
ATOM     17  H   UNL     1       0.666   2.275  19.148  0.00  0.00    +0.000 HD
ENDBRANCH  15  16
BRANCH  15  18
ATOM     18  C   UNL     1       2.198   4.242  21.218  0.00  0.00    +0.000 C 
BRANCH  18  19
ATOM     19  N   UNL     1       2.108   5.688  21.032  0.00  0.00    +0.000 NA
ATOM     20  H   UNL     1       2.588   6.167  21.796  0.00  0.00    +0.000 HD
BRANCH  19  21
ATOM     21  C   UNL     1       2.678   6.129  19.766  0.00  0.00    +0.000 C 
BRANCH  21  22
ATOM     22  C   UNL     1       2.141   7.498  19.408  0.00  0.00    +0.000 A 
ATOM     23  C   UNL     1       2.381   8.056  18.144  0.00  0.00    +0.000 A 
ATOM     24  C   UNL     1       1.899   9.331  17.834  0.00  0.00    +0.000 A 
ATOM     25  C   UNL     1       1.181  10.046  18.785  0.00  0.00    +0.000 A 
ATOM     26  F   UNL     1       0.732  11.273  18.487  0.00  0.00    +0.000 F 
ATOM     27  C   UNL     1       0.923   9.509  20.038  0.00  0.00    +0.000 A 
ATOM     28  C   UNL     1       1.400   8.235  20.349  0.00  0.00    +0.000 A 
ENDBRANCH  21  22
ENDBRANCH  19  21
ENDBRANCH  18  19
ENDBRANCH  15  18
ENDBRANCH   1  15
TORSDOF 9
ENDMDL
MODEL 4
REMARK VINA RESULT:      -7.3      2.851      5.406
REMARK  Name = 
REMARK  9 active torsions:
REMARK  status: ('A' for Active; 'I' for Inactive)
REMARK    1  A    between atoms: O_1  and  C_2
REMARK    2  A    between atoms: C_7  and  O_8
REMARK    3  A    between atoms: O_8  and  C_9
REMARK    4  A    between atoms: C_9  and  C_10
REMARK    5  A    between atoms: C_10  and  O_11
REMARK    6  A    between atoms: C_10  and  C_12
REMARK    7  A    between atoms: C_12  and  N_13
REMARK    8  A    between atoms: N_13  and  C_14
REMARK    9  A    between atoms: C_14  and  C_15
REMARK                            x       y       z     vdW  Elec       q    Type
REMARK                         _______ _______ _______ _____ _____    ______ ____
ROOT
ATOM      1  C   UNL     1       2.446   2.183  18.052  0.00  0.00    +0.000 C 
ENDROOT
BRANCH   1   2
ATOM      2  O   UNL     1       3.791   2.372  18.494  0.00  0.00    +0.000 OA
BRANCH   2   8
ATOM      3  C   UNL     1       7.533   7.317  17.573  0.00  0.00    +0.000 A 
ATOM      4  C   UNL     1       7.931   6.731  18.760  0.00  0.00    +0.000 A 
ATOM      5  C   UNL     1       7.220   5.622  19.207  0.00  0.00    +0.000 A 
ATOM      6  C   UNL     1       6.160   5.126  18.439  0.00  0.00    +0.000 A 
ATOM      7  C   UNL     1       5.428   3.992  18.828  0.00  0.00    +0.000 A 
ATOM      8  C   UNL     1       4.414   3.491  18.015  0.00  0.00    +0.000 A 
ATOM      9  C   UNL     1       4.122   4.141  16.815  0.00  0.00    +0.000 A 
ATOM     10  C   UNL     1       4.829   5.289  16.450  0.00  0.00    +0.000 A 
ATOM     11  C   UNL     1       5.850   5.794  17.235  0.00  0.00    +0.000 A 
ATOM     12  N   UNL     1       6.516   6.880  16.817  0.00  0.00    +0.000 NA
BRANCH   3  13
ATOM     13  O   UNL     1       8.179   8.398  17.068  0.00  0.00    +0.000 OA
ATOM     14  H   UNL     1       7.591   8.828  16.427  0.00  0.00    +0.000 HD
ENDBRANCH   3  13
ENDBRANCH   2   8
ENDBRANCH   1   2
BRANCH   1  15
ATOM     15  C   UNL     1       1.466   2.551  19.178  0.00  0.00    +0.000 C 
BRANCH  15  16
ATOM     16  O   UNL     1       1.973   2.173  20.464  0.00  0.00    +0.000 OA
ATOM     17  H   UNL     1       1.236   1.810  20.984  0.00  0.00    +0.000 HD
ENDBRANCH  15  16
BRANCH  15  18
ATOM     18  C   UNL     1       1.201   4.069  19.174  0.00  0.00    +0.000 C 
BRANCH  18  19
ATOM     19  N   UNL     1       1.528   4.648  20.474  0.00  0.00    +0.000 NA
ATOM     20  H   UNL     1       1.728   3.906  21.146  0.00  0.00    +0.000 HD
BRANCH  19  21
ATOM     21  C   UNL     1       2.670   5.552  20.416  0.00  0.00    +0.000 C 
BRANCH  21  22
ATOM     22  C   UNL     1       2.249   6.876  19.814  0.00  0.00    +0.000 A 
ATOM     23  C   UNL     1       1.546   7.820  20.575  0.00  0.00    +0.000 A 
ATOM     24  C   UNL     1       1.143   9.029  20.000  0.00  0.00    +0.000 A 
ATOM     25  C   UNL     1       1.442   9.292  18.669  0.00  0.00    +0.000 A 
ATOM     26  F   UNL     1       1.042  10.447  18.118  0.00  0.00    +0.000 F 
ATOM     27  C   UNL     1       2.147   8.376  17.900  0.00  0.00    +0.000 A 
ATOM     28  C   UNL     1       2.553   7.170  18.472  0.00  0.00    +0.000 A 
ENDBRANCH  21  22
ENDBRANCH  19  21
ENDBRANCH  18  19
ENDBRANCH  15  18
ENDBRANCH   1  15
TORSDOF 9
ENDMDL
MODEL 5
REMARK VINA RESULT:      -7.3      2.685      4.655
REMARK  Name = 
REMARK  9 active torsions:
REMARK  status: ('A' for Active; 'I' for Inactive)
REMARK    1  A    between atoms: O_1  and  C_2
REMARK    2  A    between atoms: C_7  and  O_8
REMARK    3  A    between atoms: O_8  and  C_9
REMARK    4  A    between atoms: C_9  and  C_10
REMARK    5  A    between atoms: C_10  and  O_11
REMARK    6  A    between atoms: C_10  and  C_12
REMARK    7  A    between atoms: C_12  and  N_13
REMARK    8  A    between atoms: N_13  and  C_14
REMARK    9  A    between atoms: C_14  and  C_15
REMARK                            x       y       z     vdW  Elec       q    Type
REMARK                         _______ _______ _______ _____ _____    ______ ____
ROOT
ATOM      1  C   UNL     1       4.774   6.462  17.776  0.00  0.00    +0.000 C 
ENDROOT
BRANCH   1   2
ATOM      2  O   UNL     1       3.549   6.195  18.461  0.00  0.00    +0.000 OA
BRANCH   2   8
ATOM      3  C   UNL     1      -0.251  10.560  20.869  0.00  0.00    +0.000 A 
ATOM      4  C   UNL     1      -0.041   9.622  21.863  0.00  0.00    +0.000 A 
ATOM      5  C   UNL     1       0.750   8.519  21.556  0.00  0.00    +0.000 A 
ATOM      6  C   UNL     1       1.320   8.411  20.284  0.00  0.00    +0.000 A 
ATOM      7  C   UNL     1       2.151   7.333  19.931  0.00  0.00    +0.000 A 
ATOM      8  C   UNL     1       2.748   7.281  18.674  0.00  0.00    +0.000 A 
ATOM      9  C   UNL     1       2.496   8.305  17.760  0.00  0.00    +0.000 A 
ATOM     10  C   UNL     1       1.641   9.356  18.102  0.00  0.00    +0.000 A 
ATOM     11  C   UNL     1       1.051   9.435  19.351  0.00  0.00    +0.000 A 
ATOM     12  N   UNL     1       0.266  10.484  19.634  0.00  0.00    +0.000 NA
BRANCH   3  13
ATOM     13  O   UNL     1      -1.006  11.665  21.090  0.00  0.00    +0.000 OA
ATOM     14  H   UNL     1      -1.548  11.508  21.879  0.00  0.00    +0.000 HD
ENDBRANCH   3  13
ENDBRANCH   2   8
ENDBRANCH   1   2
BRANCH   1  15
ATOM     15  C   UNL     1       4.807   5.702  16.440  0.00  0.00    +0.000 C 
BRANCH  15  16
ATOM     16  O   UNL     1       5.373   6.501  15.393  0.00  0.00    +0.000 OA
ATOM     17  H   UNL     1       6.322   6.606  15.574  0.00  0.00    +0.000 HD
ENDBRANCH  15  16
BRANCH  15  18
ATOM     18  C   UNL     1       5.638   4.413  16.586  0.00  0.00    +0.000 C 
BRANCH  18  19
ATOM     19  N   UNL     1       5.175   3.632  17.730  0.00  0.00    +0.000 NA
ATOM     20  H   UNL     1       5.070   4.238  18.545  0.00  0.00    +0.000 HD
BRANCH  19  21
ATOM     21  C   UNL     1       3.909   2.957  17.475  0.00  0.00    +0.000 C 
BRANCH  21  22
ATOM     22  C   UNL     1       3.088   2.905  18.746  0.00  0.00    +0.000 A 
ATOM     23  C   UNL     1       3.697   2.661  19.985  0.00  0.00    +0.000 A 
ATOM     24  C   UNL     1       2.924   2.593  21.148  0.00  0.00    +0.000 A 
ATOM     25  C   UNL     1       1.548   2.767  21.071  0.00  0.00    +0.000 A 
ATOM     26  F   UNL     1       0.810   2.688  22.187  0.00  0.00    +0.000 F 
ATOM     27  C   UNL     1       0.926   3.021  19.857  0.00  0.00    +0.000 A 
ATOM     28  C   UNL     1       1.695   3.093  18.695  0.00  0.00    +0.000 A 
ENDBRANCH  21  22
ENDBRANCH  19  21
ENDBRANCH  18  19
ENDBRANCH  15  18
ENDBRANCH   1  15
TORSDOF 9
ENDMDL
MODEL 6
REMARK VINA RESULT:      -7.2      2.781      5.391
REMARK  Name = 
REMARK  9 active torsions:
REMARK  status: ('A' for Active; 'I' for Inactive)
REMARK    1  A    between atoms: O_1  and  C_2
REMARK    2  A    between atoms: C_7  and  O_8
REMARK    3  A    between atoms: O_8  and  C_9
REMARK    4  A    between atoms: C_9  and  C_10
REMARK    5  A    between atoms: C_10  and  O_11
REMARK    6  A    between atoms: C_10  and  C_12
REMARK    7  A    between atoms: C_12  and  N_13
REMARK    8  A    between atoms: N_13  and  C_14
REMARK    9  A    between atoms: C_14  and  C_15
REMARK                            x       y       z     vdW  Elec       q    Type
REMARK                         _______ _______ _______ _____ _____    ______ ____
ROOT
ATOM      1  C   UNL     1       2.335   2.494  19.153  0.00  0.00    +0.000 C 
ENDROOT
BRANCH   1   2
ATOM      2  O   UNL     1       3.694   2.276  18.769  0.00  0.00    +0.000 OA
BRANCH   2   8
ATOM      3  C   UNL     1       7.440   7.139  17.498  0.00  0.00    +0.000 A 
ATOM      4  C   UNL     1       7.814   6.662  18.740  0.00  0.00    +0.000 A 
ATOM      5  C   UNL     1       7.096   5.592  19.267  0.00  0.00    +0.000 A 
ATOM      6  C   UNL     1       6.055   5.026  18.523  0.00  0.00    +0.000 A 
ATOM      7  C   UNL     1       5.318   3.927  18.995  0.00  0.00    +0.000 A 
ATOM      8  C   UNL     1       4.323   3.352  18.207  0.00  0.00    +0.000 A 
ATOM      9  C   UNL     1       4.055   3.893  16.949  0.00  0.00    +0.000 A 
ATOM     10  C   UNL     1       4.766   5.008  16.500  0.00  0.00    +0.000 A 
ATOM     11  C   UNL     1       5.769   5.585  17.259  0.00  0.00    +0.000 A 
ATOM     12  N   UNL     1       6.440   6.633  16.761  0.00  0.00    +0.000 NA
BRANCH   3  13
ATOM     13  O   UNL     1       8.093   8.175  16.914  0.00  0.00    +0.000 OA
ATOM     14  H   UNL     1       9.028   7.932  16.828  0.00  0.00    +0.000 HD
ENDBRANCH   3  13
ENDBRANCH   2   8
ENDBRANCH   1   2
BRANCH   1  15
ATOM     15  C   UNL     1       2.172   2.265  20.664  0.00  0.00    +0.000 C 
BRANCH  15  16
ATOM     16  O   UNL     1       3.434   2.298  21.343  0.00  0.00    +0.000 OA
ATOM     17  H   UNL     1       4.135   2.371  20.673  0.00  0.00    +0.000 HD
ENDBRANCH  15  16
BRANCH  15  18
ATOM     18  C   UNL     1       1.256   3.348  21.267  0.00  0.00    +0.000 C 
BRANCH  18  19
ATOM     19  N   UNL     1       1.246   4.538  20.421  0.00  0.00    +0.000 NA
ATOM     20  H   UNL     1       0.314   4.955  20.418  0.00  0.00    +0.000 HD
BRANCH  19  21
ATOM     21  C   UNL     1       2.211   5.542  20.850  0.00  0.00    +0.000 C 
BRANCH  21  22
ATOM     22  C   UNL     1       2.093   6.775  19.980  0.00  0.00    +0.000 A 
ATOM     23  C   UNL     1       2.655   6.804  18.695  0.00  0.00    +0.000 A 
ATOM     24  C   UNL     1       2.559   7.957  17.911  0.00  0.00    +0.000 A 
ATOM     25  C   UNL     1       1.906   9.076  18.410  0.00  0.00    +0.000 A 
ATOM     26  F   UNL     1       1.828  10.184  17.659  0.00  0.00    +0.000 F 
ATOM     27  C   UNL     1       1.333   9.067  19.674  0.00  0.00    +0.000 A 
ATOM     28  C   UNL     1       1.424   7.916  20.458  0.00  0.00    +0.000 A 
ENDBRANCH  21  22
ENDBRANCH  19  21
ENDBRANCH  18  19
ENDBRANCH  15  18
ENDBRANCH   1  15
TORSDOF 9
ENDMDL
MODEL 7
REMARK VINA RESULT:      -7.2      2.962      5.865
REMARK  Name = 
REMARK  9 active torsions:
REMARK  status: ('A' for Active; 'I' for Inactive)
REMARK    1  A    between atoms: O_1  and  C_2
REMARK    2  A    between atoms: C_7  and  O_8
REMARK    3  A    between atoms: O_8  and  C_9
REMARK    4  A    between atoms: C_9  and  C_10
REMARK    5  A    between atoms: C_10  and  O_11
REMARK    6  A    between atoms: C_10  and  C_12
REMARK    7  A    between atoms: C_12  and  N_13
REMARK    8  A    between atoms: N_13  and  C_14
REMARK    9  A    between atoms: C_14  and  C_15
REMARK                            x       y       z     vdW  Elec       q    Type
REMARK                         _______ _______ _______ _____ _____    ______ ____
ROOT
ATOM      1  C   UNL     1       1.783   2.459  19.535  0.00  0.00    +0.000 C 
ENDROOT
BRANCH   1   2
ATOM      2  O   UNL     1       3.200   2.283  19.583  0.00  0.00    +0.000 OA
BRANCH   2   8
ATOM      3  C   UNL     1       7.326   6.363  17.212  0.00  0.00    +0.000 A 
ATOM      4  C   UNL     1       7.628   6.224  18.553  0.00  0.00    +0.000 A 
ATOM      5  C   UNL     1       6.820   5.388  19.317  0.00  0.00    +0.000 A 
ATOM      6  C   UNL     1       5.761   4.706  18.708  0.00  0.00    +0.000 A 
ATOM      7  C   UNL     1       4.933   3.828  19.426  0.00  0.00    +0.000 A 
ATOM      8  C   UNL     1       3.921   3.120  18.780  0.00  0.00    +0.000 A 
ATOM      9  C   UNL     1       3.730   3.309  17.411  0.00  0.00    +0.000 A 
ATOM     10  C   UNL     1       4.533   4.211  16.708  0.00  0.00    +0.000 A 
ATOM     11  C   UNL     1       5.553   4.911  17.328  0.00  0.00    +0.000 A 
ATOM     12  N   UNL     1       6.313   5.737  16.595  0.00  0.00    +0.000 NA
BRANCH   3  13
ATOM     13  O   UNL     1       8.069   7.155  16.399  0.00  0.00    +0.000 OA
ATOM     14  H   UNL     1       8.939   6.741  16.287  0.00  0.00    +0.000 HD
ENDBRANCH   3  13
ENDBRANCH   2   8
ENDBRANCH   1   2
BRANCH   1  15
ATOM     15  C   UNL     1       1.296   3.171  20.808  0.00  0.00    +0.000 C 
BRANCH  15  16
ATOM     16  O   UNL     1       2.282   3.125  21.848  0.00  0.00    +0.000 OA
ATOM     17  H   UNL     1       1.826   3.238  22.699  0.00  0.00    +0.000 HD
ENDBRANCH  15  16
BRANCH  15  18
ATOM     18  C   UNL     1       0.970   4.644  20.498  0.00  0.00    +0.000 C 
BRANCH  18  19
ATOM     19  N   UNL     1       2.092   5.505  20.862  0.00  0.00    +0.000 NA
ATOM     20  H   UNL     1       2.852   4.941  21.245  0.00  0.00    +0.000 HD
BRANCH  19  21
ATOM     21  C   UNL     1       2.598   6.278  19.735  0.00  0.00    +0.000 C 
BRANCH  21  22
ATOM     22  C   UNL     1       1.929   7.635  19.699  0.00  0.00    +0.000 A 
ATOM     23  C   UNL     1       1.196   8.104  20.799  0.00  0.00    +0.000 A 
ATOM     24  C   UNL     1       0.564   9.350  20.745  0.00  0.00    +0.000 A 
ATOM     25  C   UNL     1       0.664  10.122  19.594  0.00  0.00    +0.000 A 
ATOM     26  F   UNL     1       0.045  11.311  19.542  0.00  0.00    +0.000 F 
ATOM     27  C   UNL     1       1.393   9.683  18.498  0.00  0.00    +0.000 A 
ATOM     28  C   UNL     1       2.028   8.441  18.551  0.00  0.00    +0.000 A 
ENDBRANCH  21  22
ENDBRANCH  19  21
ENDBRANCH  18  19
ENDBRANCH  15  18
ENDBRANCH   1  15
TORSDOF 9
ENDMDL
MODEL 8
REMARK VINA RESULT:      -7.2      1.187      2.098
REMARK  Name = 
REMARK  9 active torsions:
REMARK  status: ('A' for Active; 'I' for Inactive)
REMARK    1  A    between atoms: O_1  and  C_2
REMARK    2  A    between atoms: C_7  and  O_8
REMARK    3  A    between atoms: O_8  and  C_9
REMARK    4  A    between atoms: C_9  and  C_10
REMARK    5  A    between atoms: C_10  and  O_11
REMARK    6  A    between atoms: C_10  and  C_12
REMARK    7  A    between atoms: C_12  and  N_13
REMARK    8  A    between atoms: N_13  and  C_14
REMARK    9  A    between atoms: C_14  and  C_15
REMARK                            x       y       z     vdW  Elec       q    Type
REMARK                         _______ _______ _______ _____ _____    ______ ____
ROOT
ATOM      1  C   UNL     1       1.936   4.519  19.867  0.00  0.00    +0.000 C 
ENDROOT
BRANCH   1   2
ATOM      2  O   UNL     1       2.937   5.531  19.749  0.00  0.00    +0.000 OA
BRANCH   2   8
ATOM      3  C   UNL     1       0.380  11.252  19.590  0.00  0.00    +0.000 A 
ATOM      4  C   UNL     1       0.187  10.765  20.869  0.00  0.00    +0.000 A 
ATOM      5  C   UNL     1       0.640   9.479  21.148  0.00  0.00    +0.000 A 
ATOM      6  C   UNL     1       1.289   8.744  20.150  0.00  0.00    +0.000 A 
ATOM      7  C   UNL     1       1.791   7.453  20.386  0.00  0.00    +0.000 A 
ATOM      8  C   UNL     1       2.481   6.768  19.388  0.00  0.00    +0.000 A 
ATOM      9  C   UNL     1       2.651   7.373  18.143  0.00  0.00    +0.000 A 
ATOM     10  C   UNL     1       2.118   8.642  17.901  0.00  0.00    +0.000 A 
ATOM     11  C   UNL     1       1.444   9.346  18.883  0.00  0.00    +0.000 A 
ATOM     12  N   UNL     1       0.984  10.574  18.604  0.00  0.00    +0.000 NA
BRANCH   3  13
ATOM     13  O   UNL     1      -0.028  12.498  19.240  0.00  0.00    +0.000 OA
ATOM     14  H   UNL     1      -0.521  12.432  18.408  0.00  0.00    +0.000 HD
ENDBRANCH   3  13
ENDBRANCH   2   8
ENDBRANCH   1   2
BRANCH   1  15
ATOM     15  C   UNL     1       2.053   3.524  18.701  0.00  0.00    +0.000 C 
BRANCH  15  16
ATOM     16  O   UNL     1       1.267   3.936  17.575  0.00  0.00    +0.000 OA
ATOM     17  H   UNL     1       1.596   4.802  17.279  0.00  0.00    +0.000 HD
ENDBRANCH  15  16
BRANCH  15  18
ATOM     18  C   UNL     1       3.524   3.397  18.260  0.00  0.00    +0.000 C 
BRANCH  18  19
ATOM     19  N   UNL     1       3.776   4.212  17.075  0.00  0.00    +0.000 NA
ATOM     20  H   UNL     1       3.656   5.201  17.301  0.00  0.00    +0.000 HD
BRANCH  19  21
ATOM     21  C   UNL     1       5.111   4.011  16.527  0.00  0.00    +0.000 C 
BRANCH  21  22
ATOM     22  C   UNL     1       6.070   5.020  17.121  0.00  0.00    +0.000 A 
ATOM     23  C   UNL     1       7.007   4.636  18.091  0.00  0.00    +0.000 A 
ATOM     24  C   UNL     1       7.871   5.582  18.649  0.00  0.00    +0.000 A 
ATOM     25  C   UNL     1       7.798   6.907  18.239  0.00  0.00    +0.000 A 
ATOM     26  F   UNL     1       8.620   7.814  18.786  0.00  0.00    +0.000 F 
ATOM     27  C   UNL     1       6.886   7.308  17.272  0.00  0.00    +0.000 A 
ATOM     28  C   UNL     1       6.024   6.365  16.711  0.00  0.00    +0.000 A 
ENDBRANCH  21  22
ENDBRANCH  19  21
ENDBRANCH  18  19
ENDBRANCH  15  18
ENDBRANCH   1  15
TORSDOF 9
ENDMDL
MODEL 9
REMARK VINA RESULT:      -7.2      1.220      1.989
REMARK  Name = 
REMARK  9 active torsions:
REMARK  status: ('A' for Active; 'I' for Inactive)
REMARK    1  A    between atoms: O_1  and  C_2
REMARK    2  A    between atoms: C_7  and  O_8
REMARK    3  A    between atoms: O_8  and  C_9
REMARK    4  A    between atoms: C_9  and  C_10
REMARK    5  A    between atoms: C_10  and  O_11
REMARK    6  A    between atoms: C_10  and  C_12
REMARK    7  A    between atoms: C_12  and  N_13
REMARK    8  A    between atoms: N_13  and  C_14
REMARK    9  A    between atoms: C_14  and  C_15
REMARK                            x       y       z     vdW  Elec       q    Type
REMARK                         _______ _______ _______ _____ _____    ______ ____
ROOT
ATOM      1  C   UNL     1       3.447   4.856  19.724  0.00  0.00    +0.000 C 
ENDROOT
BRANCH   1   2
ATOM      2  O   UNL     1       3.066   5.578  18.552  0.00  0.00    +0.000 OA
BRANCH   2   8
ATOM      3  C   UNL     1       0.445  10.698  21.046  0.00  0.00    +0.000 A 
ATOM      4  C   UNL     1       0.551   9.768  22.064  0.00  0.00    +0.000 A 
ATOM      5  C   UNL     1       1.076   8.518  21.748  0.00  0.00    +0.000 A 
ATOM      6  C   UNL     1       1.497   8.257  20.440  0.00  0.00    +0.000 A 
ATOM      7  C   UNL     1       2.060   7.023  20.074  0.00  0.00    +0.000 A 
ATOM      8  C   UNL     1       2.520   6.811  18.776  0.00  0.00    +0.000 A 
ATOM      9  C   UNL     1       2.398   7.836  17.838  0.00  0.00    +0.000 A 
ATOM     10  C   UNL     1       1.804   9.049  18.197  0.00  0.00    +0.000 A 
ATOM     11  C   UNL     1       1.355   9.285  19.484  0.00  0.00    +0.000 A 
ATOM     12  N   UNL     1       0.825  10.480  19.779  0.00  0.00    +0.000 NA
BRANCH   3  13
ATOM     13  O   UNL     1      -0.051  11.940  21.274  0.00  0.00    +0.000 OA
ATOM     14  H   UNL     1       0.570  12.586  20.901  0.00  0.00    +0.000 HD
ENDBRANCH   3  13
ENDBRANCH   2   8
ENDBRANCH   1   2
BRANCH   1  15
ATOM     15  C   UNL     1       3.633   3.367  19.387  0.00  0.00    +0.000 C 
BRANCH  15  16
ATOM     16  O   UNL     1       2.670   2.549  20.064  0.00  0.00    +0.000 OA
ATOM     17  H   UNL     1       1.975   3.130  20.417  0.00  0.00    +0.000 HD
ENDBRANCH  15  16
BRANCH  15  18
ATOM     18  C   UNL     1       3.491   3.147  17.869  0.00  0.00    +0.000 C 
BRANCH  18  19
ATOM     19  N   UNL     1       4.806   3.022  17.245  0.00  0.00    +0.000 NA
ATOM     20  H   UNL     1       4.866   2.140  16.734  0.00  0.00    +0.000 HD
BRANCH  19  21
ATOM     21  C   UNL     1       5.101   4.119  16.331  0.00  0.00    +0.000 C 
BRANCH  21  22
ATOM     22  C   UNL     1       6.028   5.111  17.000  0.00  0.00    +0.000 A 
ATOM     23  C   UNL     1       5.984   6.472  16.667  0.00  0.00    +0.000 A 
ATOM     24  C   UNL     1       6.861   7.375  17.276  0.00  0.00    +0.000 A 
ATOM     25  C   UNL     1       7.778   6.917  18.213  0.00  0.00    +0.000 A 
ATOM     26  F   UNL     1       8.626   7.784  18.785  0.00  0.00    +0.000 F 
ATOM     27  C   UNL     1       7.832   5.576  18.566  0.00  0.00    +0.000 A 
ATOM     28  C   UNL     1       6.955   4.673  17.963  0.00  0.00    +0.000 A 
ENDBRANCH  21  22
ENDBRANCH  19  21
ENDBRANCH  18  19
ENDBRANCH  15  18
ENDBRANCH   1  15
TORSDOF 9
ENDMDL
