MODEL 1
REMARK VINA RESULT:      -6.8      0.000      0.000
REMARK  Name = 
REMARK  4 active torsions:
REMARK  status: ('A' for Active; 'I' for Inactive)
REMARK    1  A    between atoms: C_1  and  N_2
REMARK    2  A    between atoms: C_5  and  C_6
REMARK    3  A    between atoms: C_10  and  O_11
REMARK    4  A    between atoms: O_11  and  C_12
REMARK                            x       y       z     vdW  Elec       q    Type
REMARK                         _______ _______ _______ _____ _____    ______ ____
ROOT
ATOM      1  C   UNL     1       7.780   8.123  17.695  0.00  0.00    +0.000 C 
ATOM      2  N   UNL     1       7.772   7.054  16.726  0.00  0.00    +0.000 N 
ATOM      3  C   UNL     1       7.026   5.950  16.923  0.00  0.00    +0.000 A 
ATOM      4  C   UNL     1       5.831   5.884  17.666  0.00  0.00    +0.000 A 
ATOM      5  C   UNL     1       5.412   4.571  17.588  0.00  0.00    +0.000 A 
ATOM      6  N   UNL     1       6.370   3.955  16.828  0.00  0.00    +0.000 N 
ATOM      7  N   UNL     1       7.358   4.764  16.420  0.00  0.00    +0.000 NA
ATOM      8  H   UNL     1       8.675   6.859  16.306  0.00  0.00    +0.000 HD
ATOM      9  H   UNL     1       6.400   2.984  16.536  0.00  0.00    +0.000 HD
ENDROOT
BRANCH   5  10
ATOM     10  C   UNL     1       4.231   3.902  18.114  0.00  0.00    +0.000 A 
ATOM     11  C   UNL     1       3.532   2.975  17.330  0.00  0.00    +0.000 A 
ATOM     12  C   UNL     1       2.416   2.318  17.845  0.00  0.00    +0.000 A 
ATOM     13  C   UNL     1       1.986   2.590  19.144  0.00  0.00    +0.000 A 
ATOM     14  C   UNL     1       2.664   3.520  19.935  0.00  0.00    +0.000 A 
ATOM     15  C   UNL     1       3.787   4.172  19.419  0.00  0.00    +0.000 A 
BRANCH  14  16
ATOM     16  O   UNL     1       2.143   3.709  21.185  0.00  0.00    +0.000 OA
ATOM     17  C   UNL     1       1.468   2.599  21.771  0.00  0.00    +0.000 C 
ENDBRANCH  14  16
ENDBRANCH   5  10
TORSDOF 2
ENDMDL
MODEL 2
REMARK VINA RESULT:      -6.7      3.440      5.949
REMARK  Name = 
REMARK  4 active torsions:
REMARK  status: ('A' for Active; 'I' for Inactive)
REMARK    1  A    between atoms: C_1  and  N_2
REMARK    2  A    between atoms: C_5  and  C_6
REMARK    3  A    between atoms: C_10  and  O_11
REMARK    4  A    between atoms: O_11  and  C_12
REMARK                            x       y       z     vdW  Elec       q    Type
REMARK                         _______ _______ _______ _____ _____    ______ ____
ROOT
ATOM      1  C   UNL     1       1.173   2.814  21.208  0.00  0.00    +0.000 C 
ATOM      2  N   UNL     1       2.590   2.647  21.424  0.00  0.00    +0.000 N 
ATOM      3  C   UNL     1       3.470   2.866  20.428  0.00  0.00    +0.000 A 
ATOM      4  C   UNL     1       3.287   3.749  19.346  0.00  0.00    +0.000 A 
ATOM      5  C   UNL     1       4.438   3.660  18.589  0.00  0.00    +0.000 A 
ATOM      6  N   UNL     1       5.209   2.744  19.254  0.00  0.00    +0.000 N 
ATOM      7  N   UNL     1       4.645   2.245  20.362  0.00  0.00    +0.000 NA
ATOM      8  H   UNL     1       2.837   1.858  22.011  0.00  0.00    +0.000 HD
ATOM      9  H   UNL     1       6.140   2.425  19.010  0.00  0.00    +0.000 HD
ENDROOT
BRANCH   5  10
ATOM     10  C   UNL     1       4.857   4.357  17.381  0.00  0.00    +0.000 A 
ATOM     11  C   UNL     1       4.685   5.742  17.265  0.00  0.00    +0.000 A 
ATOM     12  C   UNL     1       5.108   6.410  16.118  0.00  0.00    +0.000 A 
ATOM     13  C   UNL     1       5.697   5.695  15.074  0.00  0.00    +0.000 A 
ATOM     14  C   UNL     1       5.865   4.313  15.169  0.00  0.00    +0.000 A 
ATOM     15  C   UNL     1       5.446   3.647  16.323  0.00  0.00    +0.000 A 
BRANCH  14  16
ATOM     16  O   UNL     1       6.445   3.722  14.079  0.00  0.00    +0.000 OA
ATOM     17  C   UNL     1       5.641   3.613  12.908  0.00  0.00    +0.000 C 
ENDBRANCH  14  16
ENDBRANCH   5  10
TORSDOF 2
ENDMDL
MODEL 3
REMARK VINA RESULT:      -6.6      1.611      1.844
REMARK  Name = 
REMARK  4 active torsions:
REMARK  status: ('A' for Active; 'I' for Inactive)
REMARK    1  A    between atoms: C_1  and  N_2
REMARK    2  A    between atoms: C_5  and  C_6
REMARK    3  A    between atoms: C_10  and  O_11
REMARK    4  A    between atoms: O_11  and  C_12
REMARK                            x       y       z     vdW  Elec       q    Type
REMARK                         _______ _______ _______ _____ _____    ______ ____
ROOT
ATOM      1  C   UNL     1       7.225   5.147  13.783  0.00  0.00    +0.000 C 
ATOM      2  N   UNL     1       7.796   4.615  14.997  0.00  0.00    +0.000 N 
ATOM      3  C   UNL     1       7.049   4.482  16.110  0.00  0.00    +0.000 A 
ATOM      4  C   UNL     1       5.656   4.277  16.149  0.00  0.00    +0.000 A 
ATOM      5  C   UNL     1       5.326   4.187  17.486  0.00  0.00    +0.000 A 
ATOM      6  N   UNL     1       6.519   4.349  18.139  0.00  0.00    +0.000 N 
ATOM      7  N   UNL     1       7.572   4.535  17.332  0.00  0.00    +0.000 NA
ATOM      8  H   UNL     1       8.746   4.919  15.184  0.00  0.00    +0.000 HD
ATOM      9  H   UNL     1       6.685   4.326  19.139  0.00  0.00    +0.000 HD
ENDROOT
BRANCH   5  10
ATOM     10  C   UNL     1       4.056   3.939  18.153  0.00  0.00    +0.000 A 
ATOM     11  C   UNL     1       2.851   4.054  17.449  0.00  0.00    +0.000 A 
ATOM     12  C   UNL     1       1.637   3.793  18.083  0.00  0.00    +0.000 A 
ATOM     13  C   UNL     1       1.622   3.424  19.429  0.00  0.00    +0.000 A 
ATOM     14  C   UNL     1       2.813   3.316  20.148  0.00  0.00    +0.000 A 
ATOM     15  C   UNL     1       4.028   3.572  19.508  0.00  0.00    +0.000 A 
BRANCH  14  16
ATOM     16  O   UNL     1       2.669   2.958  21.461  0.00  0.00    +0.000 OA
ATOM     17  C   UNL     1       1.375   2.522  21.866  0.00  0.00    +0.000 C 
ENDBRANCH  14  16
ENDBRANCH   5  10
TORSDOF 2
ENDMDL
MODEL 4
REMARK VINA RESULT:      -6.6      3.202      6.078
REMARK  Name = 
REMARK  4 active torsions:
REMARK  status: ('A' for Active; 'I' for Inactive)
REMARK    1  A    between atoms: C_1  and  N_2
REMARK    2  A    between atoms: C_5  and  C_6
REMARK    3  A    between atoms: C_10  and  O_11
REMARK    4  A    between atoms: O_11  and  C_12
REMARK                            x       y       z     vdW  Elec       q    Type
REMARK                         _______ _______ _______ _____ _____    ______ ____
ROOT
ATOM      1  C   UNL     1       0.930   3.260  20.735  0.00  0.00    +0.000 C 
ATOM      2  N   UNL     1       2.160   2.590  21.083  0.00  0.00    +0.000 N 
ATOM      3  C   UNL     1       3.299   2.847  20.412  0.00  0.00    +0.000 A 
ATOM      4  C   UNL     1       3.620   4.057  19.766  0.00  0.00    +0.000 A 
ATOM      5  C   UNL     1       4.878   3.873  19.227  0.00  0.00    +0.000 A 
ATOM      6  N   UNL     1       5.209   2.591  19.575  0.00  0.00    +0.000 N 
ATOM      7  N   UNL     1       4.271   1.948  20.284  0.00  0.00    +0.000 NA
ATOM      8  H   UNL     1       2.051   1.613  21.331  0.00  0.00    +0.000 HD
ATOM      9  H   UNL     1       6.072   2.098  19.371  0.00  0.00    +0.000 HD
ENDROOT
BRANCH   5  10
ATOM     10  C   UNL     1       5.752   4.772  18.486  0.00  0.00    +0.000 A 
ATOM     11  C   UNL     1       6.706   5.547  19.156  0.00  0.00    +0.000 A 
ATOM     12  C   UNL     1       7.558   6.387  18.442  0.00  0.00    +0.000 A 
ATOM     13  C   UNL     1       7.453   6.465  17.053  0.00  0.00    +0.000 A 
ATOM     14  C   UNL     1       6.500   5.708  16.370  0.00  0.00    +0.000 A 
ATOM     15  C   UNL     1       5.652   4.861  17.088  0.00  0.00    +0.000 A 
BRANCH  14  16
ATOM     16  O   UNL     1       6.487   5.877  15.013  0.00  0.00    +0.000 OA
ATOM     17  C   UNL     1       6.785   4.729  14.223  0.00  0.00    +0.000 C 
ENDBRANCH  14  16
ENDBRANCH   5  10
TORSDOF 2
ENDMDL
MODEL 5
REMARK VINA RESULT:      -6.5      2.573      3.599
REMARK  Name = 
REMARK  4 active torsions:
REMARK  status: ('A' for Active; 'I' for Inactive)
REMARK    1  A    between atoms: C_1  and  N_2
REMARK    2  A    between atoms: C_5  and  C_6
REMARK    3  A    between atoms: C_10  and  O_11
REMARK    4  A    between atoms: O_11  and  C_12
REMARK                            x       y       z     vdW  Elec       q    Type
REMARK                         _______ _______ _______ _____ _____    ______ ____
ROOT
ATOM      1  C   UNL     1       5.904   3.192  12.123  0.00  0.00    +0.000 C 
ATOM      2  N   UNL     1       6.903   3.669  13.049  0.00  0.00    +0.000 N 
ATOM      3  C   UNL     1       6.552   4.395  14.128  0.00  0.00    +0.000 A 
ATOM      4  C   UNL     1       5.319   4.324  14.805  0.00  0.00    +0.000 A 
ATOM      5  C   UNL     1       5.408   5.227  15.845  0.00  0.00    +0.000 A 
ATOM      6  N   UNL     1       6.659   5.769  15.715  0.00  0.00    +0.000 N 
ATOM      7  N   UNL     1       7.367   5.288  14.684  0.00  0.00    +0.000 NA
ATOM      8  H   UNL     1       7.763   3.984  12.615  0.00  0.00    +0.000 HD
ATOM      9  H   UNL     1       7.098   6.462  16.311  0.00  0.00    +0.000 HD
ENDROOT
BRANCH   5  10
ATOM     10  C   UNL     1       4.474   5.571  16.908  0.00  0.00    +0.000 A 
ATOM     11  C   UNL     1       4.154   6.910  17.165  0.00  0.00    +0.000 A 
ATOM     12  C   UNL     1       3.241   7.235  18.167  0.00  0.00    +0.000 A 
ATOM     13  C   UNL     1       2.650   6.223  18.924  0.00  0.00    +0.000 A 
ATOM     14  C   UNL     1       2.967   4.884  18.689  0.00  0.00    +0.000 A 
ATOM     15  C   UNL     1       3.877   4.561  17.679  0.00  0.00    +0.000 A 
BRANCH  14  16
ATOM     16  O   UNL     1       2.332   3.985  19.501  0.00  0.00    +0.000 OA
ATOM     17  C   UNL     1       1.186   3.333  18.960  0.00  0.00    +0.000 C 
ENDBRANCH  14  16
ENDBRANCH   5  10
TORSDOF 2
ENDMDL
MODEL 6
REMARK VINA RESULT:      -6.4      4.217      6.336
REMARK  Name = 
REMARK  4 active torsions:
REMARK  status: ('A' for Active; 'I' for Inactive)
REMARK    1  A    between atoms: C_1  and  N_2
REMARK    2  A    between atoms: C_5  and  C_6
REMARK    3  A    between atoms: C_10  and  O_11
REMARK    4  A    between atoms: O_11  and  C_12
REMARK                            x       y       z     vdW  Elec       q    Type
REMARK                         _______ _______ _______ _____ _____    ______ ____
ROOT
ATOM      1  C   UNL     1       4.323   3.143  19.436  0.00  0.00    +0.000 C 
ATOM      2  N   UNL     1       5.363   4.139  19.352  0.00  0.00    +0.000 N 
ATOM      3  C   UNL     1       6.065   4.310  18.214  0.00  0.00    +0.000 A 
ATOM      4  C   UNL     1       5.600   4.042  16.912  0.00  0.00    +0.000 A 
ATOM      5  C   UNL     1       6.640   4.372  16.067  0.00  0.00    +0.000 A 
ATOM      6  N   UNL     1       7.635   4.797  16.906  0.00  0.00    +0.000 N 
ATOM      7  N   UNL     1       7.315   4.762  18.207  0.00  0.00    +0.000 NA
ATOM      8  H   UNL     1       5.928   4.230  20.190  0.00  0.00    +0.000 HD
ATOM      9  H   UNL     1       8.555   5.140  16.652  0.00  0.00    +0.000 HD
ENDROOT
BRANCH   5  10
ATOM     10  C   UNL     1       6.748   4.352  14.614  0.00  0.00    +0.000 A 
ATOM     11  C   UNL     1       7.660   5.189  13.959  0.00  0.00    +0.000 A 
ATOM     12  C   UNL     1       7.779   5.150  12.571  0.00  0.00    +0.000 A 
ATOM     13  C   UNL     1       6.979   4.281  11.829  0.00  0.00    +0.000 A 
ATOM     14  C   UNL     1       6.057   3.448  12.465  0.00  0.00    +0.000 A 
ATOM     15  C   UNL     1       5.945   3.484  13.857  0.00  0.00    +0.000 A 
BRANCH  14  16
ATOM     16  O   UNL     1       5.324   2.648  11.632  0.00  0.00    +0.000 OA
ATOM     17  C   UNL     1       4.062   3.154  11.207  0.00  0.00    +0.000 C 
ENDBRANCH  14  16
ENDBRANCH   5  10
TORSDOF 2
ENDMDL
MODEL 7
REMARK VINA RESULT:      -6.4      3.127      5.857
REMARK  Name = 
REMARK  4 active torsions:
REMARK  status: ('A' for Active; 'I' for Inactive)
REMARK    1  A    between atoms: C_1  and  N_2
REMARK    2  A    between atoms: C_5  and  C_6
REMARK    3  A    between atoms: C_10  and  O_11
REMARK    4  A    between atoms: O_11  and  C_12
REMARK                            x       y       z     vdW  Elec       q    Type
REMARK                         _______ _______ _______ _____ _____    ______ ____
ROOT
ATOM      1  C   UNL     1       0.559   2.620  19.333  0.00  0.00    +0.000 C 
ATOM      2  N   UNL     1       1.753   2.729  20.136  0.00  0.00    +0.000 N 
ATOM      3  C   UNL     1       2.954   2.940  19.562  0.00  0.00    +0.000 A 
ATOM      4  C   UNL     1       3.178   3.606  18.341  0.00  0.00    +0.000 A 
ATOM      5  C   UNL     1       4.545   3.598  18.155  0.00  0.00    +0.000 A 
ATOM      6  N   UNL     1       5.032   2.935  19.250  0.00  0.00    +0.000 N 
ATOM      7  N   UNL     1       4.091   2.522  20.110  0.00  0.00    +0.000 NA
ATOM      8  H   UNL     1       1.791   2.090  20.923  0.00  0.00    +0.000 HD
ATOM      9  H   UNL     1       6.001   2.745  19.478  0.00  0.00    +0.000 HD
ENDROOT
BRANCH   5  10
ATOM     10  C   UNL     1       5.380   4.165  17.105  0.00  0.00    +0.000 A 
ATOM     11  C   UNL     1       5.353   3.631  15.811  0.00  0.00    +0.000 A 
ATOM     12  C   UNL     1       6.135   4.191  14.802  0.00  0.00    +0.000 A 
ATOM     13  C   UNL     1       6.956   5.283  15.084  0.00  0.00    +0.000 A 
ATOM     14  C   UNL     1       7.003   5.821  16.371  0.00  0.00    +0.000 A 
ATOM     15  C   UNL     1       6.213   5.262  17.379  0.00  0.00    +0.000 A 
BRANCH  14  16
ATOM     16  O   UNL     1       7.852   6.883  16.526  0.00  0.00    +0.000 OA
ATOM     17  C   UNL     1       7.537   7.805  17.565  0.00  0.00    +0.000 C 
ENDBRANCH  14  16
ENDBRANCH   5  10
TORSDOF 2
ENDMDL
MODEL 8
REMARK VINA RESULT:      -6.4      3.525      6.149
REMARK  Name = 
REMARK  4 active torsions:
REMARK  status: ('A' for Active; 'I' for Inactive)
REMARK    1  A    between atoms: C_1  and  N_2
REMARK    2  A    between atoms: C_5  and  C_6
REMARK    3  A    between atoms: C_10  and  O_11
REMARK    4  A    between atoms: O_11  and  C_12
REMARK                            x       y       z     vdW  Elec       q    Type
REMARK                         _______ _______ _______ _____ _____    ______ ____
ROOT
ATOM      1  C   UNL     1       1.591   2.925  21.538  0.00  0.00    +0.000 C 
ATOM      2  N   UNL     1       1.271   2.527  20.188  0.00  0.00    +0.000 N 
ATOM      3  C   UNL     1       2.011   2.961  19.148  0.00  0.00    +0.000 A 
ATOM      4  C   UNL     1       3.374   3.313  19.196  0.00  0.00    +0.000 A 
ATOM      5  C   UNL     1       3.712   3.681  17.909  0.00  0.00    +0.000 A 
ATOM      6  N   UNL     1       2.550   3.534  17.200  0.00  0.00    +0.000 N 
ATOM      7  N   UNL     1       1.508   3.107  17.925  0.00  0.00    +0.000 NA
ATOM      8  H   UNL     1       0.278   2.486  19.985  0.00  0.00    +0.000 HD
ATOM      9  H   UNL     1       2.406   3.694  16.209  0.00  0.00    +0.000 HD
ENDROOT
BRANCH   5  10
ATOM     10  C   UNL     1       4.979   4.102  17.326  0.00  0.00    +0.000 A 
ATOM     11  C   UNL     1       6.059   4.446  18.149  0.00  0.00    +0.000 A 
ATOM     12  C   UNL     1       7.277   4.824  17.588  0.00  0.00    +0.000 A 
ATOM     13  C   UNL     1       7.420   4.870  16.201  0.00  0.00    +0.000 A 
ATOM     14  C   UNL     1       6.350   4.542  15.367  0.00  0.00    +0.000 A 
ATOM     15  C   UNL     1       5.132   4.156  15.932  0.00  0.00    +0.000 A 
BRANCH  14  16
ATOM     16  O   UNL     1       6.608   4.634  14.026  0.00  0.00    +0.000 OA
ATOM     17  C   UNL     1       5.974   3.674  13.186  0.00  0.00    +0.000 C 
ENDBRANCH  14  16
ENDBRANCH   5  10
TORSDOF 2
ENDMDL
MODEL 9
REMARK VINA RESULT:      -6.4      1.032      1.134
REMARK  Name = 
REMARK  4 active torsions:
REMARK  status: ('A' for Active; 'I' for Inactive)
REMARK    1  A    between atoms: C_1  and  N_2
REMARK    2  A    between atoms: C_5  and  C_6
REMARK    3  A    between atoms: C_10  and  O_11
REMARK    4  A    between atoms: O_11  and  C_12
REMARK                            x       y       z     vdW  Elec       q    Type
REMARK                         _______ _______ _______ _____ _____    ______ ____
ROOT
ATOM      1  C   UNL     1       7.685   7.589  17.588  0.00  0.00    +0.000 C 
ATOM      2  N   UNL     1       7.495   6.607  16.547  0.00  0.00    +0.000 N 
ATOM      3  C   UNL     1       6.657   5.567  16.725  0.00  0.00    +0.000 A 
ATOM      4  C   UNL     1       5.521   5.556  17.558  0.00  0.00    +0.000 A 
ATOM      5  C   UNL     1       4.966   4.301  17.419  0.00  0.00    +0.000 A 
ATOM      6  N   UNL     1       5.796   3.660  16.538  0.00  0.00    +0.000 N 
ATOM      7  N   UNL     1       6.827   4.400  16.110  0.00  0.00    +0.000 NA
ATOM      8  H   UNL     1       8.339   6.362  16.041  0.00  0.00    +0.000 HD
ATOM      9  H   UNL     1       5.704   2.717  16.175  0.00  0.00    +0.000 HD
ENDROOT
BRANCH   5  10
ATOM     10  C   UNL     1       3.765   3.707  17.991  0.00  0.00    +0.000 A 
ATOM     11  C   UNL     1       3.397   2.396  17.664  0.00  0.00    +0.000 A 
ATOM     12  C   UNL     1       2.261   1.822  18.232  0.00  0.00    +0.000 A 
ATOM     13  C   UNL     1       1.481   2.559  19.124  0.00  0.00    +0.000 A 
ATOM     14  C   UNL     1       1.828   3.870  19.451  0.00  0.00    +0.000 A 
ATOM     15  C   UNL     1       2.971   4.441  18.886  0.00  0.00    +0.000 A 
BRANCH  14  16
ATOM     16  O   UNL     1       0.982   4.493  20.328  0.00  0.00    +0.000 OA
ATOM     17  C   UNL     1       1.423   5.735  20.869  0.00  0.00    +0.000 C 
ENDBRANCH  14  16
ENDBRANCH   5  10
TORSDOF 2
ENDMDL
