MODEL 1
REMARK VINA RESULT:      -6.7      0.000      0.000
REMARK  Name = 
REMARK  7 active torsions:
REMARK  status: ('A' for Active; 'I' for Inactive)
REMARK    1  A    between atoms: C_1  and  O_2
REMARK    2  A    between atoms: O_2  and  C_3
REMARK    3  A    between atoms: C_3  and  C_4
REMARK    4  A    between atoms: C_4  and  C_5
REMARK    5  A    between atoms: C_5  and  O_7
REMARK    6  A    between atoms: N_16  and  C_17
REMARK    7  A    between atoms: N_16  and  C_18
REMARK                            x       y       z     vdW  Elec       q    Type
REMARK                         _______ _______ _______ _____ _____    ______ ____
ROOT
ATOM      1  C   UNL     1       2.783   3.890  19.891  0.00  0.00    +0.000 C 
ATOM      2  C   UNL     1       1.961   3.861  18.594  0.00  0.00    +0.000 C 
ATOM      3  C   UNL     1       2.320   5.175  17.904  0.00  0.00    +0.000 C 
ATOM      4  N   UNL     1       2.535   6.104  19.003  0.00  0.00    +0.000 N 
ATOM      5  C   UNL     1       2.062   7.408  18.981  0.00  0.00    +0.000 A 
ATOM      6  C   UNL     1       1.991   8.090  17.784  0.00  0.00    +0.000 A 
ATOM      7  C   UNL     1       1.568   9.393  17.828  0.00  0.00    +0.000 A 
ATOM      8  N   UNL     1       1.211  10.012  18.957  0.00  0.00    +0.000 NA
ATOM      9  C   UNL     1       1.286   9.313  20.100  0.00  0.00    +0.000 A 
ATOM     10  N   UNL     1       0.907   9.953  21.257  0.00  0.00    +0.000 N 
ATOM     11  C   UNL     1       0.892   9.263  22.531  0.00  0.00    +0.000 C 
ATOM     12  C   UNL     1       0.581  11.368  21.256  0.00  0.00    +0.000 C 
ATOM     13  N   UNL     1       1.718   8.033  20.132  0.00  0.00    +0.000 NA
ATOM     14  C   UNL     1       2.779   5.399  20.264  0.00  0.00    +0.000 C 
ENDROOT
BRANCH   1  15
ATOM     15  C   UNL     1       2.076   3.088  20.982  0.00  0.00    +0.000 C 
ATOM     16  O   UNL     1       2.634   2.648  21.983  0.00  0.00    +0.000 OA
BRANCH  15  17
ATOM     17  O   UNL     1       0.747   2.927  20.820  0.00  0.00    +0.000 OA
ATOM     18  H   UNL     1       0.502   2.026  20.515  0.00  0.00    +0.000 HD
ENDBRANCH  15  17
ENDBRANCH   1  15
BRANCH   1  19
ATOM     19  C   UNL     1       4.220   3.379  19.663  0.00  0.00    +0.000 C 
BRANCH  19  21
ATOM     20  C   UNL     1       5.932   4.525  18.460  0.00  0.00    +0.000 C 
ATOM     21  O   UNL     1       5.112   4.511  19.625  0.00  0.00    +0.000 OA
ENDBRANCH  19  21
ENDBRANCH   1  19
TORSDOF 4
ENDMDL
MODEL 2
REMARK VINA RESULT:      -6.6      0.910      1.089
REMARK  Name = 
REMARK  7 active torsions:
REMARK  status: ('A' for Active; 'I' for Inactive)
REMARK    1  A    between atoms: C_1  and  O_2
REMARK    2  A    between atoms: O_2  and  C_3
REMARK    3  A    between atoms: C_3  and  C_4
REMARK    4  A    between atoms: C_4  and  C_5
REMARK    5  A    between atoms: C_5  and  O_7
REMARK    6  A    between atoms: N_16  and  C_17
REMARK    7  A    between atoms: N_16  and  C_18
REMARK                            x       y       z     vdW  Elec       q    Type
REMARK                         _______ _______ _______ _____ _____    ______ ____
ROOT
ATOM      1  C   UNL     1       2.408   4.147  19.853  0.00  0.00    +0.000 C 
ATOM      2  C   UNL     1       1.774   4.225  18.457  0.00  0.00    +0.000 C 
ATOM      3  C   UNL     1       2.282   5.552  17.898  0.00  0.00    +0.000 C 
ATOM      4  N   UNL     1       2.382   6.412  19.067  0.00  0.00    +0.000 N 
ATOM      5  C   UNL     1       1.973   7.738  19.056  0.00  0.00    +0.000 A 
ATOM      6  C   UNL     1       2.100   8.483  17.901  0.00  0.00    +0.000 A 
ATOM      7  C   UNL     1       1.732   9.802  17.961  0.00  0.00    +0.000 A 
ATOM      8  N   UNL     1       1.248  10.380  19.065  0.00  0.00    +0.000 NA
ATOM      9  C   UNL     1       1.133   9.621  20.165  0.00  0.00    +0.000 A 
ATOM     10  N   UNL     1       0.625  10.220  21.294  0.00  0.00    +0.000 N 
ATOM     11  C   UNL     1       0.403   9.468  22.513  0.00  0.00    +0.000 C 
ATOM     12  C   UNL     1       0.363  11.648  21.329  0.00  0.00    +0.000 C 
ATOM     13  N   UNL     1       1.501   8.321  20.182  0.00  0.00    +0.000 NA
ATOM     14  C   UNL     1       2.418   5.633  20.308  0.00  0.00    +0.000 C 
ENDROOT
BRANCH   1  15
ATOM     15  C   UNL     1       1.523   3.327  20.789  0.00  0.00    +0.000 C 
ATOM     16  O   UNL     1       1.846   2.996  21.928  0.00  0.00    +0.000 OA
BRANCH  15  17
ATOM     17  O   UNL     1       0.299   3.020  20.316  0.00  0.00    +0.000 OA
ATOM     18  H   UNL     1       0.257   3.006  19.335  0.00  0.00    +0.000 HD
ENDBRANCH  15  17
ENDBRANCH   1  15
BRANCH   1  19
ATOM     19  C   UNL     1       3.839   3.576  19.794  0.00  0.00    +0.000 C 
BRANCH  19  21
ATOM     20  C   UNL     1       3.889   1.382  18.858  0.00  0.00    +0.000 C 
ATOM     21  O   UNL     1       3.971   2.781  18.599  0.00  0.00    +0.000 OA
ENDBRANCH  19  21
ENDBRANCH   1  19
TORSDOF 4
ENDMDL
MODEL 3
REMARK VINA RESULT:      -6.5      3.132      4.800
REMARK  Name = 
REMARK  7 active torsions:
REMARK  status: ('A' for Active; 'I' for Inactive)
REMARK    1  A    between atoms: C_1  and  O_2
REMARK    2  A    between atoms: O_2  and  C_3
REMARK    3  A    between atoms: C_3  and  C_4
REMARK    4  A    between atoms: C_4  and  C_5
REMARK    5  A    between atoms: C_5  and  O_7
REMARK    6  A    between atoms: N_16  and  C_17
REMARK    7  A    between atoms: N_16  and  C_18
REMARK                            x       y       z     vdW  Elec       q    Type
REMARK                         _______ _______ _______ _____ _____    ______ ____
ROOT
ATOM      1  C   UNL     1       6.109   5.026  16.642  0.00  0.00    +0.000 C 
ATOM      2  C   UNL     1       6.546   4.540  18.032  0.00  0.00    +0.000 C 
ATOM      3  C   UNL     1       5.231   4.195  18.728  0.00  0.00    +0.000 C 
ATOM      4  N   UNL     1       4.284   5.160  18.192  0.00  0.00    +0.000 N 
ATOM      5  C   UNL     1       3.349   5.809  18.985  0.00  0.00    +0.000 A 
ATOM      6  C   UNL     1       2.804   5.157  20.072  0.00  0.00    +0.000 A 
ATOM      7  C   UNL     1       1.845   5.825  20.789  0.00  0.00    +0.000 A 
ATOM      8  N   UNL     1       1.437   7.063  20.494  0.00  0.00    +0.000 NA
ATOM      9  C   UNL     1       1.995   7.666  19.435  0.00  0.00    +0.000 A 
ATOM     10  N   UNL     1       1.578   8.944  19.144  0.00  0.00    +0.000 N 
ATOM     11  C   UNL     1       2.167   9.702  18.058  0.00  0.00    +0.000 C 
ATOM     12  C   UNL     1       0.476   9.553  19.867  0.00  0.00    +0.000 C 
ATOM     13  N   UNL     1       2.928   7.057  18.670  0.00  0.00    +0.000 NA
ATOM     14  C   UNL     1       4.766   5.749  16.939  0.00  0.00    +0.000 C 
ENDROOT
BRANCH   1  15
ATOM     15  C   UNL     1       7.123   6.027  16.091  0.00  0.00    +0.000 C 
ATOM     16  O   UNL     1       7.394   7.098  16.628  0.00  0.00    +0.000 OA
BRANCH  15  17
ATOM     17  O   UNL     1       7.777   5.642  14.977  0.00  0.00    +0.000 OA
ATOM     18  H   UNL     1       7.222   5.106  14.370  0.00  0.00    +0.000 HD
ENDBRANCH  15  17
ENDBRANCH   1  15
BRANCH   1  19
ATOM     19  C   UNL     1       5.901   3.848  15.669  0.00  0.00    +0.000 C 
BRANCH  19  21
ATOM     20  C   UNL     1       5.799   3.630  13.296  0.00  0.00    +0.000 C 
ATOM     21  O   UNL     1       5.353   4.357  14.437  0.00  0.00    +0.000 OA
ENDBRANCH  19  21
ENDBRANCH   1  19
TORSDOF 4
ENDMDL
MODEL 4
REMARK VINA RESULT:      -6.5      3.840      5.700
REMARK  Name = 
REMARK  7 active torsions:
REMARK  status: ('A' for Active; 'I' for Inactive)
REMARK    1  A    between atoms: C_1  and  O_2
REMARK    2  A    between atoms: O_2  and  C_3
REMARK    3  A    between atoms: C_3  and  C_4
REMARK    4  A    between atoms: C_4  and  C_5
REMARK    5  A    between atoms: C_5  and  O_7
REMARK    6  A    between atoms: N_16  and  C_17
REMARK    7  A    between atoms: N_16  and  C_18
REMARK                            x       y       z     vdW  Elec       q    Type
REMARK                         _______ _______ _______ _____ _____    ______ ____
ROOT
ATOM      1  C   UNL     1       6.845   5.941  17.533  0.00  0.00    +0.000 C 
ATOM      2  C   UNL     1       5.758   6.532  16.624  0.00  0.00    +0.000 C 
ATOM      3  C   UNL     1       4.728   7.092  17.602  0.00  0.00    +0.000 C 
ATOM      4  N   UNL     1       4.784   6.179  18.734  0.00  0.00    +0.000 N 
ATOM      5  C   UNL     1       3.646   5.728  19.386  0.00  0.00    +0.000 A 
ATOM      6  C   UNL     1       2.545   6.553  19.491  0.00  0.00    +0.000 A 
ATOM      7  C   UNL     1       1.468   6.078  20.192  0.00  0.00    +0.000 A 
ATOM      8  N   UNL     1       1.434   4.866  20.753  0.00  0.00    +0.000 NA
ATOM      9  C   UNL     1       2.520   4.090  20.624  0.00  0.00    +0.000 A 
ATOM     10  N   UNL     1       2.475   2.839  21.195  0.00  0.00    +0.000 N 
ATOM     11  C   UNL     1       3.574   1.904  21.055  0.00  0.00    +0.000 C 
ATOM     12  C   UNL     1       1.353   2.437  22.025  0.00  0.00    +0.000 C 
ATOM     13  N   UNL     1       3.626   4.505  19.967  0.00  0.00    +0.000 NA
ATOM     14  C   UNL     1       6.028   5.404  18.740  0.00  0.00    +0.000 C 
ENDROOT
BRANCH   1  15
ATOM     15  C   UNL     1       7.548   4.782  16.829  0.00  0.00    +0.000 C 
ATOM     16  O   UNL     1       7.536   4.606  15.613  0.00  0.00    +0.000 OA
BRANCH  15  17
ATOM     17  O   UNL     1       8.260   3.960  17.626  0.00  0.00    +0.000 OA
ATOM     18  H   UNL     1       8.394   3.067  17.238  0.00  0.00    +0.000 HD
ENDBRANCH  15  17
ENDBRANCH   1  15
BRANCH   1  19
ATOM     19  C   UNL     1       7.855   7.017  17.981  0.00  0.00    +0.000 C 
BRANCH  19  21
ATOM     20  C   UNL     1       8.098   9.384  17.811  0.00  0.00    +0.000 C 
ATOM     21  O   UNL     1       7.676   8.189  17.161  0.00  0.00    +0.000 OA
ENDBRANCH  19  21
ENDBRANCH   1  19
TORSDOF 4
ENDMDL
MODEL 5
REMARK VINA RESULT:      -6.4      3.370      6.267
REMARK  Name = 
REMARK  7 active torsions:
REMARK  status: ('A' for Active; 'I' for Inactive)
REMARK    1  A    between atoms: C_1  and  O_2
REMARK    2  A    between atoms: O_2  and  C_3
REMARK    3  A    between atoms: C_3  and  C_4
REMARK    4  A    between atoms: C_4  and  C_5
REMARK    5  A    between atoms: C_5  and  O_7
REMARK    6  A    between atoms: N_16  and  C_17
REMARK    7  A    between atoms: N_16  and  C_18
REMARK                            x       y       z     vdW  Elec       q    Type
REMARK                         _______ _______ _______ _____ _____    ______ ____
ROOT
ATOM      1  C   UNL     1       2.396   3.701  18.812  0.00  0.00    +0.000 C 
ATOM      2  C   UNL     1       3.503   3.614  19.873  0.00  0.00    +0.000 C 
ATOM      3  C   UNL     1       4.383   4.828  19.584  0.00  0.00    +0.000 C 
ATOM      4  N   UNL     1       4.309   4.981  18.139  0.00  0.00    +0.000 N 
ATOM      5  C   UNL     1       5.420   5.274  17.361  0.00  0.00    +0.000 A 
ATOM      6  C   UNL     1       6.425   6.066  17.875  0.00  0.00    +0.000 A 
ATOM      7  C   UNL     1       7.474   6.368  17.046  0.00  0.00    +0.000 A 
ATOM      8  N   UNL     1       7.568   5.921  15.790  0.00  0.00    +0.000 NA
ATOM      9  C   UNL     1       6.575   5.148  15.328  0.00  0.00    +0.000 A 
ATOM     10  N   UNL     1       6.684   4.683  14.038  0.00  0.00    +0.000 N 
ATOM     11  C   UNL     1       5.694   3.789  13.471  0.00  0.00    +0.000 C 
ATOM     12  C   UNL     1       7.758   5.132  13.171  0.00  0.00    +0.000 C 
ATOM     13  N   UNL     1       5.500   4.831  16.084  0.00  0.00    +0.000 NA
ATOM     14  C   UNL     1       3.147   4.282  17.582  0.00  0.00    +0.000 C 
ENDROOT
BRANCH   1  15
ATOM     15  C   UNL     1       1.871   2.305  18.483  0.00  0.00    +0.000 C 
ATOM     16  O   UNL     1       0.679   2.019  18.403  0.00  0.00    +0.000 OA
BRANCH  15  17
ATOM     17  O   UNL     1       2.810   1.375  18.215  0.00  0.00    +0.000 OA
ATOM     18  H   UNL     1       2.432   0.519  17.918  0.00  0.00    +0.000 HD
ENDBRANCH  15  17
ENDBRANCH   1  15
BRANCH   1  19
ATOM     19  C   UNL     1       1.255   4.637  19.258  0.00  0.00    +0.000 C 
BRANCH  19  21
ATOM     20  C   UNL     1       1.431   6.426  20.827  0.00  0.00    +0.000 C 
ATOM     21  O   UNL     1       1.478   5.015  20.631  0.00  0.00    +0.000 OA
ENDBRANCH  19  21
ENDBRANCH   1  19
TORSDOF 4
ENDMDL
MODEL 6
REMARK VINA RESULT:      -6.2      4.118      6.300
REMARK  Name = 
REMARK  7 active torsions:
REMARK  status: ('A' for Active; 'I' for Inactive)
REMARK    1  A    between atoms: C_1  and  O_2
REMARK    2  A    between atoms: O_2  and  C_3
REMARK    3  A    between atoms: C_3  and  C_4
REMARK    4  A    between atoms: C_4  and  C_5
REMARK    5  A    between atoms: C_5  and  O_7
REMARK    6  A    between atoms: N_16  and  C_17
REMARK    7  A    between atoms: N_16  and  C_18
REMARK                            x       y       z     vdW  Elec       q    Type
REMARK                         _______ _______ _______ _____ _____    ______ ____
ROOT
ATOM      1  C   UNL     1       2.939   3.259  18.903  0.00  0.00    +0.000 C 
ATOM      2  C   UNL     1       4.053   3.390  19.952  0.00  0.00    +0.000 C 
ATOM      3  C   UNL     1       4.717   4.723  19.615  0.00  0.00    +0.000 C 
ATOM      4  N   UNL     1       4.606   4.817  18.168  0.00  0.00    +0.000 N 
ATOM      5  C   UNL     1       5.646   5.266  17.367  0.00  0.00    +0.000 A 
ATOM      6  C   UNL     1       6.511   6.229  17.845  0.00  0.00    +0.000 A 
ATOM      7  C   UNL     1       7.488   6.675  16.992  0.00  0.00    +0.000 A 
ATOM      8  N   UNL     1       7.644   6.212  15.749  0.00  0.00    +0.000 NA
ATOM      9  C   UNL     1       6.789   5.271  15.323  0.00  0.00    +0.000 A 
ATOM     10  N   UNL     1       6.963   4.790  14.046  0.00  0.00    +0.000 N 
ATOM     11  C   UNL     1       6.131   3.728  13.518  0.00  0.00    +0.000 C 
ATOM     12  C   UNL     1       7.940   5.385  13.151  0.00  0.00    +0.000 C 
ATOM     13  N   UNL     1       5.789   4.804  16.102  0.00  0.00    +0.000 NA
ATOM     14  C   UNL     1       3.572   3.919  17.647  0.00  0.00    +0.000 C 
ENDROOT
BRANCH   1  15
ATOM     15  C   UNL     1       2.650   1.786  18.622  0.00  0.00    +0.000 C 
ATOM     16  O   UNL     1       3.518   0.924  18.510  0.00  0.00    +0.000 OA
BRANCH  15  17
ATOM     17  O   UNL     1       1.347   1.448  18.558  0.00  0.00    +0.000 OA
ATOM     18  H   UNL     1       1.147   0.594  19.000  0.00  0.00    +0.000 HD
ENDBRANCH  15  17
ENDBRANCH   1  15
BRANCH   1  19
ATOM     19  C   UNL     1       1.662   4.006  19.338  0.00  0.00    +0.000 C 
BRANCH  19  21
ATOM     20  C   UNL     1       1.216   3.061  21.482  0.00  0.00    +0.000 C 
ATOM     21  O   UNL     1       1.700   4.194  20.767  0.00  0.00    +0.000 OA
ENDBRANCH  19  21
ENDBRANCH   1  19
TORSDOF 4
ENDMDL
MODEL 7
REMARK VINA RESULT:      -6.2      3.663      5.622
REMARK  Name = 
REMARK  7 active torsions:
REMARK  status: ('A' for Active; 'I' for Inactive)
REMARK    1  A    between atoms: C_1  and  O_2
REMARK    2  A    between atoms: O_2  and  C_3
REMARK    3  A    between atoms: C_3  and  C_4
REMARK    4  A    between atoms: C_4  and  C_5
REMARK    5  A    between atoms: C_5  and  O_7
REMARK    6  A    between atoms: N_16  and  C_17
REMARK    7  A    between atoms: N_16  and  C_18
REMARK                            x       y       z     vdW  Elec       q    Type
REMARK                         _______ _______ _______ _____ _____    ______ ____
ROOT
ATOM      1  C   UNL     1       6.344   5.965  16.552  0.00  0.00    +0.000 C 
ATOM      2  C   UNL     1       5.115   6.612  15.898  0.00  0.00    +0.000 C 
ATOM      3  C   UNL     1       4.336   7.191  17.077  0.00  0.00    +0.000 C 
ATOM      4  N   UNL     1       4.591   6.256  18.162  0.00  0.00    +0.000 N 
ATOM      5  C   UNL     1       3.598   5.835  19.034  0.00  0.00    +0.000 A 
ATOM      6  C   UNL     1       2.577   6.698  19.376  0.00  0.00    +0.000 A 
ATOM      7  C   UNL     1       1.652   6.250  20.283  0.00  0.00    +0.000 A 
ATOM      8  N   UNL     1       1.688   5.029  20.825  0.00  0.00    +0.000 NA
ATOM      9  C   UNL     1       2.691   4.216  20.463  0.00  0.00    +0.000 A 
ATOM     10  N   UNL     1       2.716   2.958  21.017  0.00  0.00    +0.000 N 
ATOM     11  C   UNL     1       3.723   1.986  20.639  0.00  0.00    +0.000 C 
ATOM     12  C   UNL     1       1.778   2.582  22.059  0.00  0.00    +0.000 C 
ATOM     13  N   UNL     1       3.651   4.603  19.592  0.00  0.00    +0.000 NA
ATOM     14  C   UNL     1       5.777   5.435  17.898  0.00  0.00    +0.000 C 
ENDROOT
BRANCH   1  15
ATOM     15  C   UNL     1       6.837   4.794  15.704  0.00  0.00    +0.000 C 
ATOM     16  O   UNL     1       7.714   4.885  14.848  0.00  0.00    +0.000 OA
BRANCH  15  17
ATOM     17  O   UNL     1       6.289   3.595  15.988  0.00  0.00    +0.000 OA
ATOM     18  H   UNL     1       6.639   3.197  16.814  0.00  0.00    +0.000 HD
ENDBRANCH  15  17
ENDBRANCH   1  15
BRANCH   1  19
ATOM     19  C   UNL     1       7.468   6.994  16.791  0.00  0.00    +0.000 C 
BRANCH  19  21
ATOM     20  C   UNL     1       8.410   8.222  18.606  0.00  0.00    +0.000 C 
ATOM     21  O   UNL     1       7.794   7.005  18.195  0.00  0.00    +0.000 OA
ENDBRANCH  19  21
ENDBRANCH   1  19
TORSDOF 4
ENDMDL
MODEL 8
REMARK VINA RESULT:      -6.1      1.259      1.525
REMARK  Name = 
REMARK  7 active torsions:
REMARK  status: ('A' for Active; 'I' for Inactive)
REMARK    1  A    between atoms: C_1  and  O_2
REMARK    2  A    between atoms: O_2  and  C_3
REMARK    3  A    between atoms: C_3  and  C_4
REMARK    4  A    between atoms: C_4  and  C_5
REMARK    5  A    between atoms: C_5  and  O_7
REMARK    6  A    between atoms: N_16  and  C_17
REMARK    7  A    between atoms: N_16  and  C_18
REMARK                            x       y       z     vdW  Elec       q    Type
REMARK                         _______ _______ _______ _____ _____    ______ ____
ROOT
ATOM      1  C   UNL     1       2.784   5.108  19.458  0.00  0.00    +0.000 C 
ATOM      2  C   UNL     1       2.241   5.344  18.041  0.00  0.00    +0.000 C 
ATOM      3  C   UNL     1       2.513   6.825  17.788  0.00  0.00    +0.000 C 
ATOM      4  N   UNL     1       2.362   7.440  19.098  0.00  0.00    +0.000 N 
ATOM      5  C   UNL     1       1.700   8.645  19.286  0.00  0.00    +0.000 A 
ATOM      6  C   UNL     1       1.753   9.614  18.305  0.00  0.00    +0.000 A 
ATOM      7  C   UNL     1       1.127  10.806  18.565  0.00  0.00    +0.000 A 
ATOM      8  N   UNL     1       0.467  11.056  19.699  0.00  0.00    +0.000 NA
ATOM      9  C   UNL     1       0.432  10.087  20.625  0.00  0.00    +0.000 A 
ATOM     10  N   UNL     1      -0.259  10.348  21.786  0.00  0.00    +0.000 N 
ATOM     11  C   UNL     1      -0.408   9.342  22.818  0.00  0.00    +0.000 C 
ATOM     12  C   UNL     1      -0.800  11.668  22.052  0.00  0.00    +0.000 C 
ATOM     13  N   UNL     1       1.048   8.898  20.444  0.00  0.00    +0.000 NA
ATOM     14  C   UNL     1       2.469   6.451  20.174  0.00  0.00    +0.000 C 
ENDROOT
BRANCH   1  15
ATOM     15  C   UNL     1       2.019   3.972  20.133  0.00  0.00    +0.000 C 
ATOM     16  O   UNL     1       0.865   4.068  20.543  0.00  0.00    +0.000 OA
BRANCH  15  17
ATOM     17  O   UNL     1       2.670   2.794  20.210  0.00  0.00    +0.000 OA
ATOM     18  H   UNL     1       3.281   2.641  19.457  0.00  0.00    +0.000 HD
ENDBRANCH  15  17
ENDBRANCH   1  15
BRANCH   1  19
ATOM     19  C   UNL     1       4.301   4.830  19.444  0.00  0.00    +0.000 C 
BRANCH  19  21
ATOM     20  C   UNL     1       5.795   4.495  17.615  0.00  0.00    +0.000 C 
ATOM     21  O   UNL     1       4.616   4.045  18.277  0.00  0.00    +0.000 OA
ENDBRANCH  19  21
ENDBRANCH   1  19
TORSDOF 4
ENDMDL
MODEL 9
REMARK VINA RESULT:      -6.1      3.697      6.654
REMARK  Name = 
REMARK  7 active torsions:
REMARK  status: ('A' for Active; 'I' for Inactive)
REMARK    1  A    between atoms: C_1  and  O_2
REMARK    2  A    between atoms: O_2  and  C_3
REMARK    3  A    between atoms: C_3  and  C_4
REMARK    4  A    between atoms: C_4  and  C_5
REMARK    5  A    between atoms: C_5  and  O_7
REMARK    6  A    between atoms: N_16  and  C_17
REMARK    7  A    between atoms: N_16  and  C_18
REMARK                            x       y       z     vdW  Elec       q    Type
REMARK                         _______ _______ _______ _____ _____    ______ ____
ROOT
ATOM      1  C   UNL     1       2.692   3.652  18.707  0.00  0.00    +0.000 C 
ATOM      2  C   UNL     1       3.930   3.290  19.539  0.00  0.00    +0.000 C 
ATOM      3  C   UNL     1       4.971   4.324  19.117  0.00  0.00    +0.000 C 
ATOM      4  N   UNL     1       4.670   4.574  17.715  0.00  0.00    +0.000 N 
ATOM      5  C   UNL     1       5.658   4.691  16.749  0.00  0.00    +0.000 A 
ATOM      6  C   UNL     1       6.879   5.241  17.083  0.00  0.00    +0.000 A 
ATOM      7  C   UNL     1       7.800   5.383  16.077  0.00  0.00    +0.000 A 
ATOM      8  N   UNL     1       7.575   5.002  14.816  0.00  0.00    +0.000 NA
ATOM      9  C   UNL     1       6.380   4.465  14.533  0.00  0.00    +0.000 A 
ATOM     10  N   UNL     1       6.159   4.064  13.235  0.00  0.00    +0.000 N 
ATOM     11  C   UNL     1       4.923   3.415  12.845  0.00  0.00    +0.000 C 
ATOM     12  C   UNL     1       7.127   4.348  12.191  0.00  0.00    +0.000 C 
ATOM     13  N   UNL     1       5.417   4.319  15.470  0.00  0.00    +0.000 NA
ATOM     14  C   UNL     1       3.310   4.149  17.371  0.00  0.00    +0.000 C 
ENDROOT
BRANCH   1  15
ATOM     15  C   UNL     1       1.845   2.407  18.452  0.00  0.00    +0.000 C 
ATOM     16  O   UNL     1       0.617   2.389  18.491  0.00  0.00    +0.000 OA
BRANCH  15  17
ATOM     17  O   UNL     1       2.528   1.296  18.110  0.00  0.00    +0.000 OA
ATOM     18  H   UNL     1       2.001   0.671  17.566  0.00  0.00    +0.000 HD
ENDBRANCH  15  17
ENDBRANCH   1  15
BRANCH   1  19
ATOM     19  C   UNL     1       1.862   4.764  19.381  0.00  0.00    +0.000 C 
BRANCH  19  21
ATOM     20  C   UNL     1       2.282   7.108  19.520  0.00  0.00    +0.000 C 
ATOM     21  O   UNL     1       2.065   5.994  18.658  0.00  0.00    +0.000 OA
ENDBRANCH  19  21
ENDBRANCH   1  19
TORSDOF 4
ENDMDL
