MODEL 1
REMARK VINA RESULT:      -7.1      0.000      0.000
REMARK  Name = 
REMARK  15 active torsions:
REMARK  status: ('A' for Active; 'I' for Inactive)
REMARK    1  A    between atoms: C_1  and  C_2
REMARK    2  A    between atoms: C_2  and  C_21
REMARK    3  A    between atoms: C_3  and  C_4
REMARK    4  A    between atoms: C_7  and  C_8
REMARK    5  A    between atoms: C_8  and  O_10
REMARK    6  A    between atoms: O_10  and  C_11
REMARK    7  A    between atoms: C_14  and  C_15
REMARK    8  A    between atoms: N_23  and  C_24
REMARK    9  A    between atoms: N_23  and  C_28
REMARK   10  A    between atoms: C_24  and  C_25
REMARK   11  A    between atoms: C_25  and  C_26
REMARK   12  A    between atoms: C_26  and  O_27
REMARK   13  A    between atoms: C_28  and  C_29
REMARK   14  A    between atoms: C_29  and  S_30
REMARK   15  A    between atoms: S_30  and  O_33
REMARK                            x       y       z     vdW  Elec       q    Type
REMARK                         _______ _______ _______ _____ _____    ______ ____
ROOT
ATOM      1  C   UNL     1       1.288   9.579  18.028  0.00  0.00    +0.000 A 
ATOM      2  C   UNL     1      -0.088   9.686  18.129  0.00  0.00    +0.000 A 
ATOM      3  C   UNL     1      -0.503  10.907  18.745  0.00  0.00    +0.000 A 
ATOM      4  C   UNL     1       0.563  11.724  19.077  0.00  0.00    +0.000 A 
ATOM      5  S   UNL     1       2.042  11.041  18.551  0.00  0.00    +0.000 S 
ENDROOT
BRANCH   1   8
ATOM      6  C   UNL     1       2.041   7.551  19.952  0.00  0.00    +0.000 C 
ATOM      7  C   UNL     1       2.542   7.567  18.509  0.00  0.00    +0.000 C 
ATOM      8  C   UNL     1       2.095   8.471  17.614  0.00  0.00    +0.000 C 
BRANCH   7   9
ATOM      9  C   UNL     1       3.492   6.402  18.297  0.00  0.00    +0.000 C 
ATOM     10  O   UNL     1       4.696   6.692  18.379  0.00  0.00    +0.000 OA
ATOM     11  N   UNL     1       3.153   5.097  17.968  0.00  0.00    +0.000 N 
BRANCH  11  12
ATOM     12  C   UNL     1       1.832   4.474  17.786  0.00  0.00    +0.000 C 
BRANCH  12  13
ATOM     13  C   UNL     1       1.295   3.534  18.875  0.00  0.00    +0.000 C 
BRANCH  13  14
ATOM     14  C   UNL     1       1.062   4.128  20.257  0.00  0.00    +0.000 C 
BRANCH  14  15
ATOM     15  O   UNL     1       2.244   4.132  21.037  0.00  0.00    +0.000 OA
ATOM     16  H   UNL     1       2.995   4.310  20.445  0.00  0.00    +0.000 HD
ENDBRANCH  14  15
ENDBRANCH  13  14
ENDBRANCH  12  13
ENDBRANCH  11  12
BRANCH  11  17
ATOM     17  C   UNL     1       4.322   4.200  17.729  0.00  0.00    +0.000 C 
BRANCH  17  18
ATOM     18  C   UNL     1       4.651   4.012  16.248  0.00  0.00    +0.000 C 
BRANCH  18  19
ATOM     19  S   UNL     1       6.290   4.581  15.850  0.00  0.00    +0.000 S 
ATOM     20  O   UNL     1       7.135   4.425  17.011  0.00  0.00    +0.000 OA
ATOM     21  O   UNL     1       6.674   4.081  14.548  0.00  0.00    +0.000 OA
BRANCH  19  22
ATOM     22  O   UNL     1       5.991   6.160  15.730  0.00  0.00    +0.000 OA
ATOM     23  H   UNL     1       5.233   6.290  15.120  0.00  0.00    +0.000 HD
ENDBRANCH  19  22
ENDBRANCH  18  19
ENDBRANCH  17  18
ENDBRANCH  11  17
ENDBRANCH   7   9
ENDBRANCH   1   8
BRANCH   4  24
ATOM     24  C   UNL     1       0.570  12.970  19.826  0.00  0.00    +0.000 C 
ATOM     25  O   UNL     1       0.479  14.109  19.371  0.00  0.00    +0.000 OA
BRANCH  24  26
ATOM     26  O   UNL     1       0.759  12.686  21.179  0.00  0.00    +0.000 OA
BRANCH  26  27
ATOM     27  C   UNL     1      -0.353  12.665  22.045  0.00  0.00    +0.000 A 
ATOM     28  C   UNL     1      -0.990  11.498  22.455  0.00  0.00    +0.000 A 
ATOM     29  C   UNL     1      -2.168  11.575  23.207  0.00  0.00    +0.000 A 
ATOM     30  C   UNL     1      -2.723  12.816  23.545  0.00  0.00    +0.000 A 
ATOM     31  C   UNL     1      -2.076  13.984  23.112  0.00  0.00    +0.000 A 
ATOM     32  C   UNL     1      -0.890  13.910  22.371  0.00  0.00    +0.000 A 
BRANCH  30  33
ATOM     33  C   UNL     1      -3.989  12.911  24.342  0.00  0.00    +0.000 C 
ATOM     34  N   UNL     1      -4.610  11.894  24.855  0.00  0.00    +0.000 NA
ATOM     35  N   UNL     1      -4.580  14.113  24.596  0.00  0.00    +0.000 N 
ATOM     36  H   UNL     1      -4.155  11.005  24.657  0.00  0.00    +0.000 HD
ATOM     37  H   UNL     1      -3.961  14.875  24.840  0.00  0.00    +0.000 HD
ATOM     38  H   UNL     1      -5.311  13.993  25.293  0.00  0.00    +0.000 HD
ENDBRANCH  30  33
ENDBRANCH  26  27
ENDBRANCH  24  26
ENDBRANCH   4  24
TORSDOF 14
ENDMDL
MODEL 2
REMARK VINA RESULT:      -7.1      2.969     10.547
REMARK  Name = 
REMARK  15 active torsions:
REMARK  status: ('A' for Active; 'I' for Inactive)
REMARK    1  A    between atoms: C_1  and  C_2
REMARK    2  A    between atoms: C_2  and  C_21
REMARK    3  A    between atoms: C_3  and  C_4
REMARK    4  A    between atoms: C_7  and  C_8
REMARK    5  A    between atoms: C_8  and  O_10
REMARK    6  A    between atoms: O_10  and  C_11
REMARK    7  A    between atoms: C_14  and  C_15
REMARK    8  A    between atoms: N_23  and  C_24
REMARK    9  A    between atoms: N_23  and  C_28
REMARK   10  A    between atoms: C_24  and  C_25
REMARK   11  A    between atoms: C_25  and  C_26
REMARK   12  A    between atoms: C_26  and  O_27
REMARK   13  A    between atoms: C_28  and  C_29
REMARK   14  A    between atoms: C_29  and  S_30
REMARK   15  A    between atoms: S_30  and  O_33
REMARK                            x       y       z     vdW  Elec       q    Type
REMARK                         _______ _______ _______ _____ _____    ______ ____
ROOT
ATOM      1  C   UNL     1       1.396   9.250  19.325  0.00  0.00    +0.000 A 
ATOM      2  C   UNL     1       1.829   8.867  18.069  0.00  0.00    +0.000 A 
ATOM      3  C   UNL     1       2.399   7.556  18.058  0.00  0.00    +0.000 A 
ATOM      4  C   UNL     1       2.364   6.949  19.301  0.00  0.00    +0.000 A 
ATOM      5  S   UNL     1       1.554   7.940  20.439  0.00  0.00    +0.000 S 
ENDROOT
BRANCH   1   8
ATOM      6  C   UNL     1      -1.290  10.087  18.644  0.00  0.00    +0.000 C 
ATOM      7  C   UNL     1      -0.300  10.973  19.397  0.00  0.00    +0.000 C 
ATOM      8  C   UNL     1       0.909  10.516  19.782  0.00  0.00    +0.000 C 
BRANCH   7   9
ATOM      9  C   UNL     1      -0.944  12.320  19.670  0.00  0.00    +0.000 C 
ATOM     10  O   UNL     1      -1.406  12.889  18.668  0.00  0.00    +0.000 OA
ATOM     11  N   UNL     1      -1.006  12.985  20.888  0.00  0.00    +0.000 N 
BRANCH  11  12
ATOM     12  C   UNL     1      -0.534  12.575  22.220  0.00  0.00    +0.000 C 
BRANCH  12  13
ATOM     13  C   UNL     1      -1.358  11.558  23.023  0.00  0.00    +0.000 C 
BRANCH  13  14
ATOM     14  C   UNL     1      -0.898  10.107  22.992  0.00  0.00    +0.000 C 
BRANCH  14  15
ATOM     15  O   UNL     1       0.427   9.962  23.470  0.00  0.00    +0.000 OA
ATOM     16  H   UNL     1       0.408   9.362  24.235  0.00  0.00    +0.000 HD
ENDBRANCH  14  15
ENDBRANCH  13  14
ENDBRANCH  12  13
ENDBRANCH  11  12
BRANCH  11  17
ATOM     17  C   UNL     1      -1.620  14.344  20.815  0.00  0.00    +0.000 C 
BRANCH  17  18
ATOM     18  C   UNL     1      -0.649  15.469  21.170  0.00  0.00    +0.000 C 
BRANCH  18  19
ATOM     19  S   UNL     1       0.346  15.958  19.777  0.00  0.00    +0.000 S 
ATOM     20  O   UNL     1       0.537  17.389  19.817  0.00  0.00    +0.000 OA
ATOM     21  O   UNL     1       1.452  15.038  19.625  0.00  0.00    +0.000 OA
BRANCH  19  22
ATOM     22  O   UNL     1      -0.717  15.687  18.596  0.00  0.00    +0.000 OA
ATOM     23  H   UNL     1      -0.528  16.305  17.856  0.00  0.00    +0.000 HD
ENDBRANCH  19  22
ENDBRANCH  18  19
ENDBRANCH  17  18
ENDBRANCH  11  17
ENDBRANCH   7   9
ENDBRANCH   1   8
BRANCH   4  24
ATOM     24  C   UNL     1       2.952   5.691  19.730  0.00  0.00    +0.000 C 
ATOM     25  O   UNL     1       2.377   4.756  20.284  0.00  0.00    +0.000 OA
BRANCH  24  26
ATOM     26  O   UNL     1       4.322   5.717  19.466  0.00  0.00    +0.000 OA
BRANCH  26  27
ATOM     27  C   UNL     1       4.782   5.440  18.163  0.00  0.00    +0.000 A 
ATOM     28  C   UNL     1       4.312   4.386  17.386  0.00  0.00    +0.000 A 
ATOM     29  C   UNL     1       4.919   4.103  16.157  0.00  0.00    +0.000 A 
ATOM     30  C   UNL     1       6.005   4.862  15.701  0.00  0.00    +0.000 A 
ATOM     31  C   UNL     1       6.476   5.912  16.504  0.00  0.00    +0.000 A 
ATOM     32  C   UNL     1       5.862   6.207  17.727  0.00  0.00    +0.000 A 
BRANCH  30  33
ATOM     33  C   UNL     1       6.669   4.561  14.391  0.00  0.00    +0.000 C 
ATOM     34  N   UNL     1       6.363   3.559  13.627  0.00  0.00    +0.000 NA
ATOM     35  N   UNL     1       7.661   5.357  13.899  0.00  0.00    +0.000 N 
ATOM     36  H   UNL     1       5.621   2.976  14.009  0.00  0.00    +0.000 HD
ATOM     37  H   UNL     1       7.526   6.355  13.997  0.00  0.00    +0.000 HD
ATOM     38  H   UNL     1       7.854   5.103  12.933  0.00  0.00    +0.000 HD
ENDBRANCH  30  33
ENDBRANCH  26  27
ENDBRANCH  24  26
ENDBRANCH   4  24
TORSDOF 14
ENDMDL
MODEL 3
REMARK VINA RESULT:      -7.1      2.995     10.545
REMARK  Name = 
REMARK  15 active torsions:
REMARK  status: ('A' for Active; 'I' for Inactive)
REMARK    1  A    between atoms: C_1  and  C_2
REMARK    2  A    between atoms: C_2  and  C_21
REMARK    3  A    between atoms: C_3  and  C_4
REMARK    4  A    between atoms: C_7  and  C_8
REMARK    5  A    between atoms: C_8  and  O_10
REMARK    6  A    between atoms: O_10  and  C_11
REMARK    7  A    between atoms: C_14  and  C_15
REMARK    8  A    between atoms: N_23  and  C_24
REMARK    9  A    between atoms: N_23  and  C_28
REMARK   10  A    between atoms: C_24  and  C_25
REMARK   11  A    between atoms: C_25  and  C_26
REMARK   12  A    between atoms: C_26  and  O_27
REMARK   13  A    between atoms: C_28  and  C_29
REMARK   14  A    between atoms: C_29  and  S_30
REMARK   15  A    between atoms: S_30  and  O_33
REMARK                            x       y       z     vdW  Elec       q    Type
REMARK                         _______ _______ _______ _____ _____    ______ ____
ROOT
ATOM      1  C   UNL     1       1.517   9.191  19.190  0.00  0.00    +0.000 A 
ATOM      2  C   UNL     1       1.946   8.782  17.940  0.00  0.00    +0.000 A 
ATOM      3  C   UNL     1       2.452   7.445  17.940  0.00  0.00    +0.000 A 
ATOM      4  C   UNL     1       2.372   6.845  19.184  0.00  0.00    +0.000 A 
ATOM      5  S   UNL     1       1.599   7.879  20.310  0.00  0.00    +0.000 S 
ENDROOT
BRANCH   1   8
ATOM      6  C   UNL     1      -1.230  10.007  18.790  0.00  0.00    +0.000 C 
ATOM      7  C   UNL     1      -0.159  10.925  19.376  0.00  0.00    +0.000 C 
ATOM      8  C   UNL     1       1.087  10.481  19.637  0.00  0.00    +0.000 C 
BRANCH   7   9
ATOM      9  C   UNL     1      -0.766  12.287  19.655  0.00  0.00    +0.000 C 
ATOM     10  O   UNL     1      -1.177  12.889  18.650  0.00  0.00    +0.000 OA
ATOM     11  N   UNL     1      -0.845  12.931  20.883  0.00  0.00    +0.000 N 
BRANCH  11  12
ATOM     12  C   UNL     1      -0.429  12.481  22.220  0.00  0.00    +0.000 C 
BRANCH  12  13
ATOM     13  C   UNL     1      -1.266  11.415  22.942  0.00  0.00    +0.000 C 
BRANCH  13  14
ATOM     14  C   UNL     1      -0.754   9.982  22.905  0.00  0.00    +0.000 C 
BRANCH  14  15
ATOM     15  O   UNL     1       0.323   9.782  23.803  0.00  0.00    +0.000 OA
ATOM     16  H   UNL     1       0.912  10.554  23.745  0.00  0.00    +0.000 HD
ENDBRANCH  14  15
ENDBRANCH  13  14
ENDBRANCH  12  13
ENDBRANCH  11  12
BRANCH  11  17
ATOM     17  C   UNL     1      -1.412  14.311  20.817  0.00  0.00    +0.000 C 
BRANCH  17  18
ATOM     18  C   UNL     1      -0.386  15.404  21.116  0.00  0.00    +0.000 C 
BRANCH  18  19
ATOM     19  S   UNL     1       0.386  16.019  19.634  0.00  0.00    +0.000 S 
ATOM     20  O   UNL     1       0.738  17.406  19.831  0.00  0.00    +0.000 OA
ATOM     21  O   UNL     1       1.337  15.046  19.143  0.00  0.00    +0.000 OA
BRANCH  19  22
ATOM     22  O   UNL     1      -0.898  16.023  18.660  0.00  0.00    +0.000 OA
ATOM     23  H   UNL     1      -1.540  16.689  18.991  0.00  0.00    +0.000 HD
ENDBRANCH  19  22
ENDBRANCH  18  19
ENDBRANCH  17  18
ENDBRANCH  11  17
ENDBRANCH   7   9
ENDBRANCH   1   8
BRANCH   4  24
ATOM     24  C   UNL     1       2.894   5.562  19.625  0.00  0.00    +0.000 C 
ATOM     25  O   UNL     1       2.243   4.580  19.979  0.00  0.00    +0.000 OA
BRANCH  24  26
ATOM     26  O   UNL     1       4.287   5.619  19.642  0.00  0.00    +0.000 OA
BRANCH  26  27
ATOM     27  C   UNL     1       5.007   5.366  18.456  0.00  0.00    +0.000 A 
ATOM     28  C   UNL     1       6.074   6.145  18.020  0.00  0.00    +0.000 A 
ATOM     29  C   UNL     1       6.644   5.904  16.765  0.00  0.00    +0.000 A 
ATOM     30  C   UNL     1       6.148   4.891  15.934  0.00  0.00    +0.000 A 
ATOM     31  C   UNL     1       5.061   4.124  16.383  0.00  0.00    +0.000 A 
ATOM     32  C   UNL     1       4.497   4.354  17.644  0.00  0.00    +0.000 A 
BRANCH  30  33
ATOM     33  C   UNL     1       6.745   4.630  14.584  0.00  0.00    +0.000 C 
ATOM     34  N   UNL     1       7.713   5.318  14.065  0.00  0.00    +0.000 NA
ATOM     35  N   UNL     1       6.300   3.609  13.796  0.00  0.00    +0.000 N 
ATOM     36  H   UNL     1       8.033   6.075  14.666  0.00  0.00    +0.000 HD
ATOM     37  H   UNL     1       6.106   2.733  14.264  0.00  0.00    +0.000 HD
ATOM     38  H   UNL     1       6.938   3.478  13.015  0.00  0.00    +0.000 HD
ENDBRANCH  30  33
ENDBRANCH  26  27
ENDBRANCH  24  26
ENDBRANCH   4  24
TORSDOF 14
ENDMDL
MODEL 4
REMARK VINA RESULT:      -7.0      2.893      3.508
REMARK  Name = 
REMARK  15 active torsions:
REMARK  status: ('A' for Active; 'I' for Inactive)
REMARK    1  A    between atoms: C_1  and  C_2
REMARK    2  A    between atoms: C_2  and  C_21
REMARK    3  A    between atoms: C_3  and  C_4
REMARK    4  A    between atoms: C_7  and  C_8
REMARK    5  A    between atoms: C_8  and  O_10
REMARK    6  A    between atoms: O_10  and  C_11
REMARK    7  A    between atoms: C_14  and  C_15
REMARK    8  A    between atoms: N_23  and  C_24
REMARK    9  A    between atoms: N_23  and  C_28
REMARK   10  A    between atoms: C_24  and  C_25
REMARK   11  A    between atoms: C_25  and  C_26
REMARK   12  A    between atoms: C_26  and  O_27
REMARK   13  A    between atoms: C_28  and  C_29
REMARK   14  A    between atoms: C_29  and  S_30
REMARK   15  A    between atoms: S_30  and  O_33
REMARK                            x       y       z     vdW  Elec       q    Type
REMARK                         _______ _______ _______ _____ _____    ______ ____
ROOT
ATOM      1  C   UNL     1       1.353   8.429  19.910  0.00  0.00    +0.000 A 
ATOM      2  C   UNL     1       0.605   8.070  21.017  0.00  0.00    +0.000 A 
ATOM      3  C   UNL     1      -0.139   9.164  21.558  0.00  0.00    +0.000 A 
ATOM      4  C   UNL     1       0.031  10.332  20.837  0.00  0.00    +0.000 A 
ATOM      5  S   UNL     1       1.012  10.061  19.461  0.00  0.00    +0.000 S 
ENDROOT
BRANCH   1   8
ATOM      6  C   UNL     1       1.929   5.696  20.670  0.00  0.00    +0.000 C 
ATOM      7  C   UNL     1       2.686   6.439  19.570  0.00  0.00    +0.000 C 
ATOM      8  C   UNL     1       2.327   7.678  19.178  0.00  0.00    +0.000 C 
BRANCH   7   9
ATOM      9  C   UNL     1       3.768   5.535  19.010  0.00  0.00    +0.000 C 
ATOM     10  O   UNL     1       4.912   5.772  19.428  0.00  0.00    +0.000 OA
ATOM     11  N   UNL     1       3.612   4.539  18.055  0.00  0.00    +0.000 N 
BRANCH  11  12
ATOM     12  C   UNL     1       2.401   4.056  17.374  0.00  0.00    +0.000 C 
BRANCH  12  13
ATOM     13  C   UNL     1       1.329   3.320  18.191  0.00  0.00    +0.000 C 
BRANCH  13  14
ATOM     14  C   UNL     1       1.803   2.236  19.148  0.00  0.00    +0.000 C 
BRANCH  14  15
ATOM     15  O   UNL     1       2.672   1.314  18.515  0.00  0.00    +0.000 OA
ATOM     16  H   UNL     1       3.379   1.818  18.076  0.00  0.00    +0.000 HD
ENDBRANCH  14  15
ENDBRANCH  13  14
ENDBRANCH  12  13
ENDBRANCH  11  12
BRANCH  11  17
ATOM     17  C   UNL     1       4.888   3.887  17.634  0.00  0.00    +0.000 C 
BRANCH  17  18
ATOM     18  C   UNL     1       5.375   4.335  16.257  0.00  0.00    +0.000 C 
BRANCH  18  19
ATOM     19  S   UNL     1       6.917   5.219  16.348  0.00  0.00    +0.000 S 
ATOM     20  O   UNL     1       6.647   6.599  16.676  0.00  0.00    +0.000 OA
ATOM     21  O   UNL     1       7.885   4.430  17.078  0.00  0.00    +0.000 OA
BRANCH  19  22
ATOM     22  O   UNL     1       7.312   5.207  14.786  0.00  0.00    +0.000 OA
ATOM     23  H   UNL     1       6.510   4.992  14.261  0.00  0.00    +0.000 HD
ENDBRANCH  19  22
ENDBRANCH  18  19
ENDBRANCH  17  18
ENDBRANCH  11  17
ENDBRANCH   7   9
ENDBRANCH   1   8
BRANCH   4  24
ATOM     24  C   UNL     1      -0.441  11.675  21.133  0.00  0.00    +0.000 C 
ATOM     25  O   UNL     1      -0.512  12.209  22.238  0.00  0.00    +0.000 OA
BRANCH  24  26
ATOM     26  O   UNL     1      -0.869  12.277  19.949  0.00  0.00    +0.000 OA
BRANCH  26  27
ATOM     27  C   UNL     1      -2.150  11.976  19.443  0.00  0.00    +0.000 A 
ATOM     28  C   UNL     1      -2.371  11.387  18.201  0.00  0.00    +0.000 A 
ATOM     29  C   UNL     1      -3.677  11.247  17.720  0.00  0.00    +0.000 A 
ATOM     30  C   UNL     1      -4.771  11.702  18.468  0.00  0.00    +0.000 A 
ATOM     31  C   UNL     1      -4.530  12.306  19.712  0.00  0.00    +0.000 A 
ATOM     32  C   UNL     1      -3.225  12.436  20.203  0.00  0.00    +0.000 A 
BRANCH  30  33
ATOM     33  C   UNL     1      -6.173  11.565  17.958  0.00  0.00    +0.000 C 
ATOM     34  N   UNL     1      -6.685  12.293  17.016  0.00  0.00    +0.000 NA
ATOM     35  N   UNL     1      -7.024  10.625  18.462  0.00  0.00    +0.000 N 
ATOM     36  H   UNL     1      -6.037  12.989  16.651  0.00  0.00    +0.000 HD
ATOM     37  H   UNL     1      -6.628   9.710  18.637  0.00  0.00    +0.000 HD
ATOM     38  H   UNL     1      -7.851  10.564  17.874  0.00  0.00    +0.000 HD
ENDBRANCH  30  33
ENDBRANCH  26  27
ENDBRANCH  24  26
ENDBRANCH   4  24
TORSDOF 14
ENDMDL
MODEL 5
REMARK VINA RESULT:      -6.9      2.076      3.389
REMARK  Name = 
REMARK  15 active torsions:
REMARK  status: ('A' for Active; 'I' for Inactive)
REMARK    1  A    between atoms: C_1  and  C_2
REMARK    2  A    between atoms: C_2  and  C_21
REMARK    3  A    between atoms: C_3  and  C_4
REMARK    4  A    between atoms: C_7  and  C_8
REMARK    5  A    between atoms: C_8  and  O_10
REMARK    6  A    between atoms: O_10  and  C_11
REMARK    7  A    between atoms: C_14  and  C_15
REMARK    8  A    between atoms: N_23  and  C_24
REMARK    9  A    between atoms: N_23  and  C_28
REMARK   10  A    between atoms: C_24  and  C_25
REMARK   11  A    between atoms: C_25  and  C_26
REMARK   12  A    between atoms: C_26  and  O_27
REMARK   13  A    between atoms: C_28  and  C_29
REMARK   14  A    between atoms: C_29  and  S_30
REMARK   15  A    between atoms: S_30  and  O_33
REMARK                            x       y       z     vdW  Elec       q    Type
REMARK                         _______ _______ _______ _____ _____    ______ ____
ROOT
ATOM      1  C   UNL     1       1.635  10.024  18.147  0.00  0.00    +0.000 A 
ATOM      2  C   UNL     1       2.423  11.161  18.138  0.00  0.00    +0.000 A 
ATOM      3  C   UNL     1       1.688  12.345  18.455  0.00  0.00    +0.000 A 
ATOM      4  C   UNL     1       0.357  12.088  18.731  0.00  0.00    +0.000 A 
ATOM      5  S   UNL     1       0.042  10.405  18.694  0.00  0.00    +0.000 S 
ENDROOT
BRANCH   1   8
ATOM      6  C   UNL     1       1.912   7.958  20.154  0.00  0.00    +0.000 C 
ATOM      7  C   UNL     1       2.181   7.726  18.668  0.00  0.00    +0.000 C 
ATOM      8  C   UNL     1       1.949   8.686  17.749  0.00  0.00    +0.000 C 
BRANCH   7   9
ATOM      9  C   UNL     1       2.637   6.294  18.460  0.00  0.00    +0.000 C 
ATOM     10  O   UNL     1       1.939   5.438  19.026  0.00  0.00    +0.000 OA
ATOM     11  N   UNL     1       3.763   5.869  17.768  0.00  0.00    +0.000 N 
BRANCH  11  12
ATOM     12  C   UNL     1       4.772   6.641  17.025  0.00  0.00    +0.000 C 
BRANCH  12  13
ATOM     13  C   UNL     1       6.255   6.468  17.383  0.00  0.00    +0.000 C 
BRANCH  13  14
ATOM     14  C   UNL     1       7.093   5.580  16.474  0.00  0.00    +0.000 C 
BRANCH  14  15
ATOM     15  O   UNL     1       7.789   4.584  17.202  0.00  0.00    +0.000 OA
ATOM     16  H   UNL     1       7.387   4.520  18.085  0.00  0.00    +0.000 HD
ENDBRANCH  14  15
ENDBRANCH  13  14
ENDBRANCH  12  13
ENDBRANCH  11  12
BRANCH  11  17
ATOM     17  C   UNL     1       3.998   4.395  17.823  0.00  0.00    +0.000 C 
BRANCH  17  18
ATOM     18  C   UNL     1       4.731   3.943  19.086  0.00  0.00    +0.000 C 
BRANCH  18  19
ATOM     19  S   UNL     1       4.128   2.379  19.686  0.00  0.00    +0.000 S 
ATOM     20  O   UNL     1       5.165   1.747  20.468  0.00  0.00    +0.000 OA
ATOM     21  O   UNL     1       2.779   2.538  20.182  0.00  0.00    +0.000 OA
BRANCH  19  22
ATOM     22  O   UNL     1       4.075   1.574  18.291  0.00  0.00    +0.000 OA
ATOM     23  H   UNL     1       4.979   1.258  18.076  0.00  0.00    +0.000 HD
ENDBRANCH  19  22
ENDBRANCH  18  19
ENDBRANCH  17  18
ENDBRANCH  11  17
ENDBRANCH   7   9
ENDBRANCH   1   8
BRANCH   4  24
ATOM     24  C   UNL     1      -0.734  13.020  18.964  0.00  0.00    +0.000 C 
ATOM     25  O   UNL     1      -0.660  14.246  19.023  0.00  0.00    +0.000 OA
BRANCH  24  26
ATOM     26  O   UNL     1      -1.910  12.300  19.174  0.00  0.00    +0.000 OA
BRANCH  26  27
ATOM     27  C   UNL     1      -2.554  12.374  20.425  0.00  0.00    +0.000 A 
ATOM     28  C   UNL     1      -3.864  12.812  20.595  0.00  0.00    +0.000 A 
ATOM     29  C   UNL     1      -4.380  12.982  21.885  0.00  0.00    +0.000 A 
ATOM     30  C   UNL     1      -3.590  12.726  23.013  0.00  0.00    +0.000 A 
ATOM     31  C   UNL     1      -2.266  12.298  22.825  0.00  0.00    +0.000 A 
ATOM     32  C   UNL     1      -1.751  12.114  21.536  0.00  0.00    +0.000 A 
BRANCH  30  33
ATOM     33  C   UNL     1      -4.129  12.913  24.399  0.00  0.00    +0.000 C 
ATOM     34  N   UNL     1      -3.801  13.888  25.188  0.00  0.00    +0.000 NA
ATOM     35  N   UNL     1      -5.039  12.046  24.931  0.00  0.00    +0.000 N 
ATOM     36  H   UNL     1      -3.122  14.526  24.776  0.00  0.00    +0.000 HD
ATOM     37  H   UNL     1      -5.775  11.735  24.312  0.00  0.00    +0.000 HD
ATOM     38  H   UNL     1      -5.417  12.434  25.791  0.00  0.00    +0.000 HD
ENDBRANCH  30  33
ENDBRANCH  26  27
ENDBRANCH  24  26
ENDBRANCH   4  24
TORSDOF 14
ENDMDL
MODEL 6
REMARK VINA RESULT:      -6.9      2.025      3.350
REMARK  Name = 
REMARK  15 active torsions:
REMARK  status: ('A' for Active; 'I' for Inactive)
REMARK    1  A    between atoms: C_1  and  C_2
REMARK    2  A    between atoms: C_2  and  C_21
REMARK    3  A    between atoms: C_3  and  C_4
REMARK    4  A    between atoms: C_7  and  C_8
REMARK    5  A    between atoms: C_8  and  O_10
REMARK    6  A    between atoms: O_10  and  C_11
REMARK    7  A    between atoms: C_14  and  C_15
REMARK    8  A    between atoms: N_23  and  C_24
REMARK    9  A    between atoms: N_23  and  C_28
REMARK   10  A    between atoms: C_24  and  C_25
REMARK   11  A    between atoms: C_25  and  C_26
REMARK   12  A    between atoms: C_26  and  O_27
REMARK   13  A    between atoms: C_28  and  C_29
REMARK   14  A    between atoms: C_29  and  S_30
REMARK   15  A    between atoms: S_30  and  O_33
REMARK                            x       y       z     vdW  Elec       q    Type
REMARK                         _______ _______ _______ _____ _____    ______ ____
ROOT
ATOM      1  C   UNL     1       1.448   9.683  18.050  0.00  0.00    +0.000 A 
ATOM      2  C   UNL     1       2.332  10.732  18.227  0.00  0.00    +0.000 A 
ATOM      3  C   UNL     1       1.676  11.952  18.583  0.00  0.00    +0.000 A 
ATOM      4  C   UNL     1       0.306  11.804  18.702  0.00  0.00    +0.000 A 
ATOM      5  S   UNL     1      -0.153  10.171  18.474  0.00  0.00    +0.000 S 
ENDROOT
BRANCH   1   8
ATOM      6  C   UNL     1       2.213   7.582  19.889  0.00  0.00    +0.000 C 
ATOM      7  C   UNL     1       2.134   7.386  18.376  0.00  0.00    +0.000 C 
ATOM      8  C   UNL     1       1.681   8.359  17.559  0.00  0.00    +0.000 C 
BRANCH   7   9
ATOM      9  C   UNL     1       2.550   5.968  18.033  0.00  0.00    +0.000 C 
ATOM     10  O   UNL     1       1.738   5.091  18.369  0.00  0.00    +0.000 OA
ATOM     11  N   UNL     1       3.746   5.565  17.453  0.00  0.00    +0.000 N 
BRANCH  11  12
ATOM     12  C   UNL     1       4.887   6.362  16.976  0.00  0.00    +0.000 C 
BRANCH  12  13
ATOM     13  C   UNL     1       6.011   6.718  17.960  0.00  0.00    +0.000 C 
BRANCH  13  14
ATOM     14  C   UNL     1       7.443   6.575  17.465  0.00  0.00    +0.000 C 
BRANCH  14  15
ATOM     15  O   UNL     1       7.502   6.380  16.063  0.00  0.00    +0.000 OA
ATOM     16  H   UNL     1       8.128   5.658  15.885  0.00  0.00    +0.000 HD
ENDBRANCH  14  15
ENDBRANCH  13  14
ENDBRANCH  12  13
ENDBRANCH  11  12
BRANCH  11  17
ATOM     17  C   UNL     1       3.902   4.086  17.332  0.00  0.00    +0.000 C 
BRANCH  17  18
ATOM     18  C   UNL     1       4.847   3.487  18.373  0.00  0.00    +0.000 C 
BRANCH  18  19
ATOM     19  S   UNL     1       3.978   2.505  19.578  0.00  0.00    +0.000 S 
ATOM     20  O   UNL     1       2.988   1.701  18.900  0.00  0.00    +0.000 OA
ATOM     21  O   UNL     1       4.925   1.933  20.510  0.00  0.00    +0.000 OA
BRANCH  19  22
ATOM     22  O   UNL     1       3.161   3.677  20.323  0.00  0.00    +0.000 OA
ATOM     23  H   UNL     1       2.780   4.274  19.643  0.00  0.00    +0.000 HD
ENDBRANCH  19  22
ENDBRANCH  18  19
ENDBRANCH  17  18
ENDBRANCH  11  17
ENDBRANCH   7   9
ENDBRANCH   1   8
BRANCH   4  24
ATOM     24  C   UNL     1      -0.715  12.817  18.916  0.00  0.00    +0.000 C 
ATOM     25  O   UNL     1      -0.587  14.034  18.801  0.00  0.00    +0.000 OA
BRANCH  24  26
ATOM     26  O   UNL     1      -1.890  12.195  19.341  0.00  0.00    +0.000 OA
BRANCH  26  27
ATOM     27  C   UNL     1      -2.342  12.396  20.661  0.00  0.00    +0.000 A 
ATOM     28  C   UNL     1      -1.572  12.135  21.790  0.00  0.00    +0.000 A 
ATOM     29  C   UNL     1      -2.145  12.236  23.062  0.00  0.00    +0.000 A 
ATOM     30  C   UNL     1      -3.493  12.586  23.217  0.00  0.00    +0.000 A 
ATOM     31  C   UNL     1      -4.260  12.833  22.067  0.00  0.00    +0.000 A 
ATOM     32  C   UNL     1      -3.686  12.747  20.793  0.00  0.00    +0.000 A 
BRANCH  30  33
ATOM     33  C   UNL     1      -4.120  12.688  24.574  0.00  0.00    +0.000 C 
ATOM     34  N   UNL     1      -5.059  11.906  25.008  0.00  0.00    +0.000 NA
ATOM     35  N   UNL     1      -3.719  13.632  25.473  0.00  0.00    +0.000 N 
ATOM     36  H   UNL     1      -5.346  11.207  24.325  0.00  0.00    +0.000 HD
ATOM     37  H   UNL     1      -2.723  13.794  25.539  0.00  0.00    +0.000 HD
ATOM     38  H   UNL     1      -4.123  13.429  26.384  0.00  0.00    +0.000 HD
ENDBRANCH  30  33
ENDBRANCH  26  27
ENDBRANCH  24  26
ENDBRANCH   4  24
TORSDOF 14
ENDMDL
MODEL 7
REMARK VINA RESULT:      -6.9      0.726      1.118
REMARK  Name = 
REMARK  15 active torsions:
REMARK  status: ('A' for Active; 'I' for Inactive)
REMARK    1  A    between atoms: C_1  and  C_2
REMARK    2  A    between atoms: C_2  and  C_21
REMARK    3  A    between atoms: C_3  and  C_4
REMARK    4  A    between atoms: C_7  and  C_8
REMARK    5  A    between atoms: C_8  and  O_10
REMARK    6  A    between atoms: O_10  and  C_11
REMARK    7  A    between atoms: C_14  and  C_15
REMARK    8  A    between atoms: N_23  and  C_24
REMARK    9  A    between atoms: N_23  and  C_28
REMARK   10  A    between atoms: C_24  and  C_25
REMARK   11  A    between atoms: C_25  and  C_26
REMARK   12  A    between atoms: C_26  and  O_27
REMARK   13  A    between atoms: C_28  and  C_29
REMARK   14  A    between atoms: C_29  and  S_30
REMARK   15  A    between atoms: S_30  and  O_33
REMARK                            x       y       z     vdW  Elec       q    Type
REMARK                         _______ _______ _______ _____ _____    ______ ____
ROOT
ATOM      1  C   UNL     1       1.190   9.505  17.977  0.00  0.00    +0.000 A 
ATOM      2  C   UNL     1      -0.190   9.579  17.946  0.00  0.00    +0.000 A 
ATOM      3  C   UNL     1      -0.690  10.798  18.499  0.00  0.00    +0.000 A 
ATOM      4  C   UNL     1       0.319  11.648  18.916  0.00  0.00    +0.000 A 
ATOM      5  S   UNL     1       1.857  10.994  18.541  0.00  0.00    +0.000 S 
ENDROOT
BRANCH   1   8
ATOM      6  C   UNL     1       1.898   7.589  20.027  0.00  0.00    +0.000 C 
ATOM      7  C   UNL     1       2.483   7.563  18.616  0.00  0.00    +0.000 C 
ATOM      8  C   UNL     1       2.059   8.413  17.659  0.00  0.00    +0.000 C 
BRANCH   7   9
ATOM      9  C   UNL     1       3.484   6.428  18.511  0.00  0.00    +0.000 C 
ATOM     10  O   UNL     1       4.655   6.739  18.782  0.00  0.00    +0.000 OA
ATOM     11  N   UNL     1       3.232   5.128  18.093  0.00  0.00    +0.000 N 
BRANCH  11  12
ATOM     12  C   UNL     1       1.970   4.485  17.696  0.00  0.00    +0.000 C 
BRANCH  12  13
ATOM     13  C   UNL     1       1.300   3.496  18.661  0.00  0.00    +0.000 C 
BRANCH  13  14
ATOM     14  C   UNL     1       1.040   3.976  20.082  0.00  0.00    +0.000 C 
BRANCH  14  15
ATOM     15  O   UNL     1       0.796   2.899  20.968  0.00  0.00    +0.000 OA
ATOM     16  H   UNL     1       0.893   3.228  21.878  0.00  0.00    +0.000 HD
ENDBRANCH  14  15
ENDBRANCH  13  14
ENDBRANCH  12  13
ENDBRANCH  11  12
BRANCH  11  17
ATOM     17  C   UNL     1       4.447   4.265  18.003  0.00  0.00    +0.000 C 
BRANCH  17  18
ATOM     18  C   UNL     1       5.089   4.263  16.616  0.00  0.00    +0.000 C 
BRANCH  18  19
ATOM     19  S   UNL     1       6.783   4.811  16.663  0.00  0.00    +0.000 S 
ATOM     20  O   UNL     1       7.348   4.476  17.949  0.00  0.00    +0.000 OA
ATOM     21  O   UNL     1       7.439   4.465  15.421  0.00  0.00    +0.000 OA
BRANCH  19  22
ATOM     22  O   UNL     1       6.535   6.404  16.691  0.00  0.00    +0.000 OA
ATOM     23  H   UNL     1       6.289   6.667  17.604  0.00  0.00    +0.000 HD
ENDBRANCH  19  22
ENDBRANCH  18  19
ENDBRANCH  17  18
ENDBRANCH  11  17
ENDBRANCH   7   9
ENDBRANCH   1   8
BRANCH   4  24
ATOM     24  C   UNL     1       0.227  12.904  19.640  0.00  0.00    +0.000 C 
ATOM     25  O   UNL     1       0.172  14.035  19.159  0.00  0.00    +0.000 OA
BRANCH  24  26
ATOM     26  O   UNL     1       0.268  12.643  21.010  0.00  0.00    +0.000 OA
BRANCH  26  27
ATOM     27  C   UNL     1      -0.865  12.918  21.802  0.00  0.00    +0.000 A 
ATOM     28  C   UNL     1      -0.827  13.682  22.965  0.00  0.00    +0.000 A 
ATOM     29  C   UNL     1      -1.971  13.794  23.762  0.00  0.00    +0.000 A 
ATOM     30  C   UNL     1      -3.157  13.135  23.411  0.00  0.00    +0.000 A 
ATOM     31  C   UNL     1      -3.174  12.356  22.244  0.00  0.00    +0.000 A 
ATOM     32  C   UNL     1      -2.035  12.254  21.436  0.00  0.00    +0.000 A 
BRANCH  30  33
ATOM     33  C   UNL     1      -4.386  13.239  24.263  0.00  0.00    +0.000 C 
ATOM     34  N   UNL     1      -5.081  14.323  24.419  0.00  0.00    +0.000 NA
ATOM     35  N   UNL     1      -4.874  12.160  24.941  0.00  0.00    +0.000 N 
ATOM     36  H   UNL     1      -4.703  15.118  23.906  0.00  0.00    +0.000 HD
ATOM     37  H   UNL     1      -4.871  11.280  24.444  0.00  0.00    +0.000 HD
ATOM     38  H   UNL     1      -5.798  12.377  25.307  0.00  0.00    +0.000 HD
ENDBRANCH  30  33
ENDBRANCH  26  27
ENDBRANCH  24  26
ENDBRANCH   4  24
TORSDOF 14
ENDMDL
MODEL 8
REMARK VINA RESULT:      -6.9      2.863      3.681
REMARK  Name = 
REMARK  15 active torsions:
REMARK  status: ('A' for Active; 'I' for Inactive)
REMARK    1  A    between atoms: C_1  and  C_2
REMARK    2  A    between atoms: C_2  and  C_21
REMARK    3  A    between atoms: C_3  and  C_4
REMARK    4  A    between atoms: C_7  and  C_8
REMARK    5  A    between atoms: C_8  and  O_10
REMARK    6  A    between atoms: O_10  and  C_11
REMARK    7  A    between atoms: C_14  and  C_15
REMARK    8  A    between atoms: N_23  and  C_24
REMARK    9  A    between atoms: N_23  and  C_28
REMARK   10  A    between atoms: C_24  and  C_25
REMARK   11  A    between atoms: C_25  and  C_26
REMARK   12  A    between atoms: C_26  and  O_27
REMARK   13  A    between atoms: C_28  and  C_29
REMARK   14  A    between atoms: C_29  and  S_30
REMARK   15  A    between atoms: S_30  and  O_33
REMARK                            x       y       z     vdW  Elec       q    Type
REMARK                         _______ _______ _______ _____ _____    ______ ____
ROOT
ATOM      1  C   UNL     1       1.162   8.479  20.647  0.00  0.00    +0.000 A 
ATOM      2  C   UNL     1       0.073   8.168  21.440  0.00  0.00    +0.000 A 
ATOM      3  C   UNL     1      -0.610   9.328  21.920  0.00  0.00    +0.000 A 
ATOM      4  C   UNL     1      -0.048  10.505  21.460  0.00  0.00    +0.000 A 
ATOM      5  S   UNL     1       1.239  10.183  20.378  0.00  0.00    +0.000 S 
ENDROOT
BRANCH   1   8
ATOM      6  C   UNL     1       1.685   8.510  17.801  0.00  0.00    +0.000 C 
ATOM      7  C   UNL     1       2.371   7.549  18.770  0.00  0.00    +0.000 C 
ATOM      8  C   UNL     1       2.175   7.627  20.102  0.00  0.00    +0.000 C 
BRANCH   7   9
ATOM      9  C   UNL     1       3.299   6.633  17.993  0.00  0.00    +0.000 C 
ATOM     10  O   UNL     1       4.109   7.217  17.256  0.00  0.00    +0.000 OA
ATOM     11  N   UNL     1       3.285   5.244  17.982  0.00  0.00    +0.000 N 
BRANCH  11  12
ATOM     12  C   UNL     1       2.441   4.296  18.725  0.00  0.00    +0.000 C 
BRANCH  12  13
ATOM     13  C   UNL     1       3.022   3.587  19.957  0.00  0.00    +0.000 C 
BRANCH  13  14
ATOM     14  C   UNL     1       3.633   2.209  19.745  0.00  0.00    +0.000 C 
BRANCH  14  15
ATOM     15  O   UNL     1       5.010   2.185  20.073  0.00  0.00    +0.000 OA
ATOM     16  H   UNL     1       5.119   1.657  20.883  0.00  0.00    +0.000 HD
ENDBRANCH  14  15
ENDBRANCH  13  14
ENDBRANCH  12  13
ENDBRANCH  11  12
BRANCH  11  17
ATOM     17  C   UNL     1       4.264   4.628  17.037  0.00  0.00    +0.000 C 
BRANCH  17  18
ATOM     18  C   UNL     1       5.663   4.465  17.631  0.00  0.00    +0.000 C 
BRANCH  18  19
ATOM     19  S   UNL     1       6.934   4.593  16.392  0.00  0.00    +0.000 S 
ATOM     20  O   UNL     1       8.202   4.232  16.982  0.00  0.00    +0.000 OA
ATOM     21  O   UNL     1       6.467   4.003  15.156  0.00  0.00    +0.000 OA
BRANCH  19  22
ATOM     22  O   UNL     1       6.966   6.195  16.221  0.00  0.00    +0.000 OA
ATOM     23  H   UNL     1       7.074   6.407  15.268  0.00  0.00    +0.000 HD
ENDBRANCH  19  22
ENDBRANCH  18  19
ENDBRANCH  17  18
ENDBRANCH  11  17
ENDBRANCH   7   9
ENDBRANCH   1   8
BRANCH   4  24
ATOM     24  C   UNL     1      -0.362  11.879  21.818  0.00  0.00    +0.000 C 
ATOM     25  O   UNL     1      -0.561  12.323  22.948  0.00  0.00    +0.000 OA
BRANCH  24  26
ATOM     26  O   UNL     1      -0.464  12.640  20.653  0.00  0.00    +0.000 OA
BRANCH  26  27
ATOM     27  C   UNL     1      -1.545  12.422  19.775  0.00  0.00    +0.000 A 
ATOM     28  C   UNL     1      -2.878  12.426  20.175  0.00  0.00    +0.000 A 
ATOM     29  C   UNL     1      -3.878  12.068  19.265  0.00  0.00    +0.000 A 
ATOM     30  C   UNL     1      -3.556  11.692  17.954  0.00  0.00    +0.000 A 
ATOM     31  C   UNL     1      -2.205  11.679  17.571  0.00  0.00    +0.000 A 
ATOM     32  C   UNL     1      -1.203  12.050  18.475  0.00  0.00    +0.000 A 
BRANCH  30  33
ATOM     33  C   UNL     1      -4.619  11.297  16.974  0.00  0.00    +0.000 C 
ATOM     34  N   UNL     1      -4.393  10.673  15.860  0.00  0.00    +0.000 NA
ATOM     35  N   UNL     1      -5.935  11.567  17.207  0.00  0.00    +0.000 N 
ATOM     36  H   UNL     1      -3.406  10.479  15.702  0.00  0.00    +0.000 HD
ATOM     37  H   UNL     1      -6.263  11.417  18.152  0.00  0.00    +0.000 HD
ATOM     38  H   UNL     1      -6.510  11.068  16.532  0.00  0.00    +0.000 HD
ENDBRANCH  30  33
ENDBRANCH  26  27
ENDBRANCH  24  26
ENDBRANCH   4  24
TORSDOF 14
ENDMDL
MODEL 9
REMARK VINA RESULT:      -6.8      2.687      3.229
REMARK  Name = 
REMARK  15 active torsions:
REMARK  status: ('A' for Active; 'I' for Inactive)
REMARK    1  A    between atoms: C_1  and  C_2
REMARK    2  A    between atoms: C_2  and  C_21
REMARK    3  A    between atoms: C_3  and  C_4
REMARK    4  A    between atoms: C_7  and  C_8
REMARK    5  A    between atoms: C_8  and  O_10
REMARK    6  A    between atoms: O_10  and  C_11
REMARK    7  A    between atoms: C_14  and  C_15
REMARK    8  A    between atoms: N_23  and  C_24
REMARK    9  A    between atoms: N_23  and  C_28
REMARK   10  A    between atoms: C_24  and  C_25
REMARK   11  A    between atoms: C_25  and  C_26
REMARK   12  A    between atoms: C_26  and  O_27
REMARK   13  A    between atoms: C_28  and  C_29
REMARK   14  A    between atoms: C_29  and  S_30
REMARK   15  A    between atoms: S_30  and  O_33
REMARK                            x       y       z     vdW  Elec       q    Type
REMARK                         _______ _______ _______ _____ _____    ______ ____
ROOT
ATOM      1  C   UNL     1       1.527   8.203  19.989  0.00  0.00    +0.000 A 
ATOM      2  C   UNL     1       0.864   7.780  21.126  0.00  0.00    +0.000 A 
ATOM      3  C   UNL     1       0.141   8.833  21.767  0.00  0.00    +0.000 A 
ATOM      4  C   UNL     1       0.240  10.036  21.090  0.00  0.00    +0.000 A 
ATOM      5  S   UNL     1       1.129   9.846  19.639  0.00  0.00    +0.000 S 
ENDROOT
BRANCH   1   8
ATOM      6  C   UNL     1       2.299   5.494  20.656  0.00  0.00    +0.000 C 
ATOM      7  C   UNL     1       2.913   6.281  19.499  0.00  0.00    +0.000 C 
ATOM      8  C   UNL     1       2.461   7.505  19.158  0.00  0.00    +0.000 C 
BRANCH   7   9
ATOM      9  C   UNL     1       3.978   5.434  18.827  0.00  0.00    +0.000 C 
ATOM     10  O   UNL     1       5.145   5.732  19.126  0.00  0.00    +0.000 OA
ATOM     11  N   UNL     1       3.777   4.428  17.891  0.00  0.00    +0.000 N 
BRANCH  11  12
ATOM     12  C   UNL     1       2.529   3.879  17.338  0.00  0.00    +0.000 C 
BRANCH  12  13
ATOM     13  C   UNL     1       2.035   2.511  17.829  0.00  0.00    +0.000 C 
BRANCH  13  14
ATOM     14  C   UNL     1       0.991   2.502  18.937  0.00  0.00    +0.000 C 
BRANCH  14  15
ATOM     15  O   UNL     1       1.553   2.160  20.191  0.00  0.00    +0.000 OA
ATOM     16  H   UNL     1       0.955   2.481  20.887  0.00  0.00    +0.000 HD
ENDBRANCH  14  15
ENDBRANCH  13  14
ENDBRANCH  12  13
ENDBRANCH  11  12
BRANCH  11  17
ATOM     17  C   UNL     1       5.035   3.843  17.339  0.00  0.00    +0.000 C 
BRANCH  17  18
ATOM     18  C   UNL     1       5.396   4.376  15.953  0.00  0.00    +0.000 C 
BRANCH  18  19
ATOM     19  S   UNL     1       7.023   5.096  15.916  0.00  0.00    +0.000 S 
ATOM     20  O   UNL     1       7.853   4.428  16.892  0.00  0.00    +0.000 OA
ATOM     21  O   UNL     1       7.443   5.274  14.543  0.00  0.00    +0.000 OA
BRANCH  19  22
ATOM     22  O   UNL     1       6.679   6.540  16.543  0.00  0.00    +0.000 OA
ATOM     23  H   UNL     1       6.457   7.155  15.810  0.00  0.00    +0.000 HD
ENDBRANCH  19  22
ENDBRANCH  18  19
ENDBRANCH  17  18
ENDBRANCH  11  17
ENDBRANCH   7   9
ENDBRANCH   1   8
BRANCH   4  24
ATOM     24  C   UNL     1      -0.232  11.355  21.479  0.00  0.00    +0.000 C 
ATOM     25  O   UNL     1      -0.398  11.775  22.622  0.00  0.00    +0.000 OA
BRANCH  24  26
ATOM     26  O   UNL     1      -0.536  12.085  20.330  0.00  0.00    +0.000 OA
BRANCH  26  27
ATOM     27  C   UNL     1      -1.876  12.187  19.907  0.00  0.00    +0.000 A 
ATOM     28  C   UNL     1      -2.888  12.752  20.678  0.00  0.00    +0.000 A 
ATOM     29  C   UNL     1      -4.215  12.691  20.237  0.00  0.00    +0.000 A 
ATOM     30  C   UNL     1      -4.543  12.058  19.031  0.00  0.00    +0.000 A 
ATOM     31  C   UNL     1      -3.512  11.480  18.273  0.00  0.00    +0.000 A 
ATOM     32  C   UNL     1      -2.182  11.552  18.704  0.00  0.00    +0.000 A 
BRANCH  30  33
ATOM     33  C   UNL     1      -5.962  11.978  18.555  0.00  0.00    +0.000 C 
ATOM     34  N   UNL     1      -6.313  11.666  17.347  0.00  0.00    +0.000 NA
ATOM     35  N   UNL     1      -7.008  12.226  19.395  0.00  0.00    +0.000 N 
ATOM     36  H   UNL     1      -5.521  11.484  16.733  0.00  0.00    +0.000 HD
ATOM     37  H   UNL     1      -6.934  11.842  20.328  0.00  0.00    +0.000 HD
ATOM     38  H   UNL     1      -7.877  11.948  18.947  0.00  0.00    +0.000 HD
ENDBRANCH  30  33
ENDBRANCH  26  27
ENDBRANCH  24  26
ENDBRANCH   4  24
TORSDOF 14
ENDMDL
