MODEL 1
REMARK VINA RESULT:      -7.6      0.000      0.000
REMARK  Name = 
REMARK  7 active torsions:
REMARK  status: ('A' for Active; 'I' for Inactive)
REMARK    1  A    between atoms: C_1  and  O_2
REMARK    2  A    between atoms: O_2  and  C_3
REMARK    3  A    between atoms: C_6  and  C_7
REMARK    4  A    between atoms: C_8  and  C_9
REMARK    5  A    between atoms: C_12  and  C_13
REMARK    6  A    between atoms: C_21  and  O_22
REMARK    7  A    between atoms: O_22  and  C_23
REMARK                            x       y       z     vdW  Elec       q    Type
REMARK                         _______ _______ _______ _____ _____    ______ ____
ROOT
ATOM      1  C   UNL     1       3.441   5.282  19.216  0.00  0.00    +0.000 C 
ATOM      2  C   UNL     1       4.564   5.046  18.194  0.00  0.00    +0.000 C 
ATOM      3  C   UNL     1       4.384   4.152  17.180  0.00  0.00    +0.000 C 
ATOM      4  C   UNL     1       5.378   3.791  16.099  0.00  0.00    +0.000 C 
ATOM      5  N   UNL     1       3.182   3.452  17.075  0.00  0.00    +0.000 N 
ATOM      6  C   UNL     1       2.252   3.426  18.046  0.00  0.00    +0.000 A 
ATOM      7  N   UNL     1       1.173   2.706  18.195  0.00  0.00    +0.000 NA
ATOM      8  C   UNL     1       0.700   3.120  19.416  0.00  0.00    +0.000 A 
ATOM      9  N   UNL     1       1.439   4.047  20.040  0.00  0.00    +0.000 NA
ATOM     10  N   UNL     1       2.402   4.259  19.120  0.00  0.00    +0.000 N 
ATOM     11  H   UNL     1       3.116   2.754  16.337  0.00  0.00    +0.000 HD
ENDROOT
BRANCH   1  15
ATOM     12  C   UNL     1       1.402   9.128  18.968  0.00  0.00    +0.000 A 
ATOM     13  C   UNL     1       2.018   8.573  17.835  0.00  0.00    +0.000 A 
ATOM     14  C   UNL     1       2.661   7.335  17.893  0.00  0.00    +0.000 A 
ATOM     15  C   UNL     1       2.762   6.648  19.107  0.00  0.00    +0.000 A 
ATOM     16  C   UNL     1       2.182   7.230  20.247  0.00  0.00    +0.000 A 
ATOM     17  C   UNL     1       1.517   8.466  20.199  0.00  0.00    +0.000 A 
BRANCH  12  19
ATOM     18  C   UNL     1      -0.603  10.235  18.349  0.00  0.00    +0.000 C 
ATOM     19  O   UNL     1       0.716  10.309  18.893  0.00  0.00    +0.000 OA
ENDBRANCH  12  19
BRANCH  17  20
ATOM     20  O   UNL     1       1.044   8.836  21.429  0.00  0.00    +0.000 OA
ATOM     21  C   UNL     1      -0.315   8.594  21.756  0.00  0.00    +0.000 C 
ENDBRANCH  17  20
ENDBRANCH   1  15
BRANCH   2  22
ATOM     22  C   UNL     1       5.865   5.740  18.425  0.00  0.00    +0.000 C 
ATOM     23  N   UNL     1       6.704   5.227  19.363  0.00  0.00    +0.000 N 
ATOM     24  O   UNL     1       6.225   6.725  17.793  0.00  0.00    +0.000 OA
ATOM     25  H   UNL     1       6.490   4.494  20.022  0.00  0.00    +0.000 HD
ATOM     26  H   UNL     1       7.557   5.747  19.529  0.00  0.00    +0.000 HD
ENDBRANCH   2  22
TORSDOF 4
ENDMDL
MODEL 2
REMARK VINA RESULT:      -7.4      1.790      3.652
REMARK  Name = 
REMARK  7 active torsions:
REMARK  status: ('A' for Active; 'I' for Inactive)
REMARK    1  A    between atoms: C_1  and  O_2
REMARK    2  A    between atoms: O_2  and  C_3
REMARK    3  A    between atoms: C_6  and  C_7
REMARK    4  A    between atoms: C_8  and  C_9
REMARK    5  A    between atoms: C_12  and  C_13
REMARK    6  A    between atoms: C_21  and  O_22
REMARK    7  A    between atoms: O_22  and  C_23
REMARK                            x       y       z     vdW  Elec       q    Type
REMARK                         _______ _______ _______ _____ _____    ______ ____
ROOT
ATOM      1  C   UNL     1       3.900   5.702  17.651  0.00  0.00    +0.000 C 
ATOM      2  C   UNL     1       3.542   4.375  18.338  0.00  0.00    +0.000 C 
ATOM      3  C   UNL     1       4.424   3.799  19.205  0.00  0.00    +0.000 C 
ATOM      4  C   UNL     1       4.242   2.500  19.958  0.00  0.00    +0.000 C 
ATOM      5  N   UNL     1       5.649   4.414  19.463  0.00  0.00    +0.000 N 
ATOM      6  C   UNL     1       6.131   5.439  18.738  0.00  0.00    +0.000 A 
ATOM      7  N   UNL     1       7.303   6.015  18.721  0.00  0.00    +0.000 NA
ATOM      8  C   UNL     1       7.165   6.949  17.724  0.00  0.00    +0.000 A 
ATOM      9  N   UNL     1       5.975   6.973  17.110  0.00  0.00    +0.000 NA
ATOM     10  N   UNL     1       5.316   6.026  17.810  0.00  0.00    +0.000 N 
ATOM     11  H   UNL     1       6.297   3.919  20.072  0.00  0.00    +0.000 HD
ENDROOT
BRANCH   1  15
ATOM     12  C   UNL     1       1.494   9.048  19.074  0.00  0.00    +0.000 A 
ATOM     13  C   UNL     1       2.045   9.064  17.783  0.00  0.00    +0.000 A 
ATOM     14  C   UNL     1       2.804   7.995  17.305  0.00  0.00    +0.000 A 
ATOM     15  C   UNL     1       3.088   6.905  18.135  0.00  0.00    +0.000 A 
ATOM     16  C   UNL     1       2.570   6.914  19.440  0.00  0.00    +0.000 A 
ATOM     17  C   UNL     1       1.790   7.976  19.928  0.00  0.00    +0.000 A 
BRANCH  12  19
ATOM     18  C   UNL     1      -0.503  10.294  18.770  0.00  0.00    +0.000 C 
ATOM     19  O   UNL     1       0.695  10.068  19.514  0.00  0.00    +0.000 OA
ENDBRANCH  12  19
BRANCH  17  20
ATOM     20  O   UNL     1       1.407   7.770  21.225  0.00  0.00    +0.000 OA
ATOM     21  C   UNL     1       1.391   8.862  22.131  0.00  0.00    +0.000 C 
ENDBRANCH  17  20
ENDBRANCH   1  15
BRANCH   2  22
ATOM     22  C   UNL     1       2.268   3.709  17.936  0.00  0.00    +0.000 C 
ATOM     23  N   UNL     1       1.232   3.731  18.815  0.00  0.00    +0.000 N 
ATOM     24  O   UNL     1       2.102   3.174  16.848  0.00  0.00    +0.000 OA
ATOM     25  H   UNL     1       1.267   4.039  19.775  0.00  0.00    +0.000 HD
ATOM     26  H   UNL     1       0.398   3.230  18.533  0.00  0.00    +0.000 HD
ENDBRANCH   2  22
TORSDOF 4
ENDMDL
MODEL 3
REMARK VINA RESULT:      -7.3      1.182      1.256
REMARK  Name = 
REMARK  7 active torsions:
REMARK  status: ('A' for Active; 'I' for Inactive)
REMARK    1  A    between atoms: C_1  and  O_2
REMARK    2  A    between atoms: O_2  and  C_3
REMARK    3  A    between atoms: C_6  and  C_7
REMARK    4  A    between atoms: C_8  and  C_9
REMARK    5  A    between atoms: C_12  and  C_13
REMARK    6  A    between atoms: C_21  and  O_22
REMARK    7  A    between atoms: O_22  and  C_23
REMARK                            x       y       z     vdW  Elec       q    Type
REMARK                         _______ _______ _______ _____ _____    ______ ____
ROOT
ATOM      1  C   UNL     1       4.384   5.004  19.023  0.00  0.00    +0.000 C 
ATOM      2  C   UNL     1       5.636   5.049  18.132  0.00  0.00    +0.000 C 
ATOM      3  C   UNL     1       5.718   4.245  17.034  0.00  0.00    +0.000 C 
ATOM      4  C   UNL     1       6.869   4.151  16.058  0.00  0.00    +0.000 C 
ATOM      5  N   UNL     1       4.667   3.382  16.723  0.00  0.00    +0.000 N 
ATOM      6  C   UNL     1       3.653   3.115  17.566  0.00  0.00    +0.000 A 
ATOM      7  N   UNL     1       2.697   2.226  17.520  0.00  0.00    +0.000 NA
ATOM      8  C   UNL     1       2.032   2.437  18.703  0.00  0.00    +0.000 A 
ATOM      9  N   UNL     1       2.535   3.398  19.488  0.00  0.00    +0.000 NA
ATOM     10  N   UNL     1       3.546   3.848  18.715  0.00  0.00    +0.000 N 
ATOM     11  H   UNL     1       4.797   2.760  15.927  0.00  0.00    +0.000 HD
ENDROOT
BRANCH   1  15
ATOM     12  C   UNL     1       1.778   8.494  18.834  0.00  0.00    +0.000 A 
ATOM     13  C   UNL     1       2.649   8.196  17.775  0.00  0.00    +0.000 A 
ATOM     14  C   UNL     1       3.479   7.075  17.811  0.00  0.00    +0.000 A 
ATOM     15  C   UNL     1       3.506   6.253  18.944  0.00  0.00    +0.000 A 
ATOM     16  C   UNL     1       2.663   6.581  20.019  0.00  0.00    +0.000 A 
ATOM     17  C   UNL     1       1.811   7.697  19.988  0.00  0.00    +0.000 A 
BRANCH  12  19
ATOM     18  C   UNL     1       1.518  10.839  18.579  0.00  0.00    +0.000 C 
ATOM     19  O   UNL     1       0.918   9.556  18.766  0.00  0.00    +0.000 OA
ENDBRANCH  12  19
BRANCH  17  20
ATOM     20  O   UNL     1       1.095   7.821  21.147  0.00  0.00    +0.000 OA
ATOM     21  C   UNL     1       1.321   8.937  21.992  0.00  0.00    +0.000 C 
ENDBRANCH  17  20
ENDBRANCH   1  15
BRANCH   2  22
ATOM     22  C   UNL     1       6.772   5.907  18.579  0.00  0.00    +0.000 C 
ATOM     23  N   UNL     1       7.495   5.500  19.655  0.00  0.00    +0.000 N 
ATOM     24  O   UNL     1       7.102   6.939  18.009  0.00  0.00    +0.000 OA
ATOM     25  H   UNL     1       7.268   4.737  20.276  0.00  0.00    +0.000 HD
ATOM     26  H   UNL     1       8.228   6.127  19.962  0.00  0.00    +0.000 HD
ENDBRANCH   2  22
TORSDOF 4
ENDMDL
MODEL 4
REMARK VINA RESULT:      -7.3      1.933      4.044
REMARK  Name = 
REMARK  7 active torsions:
REMARK  status: ('A' for Active; 'I' for Inactive)
REMARK    1  A    between atoms: C_1  and  O_2
REMARK    2  A    between atoms: O_2  and  C_3
REMARK    3  A    between atoms: C_6  and  C_7
REMARK    4  A    between atoms: C_8  and  C_9
REMARK    5  A    between atoms: C_12  and  C_13
REMARK    6  A    between atoms: C_21  and  O_22
REMARK    7  A    between atoms: O_22  and  C_23
REMARK                            x       y       z     vdW  Elec       q    Type
REMARK                         _______ _______ _______ _____ _____    ______ ____
ROOT
ATOM      1  C   UNL     1       3.760   5.603  17.793  0.00  0.00    +0.000 C 
ATOM      2  C   UNL     1       3.503   4.192  18.344  0.00  0.00    +0.000 C 
ATOM      3  C   UNL     1       4.470   3.557  19.066  0.00  0.00    +0.000 C 
ATOM      4  C   UNL     1       4.393   2.173  19.672  0.00  0.00    +0.000 C 
ATOM      5  N   UNL     1       5.691   4.189  19.301  0.00  0.00    +0.000 N 
ATOM      6  C   UNL     1       6.079   5.310  18.667  0.00  0.00    +0.000 A 
ATOM      7  N   UNL     1       7.226   5.933  18.628  0.00  0.00    +0.000 NA
ATOM      8  C   UNL     1       6.978   6.970  17.763  0.00  0.00    +0.000 A 
ATOM      9  N   UNL     1       5.742   7.013  17.249  0.00  0.00    +0.000 NA
ATOM     10  N   UNL     1       5.173   5.965  17.880  0.00  0.00    +0.000 N 
ATOM     11  H   UNL     1       6.403   3.655  19.795  0.00  0.00    +0.000 HD
ENDROOT
BRANCH   1  15
ATOM     12  C   UNL     1       1.545   8.835  19.705  0.00  0.00    +0.000 A 
ATOM     13  C   UNL     1       1.776   7.629  20.385  0.00  0.00    +0.000 A 
ATOM     14  C   UNL     1       2.497   6.590  19.794  0.00  0.00    +0.000 A 
ATOM     15  C   UNL     1       2.951   6.706  18.476  0.00  0.00    +0.000 A 
ATOM     16  C   UNL     1       2.679   7.899  17.786  0.00  0.00    +0.000 A 
ATOM     17  C   UNL     1       1.970   8.959  18.374  0.00  0.00    +0.000 A 
BRANCH  12  19
ATOM     18  C   UNL     1       0.730   9.774  21.726  0.00  0.00    +0.000 C 
ATOM     19  O   UNL     1       0.896   9.876  20.311  0.00  0.00    +0.000 OA
ENDBRANCH  12  19
BRANCH  17  20
ATOM     20  O   UNL     1       1.818  10.009  17.511  0.00  0.00    +0.000 OA
ATOM     21  C   UNL     1       2.385  11.268  17.835  0.00  0.00    +0.000 C 
ENDBRANCH  17  20
ENDBRANCH   1  15
BRANCH   2  22
ATOM     22  C   UNL     1       2.223   3.524  17.965  0.00  0.00    +0.000 C 
ATOM     23  N   UNL     1       1.220   3.500  18.881  0.00  0.00    +0.000 N 
ATOM     24  O   UNL     1       2.023   3.025  16.865  0.00  0.00    +0.000 OA
ATOM     25  H   UNL     1       1.286   3.774  19.850  0.00  0.00    +0.000 HD
ATOM     26  H   UNL     1       0.382   2.999  18.612  0.00  0.00    +0.000 HD
ENDBRANCH   2  22
TORSDOF 4
ENDMDL
MODEL 5
REMARK VINA RESULT:      -7.0      3.291      5.256
REMARK  Name = 
REMARK  7 active torsions:
REMARK  status: ('A' for Active; 'I' for Inactive)
REMARK    1  A    between atoms: C_1  and  O_2
REMARK    2  A    between atoms: O_2  and  C_3
REMARK    3  A    between atoms: C_6  and  C_7
REMARK    4  A    between atoms: C_8  and  C_9
REMARK    5  A    between atoms: C_12  and  C_13
REMARK    6  A    between atoms: C_21  and  O_22
REMARK    7  A    between atoms: O_22  and  C_23
REMARK                            x       y       z     vdW  Elec       q    Type
REMARK                         _______ _______ _______ _____ _____    ______ ____
ROOT
ATOM      1  C   UNL     1       6.375   4.259  17.164  0.00  0.00    +0.000 C 
ATOM      2  C   UNL     1       6.955   5.452  17.940  0.00  0.00    +0.000 C 
ATOM      3  C   UNL     1       7.335   6.578  17.270  0.00  0.00    +0.000 C 
ATOM      4  C   UNL     1       7.930   7.834  17.866  0.00  0.00    +0.000 C 
ATOM      5  N   UNL     1       7.200   6.643  15.883  0.00  0.00    +0.000 N 
ATOM      6  C   UNL     1       6.925   5.573  15.115  0.00  0.00    +0.000 A 
ATOM      7  N   UNL     1       6.931   5.410  13.819  0.00  0.00    +0.000 NA
ATOM      8  C   UNL     1       6.618   4.081  13.681  0.00  0.00    +0.000 A 
ATOM      9  N   UNL     1       6.434   3.405  14.823  0.00  0.00    +0.000 NA
ATOM     10  N   UNL     1       6.591   4.396  15.726  0.00  0.00    +0.000 N 
ATOM     11  H   UNL     1       7.550   7.479  15.422  0.00  0.00    +0.000 HD
ENDROOT
BRANCH   1  15
ATOM     12  C   UNL     1       2.123   3.661  17.917  0.00  0.00    +0.000 A 
ATOM     13  C   UNL     1       2.970   2.563  17.699  0.00  0.00    +0.000 A 
ATOM     14  C   UNL     1       4.336   2.735  17.473  0.00  0.00    +0.000 A 
ATOM     15  C   UNL     1       4.882   4.021  17.393  0.00  0.00    +0.000 A 
ATOM     16  C   UNL     1       4.022   5.117  17.569  0.00  0.00    +0.000 A 
ATOM     17  C   UNL     1       2.648   4.958  17.815  0.00  0.00    +0.000 A 
BRANCH  12  19
ATOM     18  C   UNL     1       0.500   2.946  19.494  0.00  0.00    +0.000 C 
ATOM     19  O   UNL     1       0.797   3.486  18.205  0.00  0.00    +0.000 OA
ENDBRANCH  12  19
BRANCH  17  20
ATOM     20  O   UNL     1       2.012   6.162  17.942  0.00  0.00    +0.000 OA
ATOM     21  C   UNL     1       2.762   7.315  18.291  0.00  0.00    +0.000 C 
ENDBRANCH  17  20
ENDBRANCH   1  15
BRANCH   2  22
ATOM     22  C   UNL     1       7.180   5.282  19.405  0.00  0.00    +0.000 C 
ATOM     23  N   UNL     1       8.456   5.353  19.867  0.00  0.00    +0.000 N 
ATOM     24  O   UNL     1       6.275   5.111  20.211  0.00  0.00    +0.000 OA
ATOM     25  H   UNL     1       9.296   5.380  19.307  0.00  0.00    +0.000 HD
ATOM     26  H   UNL     1       8.581   5.185  20.858  0.00  0.00    +0.000 HD
ENDBRANCH   2  22
TORSDOF 4
ENDMDL
MODEL 6
REMARK VINA RESULT:      -7.0      3.070      5.798
REMARK  Name = 
REMARK  7 active torsions:
REMARK  status: ('A' for Active; 'I' for Inactive)
REMARK    1  A    between atoms: C_1  and  O_2
REMARK    2  A    between atoms: O_2  and  C_3
REMARK    3  A    between atoms: C_6  and  C_7
REMARK    4  A    between atoms: C_8  and  C_9
REMARK    5  A    between atoms: C_12  and  C_13
REMARK    6  A    between atoms: C_21  and  O_22
REMARK    7  A    between atoms: O_22  and  C_23
REMARK                            x       y       z     vdW  Elec       q    Type
REMARK                         _______ _______ _______ _____ _____    ______ ____
ROOT
ATOM      1  C   UNL     1       4.223   4.619  18.681  0.00  0.00    +0.000 C 
ATOM      2  C   UNL     1       3.468   3.285  18.791  0.00  0.00    +0.000 C 
ATOM      3  C   UNL     1       2.130   3.237  18.531  0.00  0.00    +0.000 C 
ATOM      4  C   UNL     1       1.233   2.022  18.598  0.00  0.00    +0.000 C 
ATOM      5  N   UNL     1       1.450   4.400  18.167  0.00  0.00    +0.000 N 
ATOM      6  C   UNL     1       1.979   5.632  18.274  0.00  0.00    +0.000 A 
ATOM      7  N   UNL     1       1.448   6.818  18.150  0.00  0.00    +0.000 NA
ATOM      8  C   UNL     1       2.501   7.652  18.434  0.00  0.00    +0.000 A 
ATOM      9  N   UNL     1       3.654   7.045  18.744  0.00  0.00    +0.000 NA
ATOM     10  N   UNL     1       3.304   5.751  18.589  0.00  0.00    +0.000 N 
ATOM     11  H   UNL     1       0.443   4.326  18.038  0.00  0.00    +0.000 HD
ENDROOT
BRANCH   1  15
ATOM     12  C   UNL     1       6.948   4.986  15.298  0.00  0.00    +0.000 A 
ATOM     13  C   UNL     1       6.046   3.913  15.374  0.00  0.00    +0.000 A 
ATOM     14  C   UNL     1       5.155   3.789  16.441  0.00  0.00    +0.000 A 
ATOM     15  C   UNL     1       5.190   4.703  17.499  0.00  0.00    +0.000 A 
ATOM     16  C   UNL     1       6.124   5.750  17.439  0.00  0.00    +0.000 A 
ATOM     17  C   UNL     1       7.014   5.897  16.362  0.00  0.00    +0.000 A 
BRANCH  12  19
ATOM     18  C   UNL     1       7.234   4.748  12.954  0.00  0.00    +0.000 C 
ATOM     19  O   UNL     1       7.772   5.142  14.217  0.00  0.00    +0.000 OA
ENDBRANCH  12  19
BRANCH  17  20
ATOM     20  O   UNL     1       7.835   6.980  16.526  0.00  0.00    +0.000 OA
ATOM     21  C   UNL     1       7.788   7.715  17.738  0.00  0.00    +0.000 C 
ENDBRANCH  17  20
ENDBRANCH   1  15
BRANCH   2  22
ATOM     22  C   UNL     1       4.225   2.101  19.293  0.00  0.00    +0.000 C 
ATOM     23  N   UNL     1       4.232   0.977  18.529  0.00  0.00    +0.000 N 
ATOM     24  O   UNL     1       4.862   2.102  20.338  0.00  0.00    +0.000 OA
ATOM     25  H   UNL     1       3.668   0.806  17.710  0.00  0.00    +0.000 HD
ATOM     26  H   UNL     1       4.714   0.176  18.919  0.00  0.00    +0.000 HD
ENDBRANCH   2  22
TORSDOF 4
ENDMDL
MODEL 7
REMARK VINA RESULT:      -6.8      1.914      3.954
REMARK  Name = 
REMARK  7 active torsions:
REMARK  status: ('A' for Active; 'I' for Inactive)
REMARK    1  A    between atoms: C_1  and  O_2
REMARK    2  A    between atoms: O_2  and  C_3
REMARK    3  A    between atoms: C_6  and  C_7
REMARK    4  A    between atoms: C_8  and  C_9
REMARK    5  A    between atoms: C_12  and  C_13
REMARK    6  A    between atoms: C_21  and  O_22
REMARK    7  A    between atoms: O_22  and  C_23
REMARK                            x       y       z     vdW  Elec       q    Type
REMARK                         _______ _______ _______ _____ _____    ______ ____
ROOT
ATOM      1  C   UNL     1       3.444   5.192  18.062  0.00  0.00    +0.000 C 
ATOM      2  C   UNL     1       3.363   3.793  18.691  0.00  0.00    +0.000 C 
ATOM      3  C   UNL     1       4.474   3.233  19.250  0.00  0.00    +0.000 C 
ATOM      4  C   UNL     1       4.578   1.872  19.901  0.00  0.00    +0.000 C 
ATOM      5  N   UNL     1       5.682   3.931  19.248  0.00  0.00    +0.000 N 
ATOM      6  C   UNL     1       5.893   5.044  18.523  0.00  0.00    +0.000 A 
ATOM      7  N   UNL     1       6.980   5.720  18.265  0.00  0.00    +0.000 NA
ATOM      8  C   UNL     1       6.530   6.709  17.426  0.00  0.00    +0.000 A 
ATOM      9  N   UNL     1       5.223   6.674  17.137  0.00  0.00    +0.000 NA
ATOM     10  N   UNL     1       4.829   5.625  17.889  0.00  0.00    +0.000 N 
ATOM     11  H   UNL     1       6.496   3.451  19.625  0.00  0.00    +0.000 HD
ENDROOT
BRANCH   1  15
ATOM     12  C   UNL     1       1.432   8.385  20.246  0.00  0.00    +0.000 A 
ATOM     13  C   UNL     1       1.761   7.180  20.886  0.00  0.00    +0.000 A 
ATOM     14  C   UNL     1       2.420   6.154  20.208  0.00  0.00    +0.000 A 
ATOM     15  C   UNL     1       2.709   6.282  18.845  0.00  0.00    +0.000 A 
ATOM     16  C   UNL     1       2.338   7.472  18.199  0.00  0.00    +0.000 A 
ATOM     17  C   UNL     1       1.691   8.520  18.874  0.00  0.00    +0.000 A 
BRANCH  12  19
ATOM     18  C   UNL     1      -0.219   9.056  21.813  0.00  0.00    +0.000 C 
ATOM     19  O   UNL     1       0.847   9.414  20.932  0.00  0.00    +0.000 OA
ENDBRANCH  12  19
BRANCH  17  20
ATOM     20  O   UNL     1       1.420   9.571  18.041  0.00  0.00    +0.000 OA
ATOM     21  C   UNL     1       0.081  10.009  17.881  0.00  0.00    +0.000 C 
ENDBRANCH  17  20
ENDBRANCH   1  15
BRANCH   2  22
ATOM     22  C   UNL     1       2.075   3.051  18.563  0.00  0.00    +0.000 C 
ATOM     23  N   UNL     1       2.024   2.006  17.696  0.00  0.00    +0.000 N 
ATOM     24  O   UNL     1       1.076   3.316  19.219  0.00  0.00    +0.000 OA
ATOM     25  H   UNL     1       2.732   1.750  17.023  0.00  0.00    +0.000 HD
ATOM     26  H   UNL     1       1.124   1.553  17.596  0.00  0.00    +0.000 HD
ENDBRANCH   2  22
TORSDOF 4
ENDMDL
MODEL 8
REMARK VINA RESULT:      -6.7      0.869      1.822
REMARK  Name = 
REMARK  7 active torsions:
REMARK  status: ('A' for Active; 'I' for Inactive)
REMARK    1  A    between atoms: C_1  and  O_2
REMARK    2  A    between atoms: O_2  and  C_3
REMARK    3  A    between atoms: C_6  and  C_7
REMARK    4  A    between atoms: C_8  and  C_9
REMARK    5  A    between atoms: C_12  and  C_13
REMARK    6  A    between atoms: C_21  and  O_22
REMARK    7  A    between atoms: O_22  and  C_23
REMARK                            x       y       z     vdW  Elec       q    Type
REMARK                         _______ _______ _______ _____ _____    ______ ____
ROOT
ATOM      1  C   UNL     1       3.317   5.012  19.401  0.00  0.00    +0.000 C 
ATOM      2  C   UNL     1       4.338   5.019  18.254  0.00  0.00    +0.000 C 
ATOM      3  C   UNL     1       4.094   4.300  17.121  0.00  0.00    +0.000 C 
ATOM      4  C   UNL     1       4.985   4.185  15.905  0.00  0.00    +0.000 C 
ATOM      5  N   UNL     1       2.918   3.557  17.008  0.00  0.00    +0.000 N 
ATOM      6  C   UNL     1       2.094   3.313  18.043  0.00  0.00    +0.000 A 
ATOM      7  N   UNL     1       1.067   2.516  18.166  0.00  0.00    +0.000 NA
ATOM      8  C   UNL     1       0.705   2.689  19.479  0.00  0.00    +0.000 A 
ATOM      9  N   UNL     1       1.464   3.539  20.183  0.00  0.00    +0.000 NA
ATOM     10  N   UNL     1       2.318   3.960  19.227  0.00  0.00    +0.000 N 
ATOM     11  H   UNL     1       2.805   2.991  16.170  0.00  0.00    +0.000 HD
ENDROOT
BRANCH   1  15
ATOM     12  C   UNL     1       1.304   8.846  19.913  0.00  0.00    +0.000 A 
ATOM     13  C   UNL     1       1.270   7.880  20.932  0.00  0.00    +0.000 A 
ATOM     14  C   UNL     1       1.922   6.654  20.792  0.00  0.00    +0.000 A 
ATOM     15  C   UNL     1       2.574   6.334  19.596  0.00  0.00    +0.000 A 
ATOM     16  C   UNL     1       2.568   7.287  18.564  0.00  0.00    +0.000 A 
ATOM     17  C   UNL     1       1.930   8.531  18.698  0.00  0.00    +0.000 A 
BRANCH  12  19
ATOM     18  C   UNL     1      -0.649  10.174  19.686  0.00  0.00    +0.000 C 
ATOM     19  O   UNL     1       0.720  10.071  20.080  0.00  0.00    +0.000 OA
ENDBRANCH  12  19
BRANCH  17  20
ATOM     20  O   UNL     1       2.047   9.287  17.563  0.00  0.00    +0.000 OA
ATOM     21  C   UNL     1       2.451  10.643  17.666  0.00  0.00    +0.000 C 
ENDBRANCH  17  20
ENDBRANCH   1  15
BRANCH   2  22
ATOM     22  C   UNL     1       5.626   5.739  18.478  0.00  0.00    +0.000 C 
ATOM     23  N   UNL     1       6.473   5.252  19.422  0.00  0.00    +0.000 N 
ATOM     24  O   UNL     1       5.968   6.724  17.836  0.00  0.00    +0.000 OA
ATOM     25  H   UNL     1       6.272   4.522  20.089  0.00  0.00    +0.000 HD
ATOM     26  H   UNL     1       7.316   5.790  19.584  0.00  0.00    +0.000 HD
ENDBRANCH   2  22
TORSDOF 4
ENDMDL
MODEL 9
REMARK VINA RESULT:      -6.6      2.064      5.490
REMARK  Name = 
REMARK  7 active torsions:
REMARK  status: ('A' for Active; 'I' for Inactive)
REMARK    1  A    between atoms: C_1  and  O_2
REMARK    2  A    between atoms: O_2  and  C_3
REMARK    3  A    between atoms: C_6  and  C_7
REMARK    4  A    between atoms: C_8  and  C_9
REMARK    5  A    between atoms: C_12  and  C_13
REMARK    6  A    between atoms: C_21  and  O_22
REMARK    7  A    between atoms: O_22  and  C_23
REMARK                            x       y       z     vdW  Elec       q    Type
REMARK                         _______ _______ _______ _____ _____    ______ ____
ROOT
ATOM      1  C   UNL     1       2.221   5.627  18.218  0.00  0.00    +0.000 C 
ATOM      2  C   UNL     1       2.116   7.027  18.842  0.00  0.00    +0.000 C 
ATOM      3  C   UNL     1       1.992   7.162  20.193  0.00  0.00    +0.000 C 
ATOM      4  C   UNL     1       1.868   8.453  20.972  0.00  0.00    +0.000 C 
ATOM      5  N   UNL     1       1.959   6.029  21.006  0.00  0.00    +0.000 N 
ATOM      6  C   UNL     1       1.812   4.779  20.529  0.00  0.00    +0.000 A 
ATOM      7  N   UNL     1       1.590   3.641  21.130  0.00  0.00    +0.000 NA
ATOM      8  C   UNL     1       1.486   2.762  20.081  0.00  0.00    +0.000 A 
ATOM      9  N   UNL     1       1.615   3.296  18.860  0.00  0.00    +0.000 NA
ATOM     10  N   UNL     1       1.868   4.583  19.177  0.00  0.00    +0.000 N 
ATOM     11  H   UNL     1       1.808   6.176  22.002  0.00  0.00    +0.000 HD
ENDROOT
BRANCH   1  15
ATOM     12  C   UNL     1       6.171   4.796  16.570  0.00  0.00    +0.000 A 
ATOM     13  C   UNL     1       5.045   4.095  16.112  0.00  0.00    +0.000 A 
ATOM     14  C   UNL     1       3.771   4.359  16.616  0.00  0.00    +0.000 A 
ATOM     15  C   UNL     1       3.599   5.291  17.645  0.00  0.00    +0.000 A 
ATOM     16  C   UNL     1       4.735   5.958  18.130  0.00  0.00    +0.000 A 
ATOM     17  C   UNL     1       6.021   5.715  17.619  0.00  0.00    +0.000 A 
BRANCH  12  19
ATOM     18  C   UNL     1       7.523   4.807  14.620  0.00  0.00    +0.000 C 
ATOM     19  O   UNL     1       7.408   4.582  16.026  0.00  0.00    +0.000 OA
ENDBRANCH  12  19
BRANCH  17  20
ATOM     20  O   UNL     1       6.970   6.471  18.250  0.00  0.00    +0.000 OA
ATOM     21  C   UNL     1       7.529   7.591  17.582  0.00  0.00    +0.000 C 
ENDBRANCH  17  20
ENDBRANCH   1  15
BRANCH   2  22
ATOM     22  C   UNL     1       2.043   8.194  17.914  0.00  0.00    +0.000 C 
ATOM     23  N   UNL     1       0.869   8.873  17.834  0.00  0.00    +0.000 N 
ATOM     24  O   UNL     1       2.993   8.586  17.248  0.00  0.00    +0.000 OA
ATOM     25  H   UNL     1      -0.013   8.597  18.240  0.00  0.00    +0.000 HD
ATOM     26  H   UNL     1       0.837   9.630  17.161  0.00  0.00    +0.000 HD
ENDBRANCH   2  22
TORSDOF 4
ENDMDL
