MODEL 1
REMARK VINA RESULT:      -8.0      0.000      0.000
REMARK  Name = 
REMARK  6 active torsions:
REMARK  status: ('A' for Active; 'I' for Inactive)
REMARK    1  A    between atoms: C_1  and  C_2
REMARK    2  A    between atoms: C_5  and  C_6
REMARK    3  A    between atoms: C_6  and  C_7
REMARK    4  A    between atoms: N_9  and  C_10
REMARK    5  A    between atoms: C_13  and  C_14
REMARK    6  A    between atoms: C_14  and  C_15
REMARK                            x       y       z     vdW  Elec       q    Type
REMARK                         _______ _______ _______ _____ _____    ______ ____
ROOT
ATOM      1  C   UNL     1       0.867   9.744  18.655  0.00  0.00    +0.000 A 
ATOM      2  C   UNL     1       1.665   9.087  17.715  0.00  0.00    +0.000 A 
ATOM      3  C   UNL     1       2.398   7.956  18.076  0.00  0.00    +0.000 A 
ATOM      4  C   UNL     1       2.331   7.460  19.385  0.00  0.00    +0.000 A 
ATOM      5  C   UNL     1       1.566   8.157  20.336  0.00  0.00    +0.000 A 
ATOM      6  C   UNL     1       0.861   9.313  19.980  0.00  0.00    +0.000 A 
ENDROOT
BRANCH   1   9
ATOM      7  C   UNL     1      -1.313  10.536  17.963  0.00  0.00    +0.000 C 
ATOM      8  O   UNL     1      -1.833   9.420  18.016  0.00  0.00    +0.000 OA
ATOM      9  N   UNL     1       0.018  10.804  18.264  0.00  0.00    +0.000 N 
ATOM     10  H   UNL     1       0.195  11.716  18.667  0.00  0.00    +0.000 HD
BRANCH   7  11
ATOM     11  C   UNL     1      -2.133  11.751  17.575  0.00  0.00    +0.000 C 
BRANCH  11  16
ATOM     12  C   UNL     1      -7.546  11.868  19.767  0.00  0.00    +0.000 C 
ATOM     13  C   UNL     1      -6.155  11.840  19.205  0.00  0.00    +0.000 A 
ATOM     14  C   UNL     1      -5.905  11.359  17.917  0.00  0.00    +0.000 A 
ATOM     15  C   UNL     1      -4.605  11.350  17.404  0.00  0.00    +0.000 A 
ATOM     16  C   UNL     1      -3.524  11.831  18.163  0.00  0.00    +0.000 A 
ATOM     17  C   UNL     1      -3.776  12.272  19.468  0.00  0.00    +0.000 A 
ATOM     18  C   UNL     1      -5.078  12.287  19.978  0.00  0.00    +0.000 A 
ENDBRANCH  11  16
ENDBRANCH   7  11
ENDBRANCH   1   9
BRANCH   4  19
ATOM     19  C   UNL     1       3.125   6.224  19.771  0.00  0.00    +0.000 C 
BRANCH  19  20
ATOM     20  C   UNL     1       2.788   4.992  18.976  0.00  0.00    +0.000 C 
ATOM     21  C   UNL     1       1.752   4.186  19.215  0.00  0.00    +0.000 C 
ATOM     22  C   UNL     1       1.735   3.176  18.169  0.00  0.00    +0.000 C 
ATOM     23  O   UNL     1       0.923   2.281  18.097  0.00  0.00    +0.000 OA
ATOM     24  O   UNL     1       2.751   3.408  17.290  0.00  0.00    +0.000 OA
ATOM     25  C   UNL     1       3.476   4.497  17.802  0.00  0.00    +0.000 C 
ATOM     26  C   UNL     1       4.624   4.866  17.197  0.00  0.00    +0.000 C 
ATOM     27 BR   UNL     1       5.802   6.198  17.773  0.00  0.00    +0.000 Br
ATOM     28 BR   UNL     1       5.213   3.987  15.629  0.00  0.00    +0.000 Br
ENDBRANCH  19  20
ENDBRANCH   4  19
TORSDOF 5
ENDMDL
MODEL 2
REMARK VINA RESULT:      -7.8      2.885      3.654
REMARK  Name = 
REMARK  6 active torsions:
REMARK  status: ('A' for Active; 'I' for Inactive)
REMARK    1  A    between atoms: C_1  and  C_2
REMARK    2  A    between atoms: C_5  and  C_6
REMARK    3  A    between atoms: C_6  and  C_7
REMARK    4  A    between atoms: N_9  and  C_10
REMARK    5  A    between atoms: C_13  and  C_14
REMARK    6  A    between atoms: C_14  and  C_15
REMARK                            x       y       z     vdW  Elec       q    Type
REMARK                         _______ _______ _______ _____ _____    ______ ____
ROOT
ATOM      1  C   UNL     1       1.486   9.583  19.210  0.00  0.00    +0.000 A 
ATOM      2  C   UNL     1       1.905   9.361  17.896  0.00  0.00    +0.000 A 
ATOM      3  C   UNL     1       2.334   8.096  17.494  0.00  0.00    +0.000 A 
ATOM      4  C   UNL     1       2.337   7.029  18.403  0.00  0.00    +0.000 A 
ATOM      5  C   UNL     1       1.962   7.273  19.736  0.00  0.00    +0.000 A 
ATOM      6  C   UNL     1       1.567   8.553  20.145  0.00  0.00    +0.000 A 
ENDROOT
BRANCH   1   9
ATOM      7  C   UNL     1      -0.438  11.041  19.393  0.00  0.00    +0.000 C 
ATOM      8  O   UNL     1      -1.218  10.217  18.911  0.00  0.00    +0.000 OA
ATOM      9  N   UNL     1       0.922  10.822  19.587  0.00  0.00    +0.000 N 
ATOM     10  H   UNL     1       1.325  11.294  20.387  0.00  0.00    +0.000 HD
BRANCH   7  11
ATOM     11  C   UNL     1      -0.935  12.398  19.851  0.00  0.00    +0.000 C 
BRANCH  11  16
ATOM     12  C   UNL     1      -4.340  12.380  24.597  0.00  0.00    +0.000 C 
ATOM     13  C   UNL     1      -3.464  12.386  23.379  0.00  0.00    +0.000 A 
ATOM     14  C   UNL     1      -3.918  12.902  22.163  0.00  0.00    +0.000 A 
ATOM     15  C   UNL     1      -3.085  12.908  21.041  0.00  0.00    +0.000 A 
ATOM     16  C   UNL     1      -1.774  12.409  21.110  0.00  0.00    +0.000 A 
ATOM     17  C   UNL     1      -1.339  11.855  22.320  0.00  0.00    +0.000 A 
ATOM     18  C   UNL     1      -2.170  11.855  23.445  0.00  0.00    +0.000 A 
ENDBRANCH  11  16
ENDBRANCH   7  11
ENDBRANCH   1   9
BRANCH   4  19
ATOM     19  C   UNL     1       2.797   5.652  17.959  0.00  0.00    +0.000 C 
BRANCH  19  20
ATOM     20  C   UNL     1       4.190   5.287  18.397  0.00  0.00    +0.000 C 
ATOM     21  C   UNL     1       5.278   6.028  18.182  0.00  0.00    +0.000 C 
ATOM     22  C   UNL     1       6.392   5.367  18.841  0.00  0.00    +0.000 C 
ATOM     23  O   UNL     1       7.531   5.775  18.831  0.00  0.00    +0.000 OA
ATOM     24  O   UNL     1       5.950   4.243  19.475  0.00  0.00    +0.000 OA
ATOM     25  C   UNL     1       4.586   4.122  19.159  0.00  0.00    +0.000 C 
ATOM     26  C   UNL     1       3.916   3.020  19.550  0.00  0.00    +0.000 C 
ATOM     27 BR   UNL     1       2.141   2.597  19.141  0.00  0.00    +0.000 Br
ATOM     28 BR   UNL     1       4.773   1.686  20.583  0.00  0.00    +0.000 Br
ENDBRANCH  19  20
ENDBRANCH   4  19
TORSDOF 5
ENDMDL
MODEL 3
REMARK VINA RESULT:      -7.8      0.496      1.047
REMARK  Name = 
REMARK  6 active torsions:
REMARK  status: ('A' for Active; 'I' for Inactive)
REMARK    1  A    between atoms: C_1  and  C_2
REMARK    2  A    between atoms: C_5  and  C_6
REMARK    3  A    between atoms: C_6  and  C_7
REMARK    4  A    between atoms: N_9  and  C_10
REMARK    5  A    between atoms: C_13  and  C_14
REMARK    6  A    between atoms: C_14  and  C_15
REMARK                            x       y       z     vdW  Elec       q    Type
REMARK                         _______ _______ _______ _____ _____    ______ ____
ROOT
ATOM      1  C   UNL     1       0.686   9.595  18.858  0.00  0.00    +0.000 A 
ATOM      2  C   UNL     1       0.814   8.967  20.100  0.00  0.00    +0.000 A 
ATOM      3  C   UNL     1       1.724   7.924  20.276  0.00  0.00    +0.000 A 
ATOM      4  C   UNL     1       2.529   7.503  19.209  0.00  0.00    +0.000 A 
ATOM      5  C   UNL     1       2.358   8.106  17.951  0.00  0.00    +0.000 A 
ATOM      6  C   UNL     1       1.418   9.128  17.769  0.00  0.00    +0.000 A 
ENDROOT
BRANCH   1   9
ATOM      7  C   UNL     1      -1.316  10.640  17.988  0.00  0.00    +0.000 C 
ATOM      8  O   UNL     1      -1.729   9.608  17.457  0.00  0.00    +0.000 OA
ATOM      9  N   UNL     1      -0.131  10.738  18.710  0.00  0.00    +0.000 N 
ATOM     10  H   UNL     1      -0.143  11.405  19.472  0.00  0.00    +0.000 HD
BRANCH   7  11
ATOM     11  C   UNL     1      -2.120  11.923  17.911  0.00  0.00    +0.000 C 
BRANCH  11  16
ATOM     12  C   UNL     1      -7.489  11.544  20.178  0.00  0.00    +0.000 C 
ATOM     13  C   UNL     1      -6.110  11.644  19.596  0.00  0.00    +0.000 A 
ATOM     14  C   UNL     1      -5.804  11.069  18.360  0.00  0.00    +0.000 A 
ATOM     15  C   UNL     1      -4.516  11.180  17.828  0.00  0.00    +0.000 A 
ATOM     16  C   UNL     1      -3.507  11.877  18.513  0.00  0.00    +0.000 A 
ATOM     17  C   UNL     1      -3.809  12.414  19.771  0.00  0.00    +0.000 A 
ATOM     18  C   UNL     1      -5.099  12.309  20.300  0.00  0.00    +0.000 A 
ENDBRANCH  11  16
ENDBRANCH   7  11
ENDBRANCH   1   9
BRANCH   4  19
ATOM     19  C   UNL     1       3.524   6.372  19.407  0.00  0.00    +0.000 C 
BRANCH  19  20
ATOM     20  C   UNL     1       3.230   5.134  18.604  0.00  0.00    +0.000 C 
ATOM     21  C   UNL     1       2.264   4.256  18.878  0.00  0.00    +0.000 C 
ATOM     22  C   UNL     1       2.261   3.266  17.813  0.00  0.00    +0.000 C 
ATOM     23  O   UNL     1       1.509   2.319  17.764  0.00  0.00    +0.000 OA
ATOM     24  O   UNL     1       3.213   3.582  16.889  0.00  0.00    +0.000 OA
ATOM     25  C   UNL     1       3.889   4.709  17.388  0.00  0.00    +0.000 C 
ATOM     26  C   UNL     1       4.977   5.165  16.734  0.00  0.00    +0.000 C 
ATOM     27 BR   UNL     1       6.091   6.564  17.278  0.00  0.00    +0.000 Br
ATOM     28 BR   UNL     1       5.542   4.356  15.120  0.00  0.00    +0.000 Br
ENDBRANCH  19  20
ENDBRANCH   4  19
TORSDOF 5
ENDMDL
MODEL 4
REMARK VINA RESULT:      -7.8      2.885      3.863
REMARK  Name = 
REMARK  6 active torsions:
REMARK  status: ('A' for Active; 'I' for Inactive)
REMARK    1  A    between atoms: C_1  and  C_2
REMARK    2  A    between atoms: C_5  and  C_6
REMARK    3  A    between atoms: C_6  and  C_7
REMARK    4  A    between atoms: N_9  and  C_10
REMARK    5  A    between atoms: C_13  and  C_14
REMARK    6  A    between atoms: C_14  and  C_15
REMARK                            x       y       z     vdW  Elec       q    Type
REMARK                         _______ _______ _______ _____ _____    ______ ____
ROOT
ATOM      1  C   UNL     1       0.968   8.635  20.405  0.00  0.00    +0.000 A 
ATOM      2  C   UNL     1       1.157   9.223  19.151  0.00  0.00    +0.000 A 
ATOM      3  C   UNL     1       1.983   8.619  18.203  0.00  0.00    +0.000 A 
ATOM      4  C   UNL     1       2.624   7.408  18.495  0.00  0.00    +0.000 A 
ATOM      5  C   UNL     1       2.469   6.850  19.776  0.00  0.00    +0.000 A 
ATOM      6  C   UNL     1       1.668   7.478  20.738  0.00  0.00    +0.000 A 
ENDROOT
BRANCH   1   9
ATOM      7  C   UNL     1       0.283  10.394  21.920  0.00  0.00    +0.000 C 
ATOM      8  O   UNL     1       1.287  11.080  21.718  0.00  0.00    +0.000 OA
ATOM      9  N   UNL     1       0.028   9.167  21.315  0.00  0.00    +0.000 N 
ATOM     10  H   UNL     1      -0.949   8.963  21.150  0.00  0.00    +0.000 HD
BRANCH   7  11
ATOM     11  C   UNL     1      -0.802  10.875  22.863  0.00  0.00    +0.000 C 
BRANCH  11  16
ATOM     12  C   UNL     1      -4.905  14.423  20.697  0.00  0.00    +0.000 C 
ATOM     13  C   UNL     1      -3.851  13.510  21.251  0.00  0.00    +0.000 A 
ATOM     14  C   UNL     1      -3.888  13.087  22.582  0.00  0.00    +0.000 A 
ATOM     15  C   UNL     1      -2.904  12.229  23.080  0.00  0.00    +0.000 A 
ATOM     16  C   UNL     1      -1.865  11.763  22.257  0.00  0.00    +0.000 A 
ATOM     17  C   UNL     1      -1.810  12.225  20.936  0.00  0.00    +0.000 A 
ATOM     18  C   UNL     1      -2.799  13.078  20.436  0.00  0.00    +0.000 A 
ENDBRANCH  11  16
ENDBRANCH   7  11
ENDBRANCH   1   9
BRANCH   4  19
ATOM     19  C   UNL     1       3.517   6.750  17.457  0.00  0.00    +0.000 C 
BRANCH  19  20
ATOM     20  C   UNL     1       4.621   5.903  18.029  0.00  0.00    +0.000 C 
ATOM     21  C   UNL     1       5.873   6.315  18.235  0.00  0.00    +0.000 C 
ATOM     22  C   UNL     1       6.589   5.228  18.882  0.00  0.00    +0.000 C 
ATOM     23  O   UNL     1       7.757   5.271  19.197  0.00  0.00    +0.000 OA
ATOM     24  O   UNL     1       5.743   4.178  19.086  0.00  0.00    +0.000 OA
ATOM     25  C   UNL     1       4.517   4.538  18.501  0.00  0.00    +0.000 C 
ATOM     26  C   UNL     1       3.525   3.627  18.440  0.00  0.00    +0.000 C 
ATOM     27 BR   UNL     1       1.867   3.849  17.606  0.00  0.00    +0.000 Br
ATOM     28 BR   UNL     1       3.743   1.911  19.205  0.00  0.00    +0.000 Br
ENDBRANCH  19  20
ENDBRANCH   4  19
TORSDOF 5
ENDMDL
MODEL 5
REMARK VINA RESULT:      -7.8      1.963      2.532
REMARK  Name = 
REMARK  6 active torsions:
REMARK  status: ('A' for Active; 'I' for Inactive)
REMARK    1  A    between atoms: C_1  and  C_2
REMARK    2  A    between atoms: C_5  and  C_6
REMARK    3  A    between atoms: C_6  and  C_7
REMARK    4  A    between atoms: N_9  and  C_10
REMARK    5  A    between atoms: C_13  and  C_14
REMARK    6  A    between atoms: C_14  and  C_15
REMARK                            x       y       z     vdW  Elec       q    Type
REMARK                         _______ _______ _______ _____ _____    ______ ____
ROOT
ATOM      1  C   UNL     1       0.619   9.388  19.286  0.00  0.00    +0.000 A 
ATOM      2  C   UNL     1       1.347   9.145  18.119  0.00  0.00    +0.000 A 
ATOM      3  C   UNL     1       2.351   8.176  18.100  0.00  0.00    +0.000 A 
ATOM      4  C   UNL     1       2.631   7.427  19.251  0.00  0.00    +0.000 A 
ATOM      5  C   UNL     1       1.928   7.713  20.434  0.00  0.00    +0.000 A 
ATOM      6  C   UNL     1       0.946   8.711  20.459  0.00  0.00    +0.000 A 
ENDROOT
BRANCH   1   9
ATOM      7  C   UNL     1      -0.288  11.618  19.539  0.00  0.00    +0.000 C 
ATOM      8  O   UNL     1       0.806  12.129  19.784  0.00  0.00    +0.000 OA
ATOM      9  N   UNL     1      -0.487  10.267  19.274  0.00  0.00    +0.000 N 
ATOM     10  H   UNL     1      -1.241  10.060  18.631  0.00  0.00    +0.000 HD
BRANCH   7  11
ATOM     11  C   UNL     1      -1.541  12.468  19.481  0.00  0.00    +0.000 C 
BRANCH  11  16
ATOM     12  C   UNL     1      -4.652  12.651  24.420  0.00  0.00    +0.000 C 
ATOM     13  C   UNL     1      -3.855  12.603  23.151  0.00  0.00    +0.000 A 
ATOM     14  C   UNL     1      -2.512  12.218  23.154  0.00  0.00    +0.000 A 
ATOM     15  C   UNL     1      -1.786  12.169  21.960  0.00  0.00    +0.000 A 
ATOM     16  C   UNL     1      -2.389  12.493  20.733  0.00  0.00    +0.000 A 
ATOM     17  C   UNL     1      -3.723  12.918  20.742  0.00  0.00    +0.000 A 
ATOM     18  C   UNL     1      -4.451  12.961  21.935  0.00  0.00    +0.000 A 
ENDBRANCH  11  16
ENDBRANCH   7  11
ENDBRANCH   1   9
BRANCH   4  19
ATOM     19  C   UNL     1       3.719   6.368  19.224  0.00  0.00    +0.000 C 
BRANCH  19  20
ATOM     20  C   UNL     1       3.373   5.136  18.432  0.00  0.00    +0.000 C 
ATOM     21  C   UNL     1       2.386   4.288  18.729  0.00  0.00    +0.000 C 
ATOM     22  C   UNL     1       2.332   3.294  17.670  0.00  0.00    +0.000 C 
ATOM     23  O   UNL     1       1.550   2.371  17.640  0.00  0.00    +0.000 OA
ATOM     24  O   UNL     1       3.274   3.578  16.726  0.00  0.00    +0.000 OA
ATOM     25  C   UNL     1       3.994   4.685  17.205  0.00  0.00    +0.000 C 
ATOM     26  C   UNL     1       5.081   5.106  16.528  0.00  0.00    +0.000 C 
ATOM     27 BR   UNL     1       6.248   6.473  17.042  0.00  0.00    +0.000 Br
ATOM     28 BR   UNL     1       5.590   4.273  14.907  0.00  0.00    +0.000 Br
ENDBRANCH  19  20
ENDBRANCH   4  19
TORSDOF 5
ENDMDL
MODEL 6
REMARK VINA RESULT:      -7.7      4.631      9.518
REMARK  Name = 
REMARK  6 active torsions:
REMARK  status: ('A' for Active; 'I' for Inactive)
REMARK    1  A    between atoms: C_1  and  C_2
REMARK    2  A    between atoms: C_5  and  C_6
REMARK    3  A    between atoms: C_6  and  C_7
REMARK    4  A    between atoms: N_9  and  C_10
REMARK    5  A    between atoms: C_13  and  C_14
REMARK    6  A    between atoms: C_14  and  C_15
REMARK                            x       y       z     vdW  Elec       q    Type
REMARK                         _______ _______ _______ _____ _____    ______ ____
ROOT
ATOM      1  C   UNL     1       0.553  10.088  19.623  0.00  0.00    +0.000 A 
ATOM      2  C   UNL     1       0.812  11.105  20.545  0.00  0.00    +0.000 A 
ATOM      3  C   UNL     1      -0.144  12.088  20.802  0.00  0.00    +0.000 A 
ATOM      4  C   UNL     1      -1.382  12.057  20.145  0.00  0.00    +0.000 A 
ATOM      5  C   UNL     1      -1.614  11.060  19.182  0.00  0.00    +0.000 A 
ATOM      6  C   UNL     1      -0.638  10.097  18.900  0.00  0.00    +0.000 A 
ENDROOT
BRANCH   1   9
ATOM      7  C   UNL     1       2.072   8.822  18.226  0.00  0.00    +0.000 C 
ATOM      8  O   UNL     1       1.891   9.532  17.235  0.00  0.00    +0.000 OA
ATOM      9  N   UNL     1       1.459   9.016  19.460  0.00  0.00    +0.000 N 
ATOM     10  H   UNL     1       2.012   8.746  20.264  0.00  0.00    +0.000 HD
BRANCH   7  11
ATOM     11  C   UNL     1       3.038   7.655  18.173  0.00  0.00    +0.000 C 
BRANCH  11  16
ATOM     12  C   UNL     1       0.963   2.700  20.465  0.00  0.00    +0.000 C 
ATOM     13  C   UNL     1       1.497   3.971  19.875  0.00  0.00    +0.000 A 
ATOM     14  C   UNL     1       1.935   5.019  20.689  0.00  0.00    +0.000 A 
ATOM     15  C   UNL     1       2.440   6.193  20.123  0.00  0.00    +0.000 A 
ATOM     16  C   UNL     1       2.529   6.344  18.729  0.00  0.00    +0.000 A 
ATOM     17  C   UNL     1       2.049   5.308  17.918  0.00  0.00    +0.000 A 
ATOM     18  C   UNL     1       1.550   4.130  18.485  0.00  0.00    +0.000 A 
ENDBRANCH  11  16
ENDBRANCH   7  11
ENDBRANCH   1   9
BRANCH   4  19
ATOM     19  C   UNL     1      -2.423  13.125  20.434  0.00  0.00    +0.000 C 
BRANCH  19  20
ATOM     20  C   UNL     1      -3.314  12.827  21.609  0.00  0.00    +0.000 C 
ATOM     21  C   UNL     1      -2.928  12.844  22.886  0.00  0.00    +0.000 C 
ATOM     22  C   UNL     1      -4.106  12.594  23.701  0.00  0.00    +0.000 C 
ATOM     23  O   UNL     1      -4.099  12.533  24.910  0.00  0.00    +0.000 OA
ATOM     24  O   UNL     1      -5.200  12.459  22.898  0.00  0.00    +0.000 OA
ATOM     25  C   UNL     1      -4.730  12.529  21.575  0.00  0.00    +0.000 C 
ATOM     26  C   UNL     1      -5.587  12.295  20.561  0.00  0.00    +0.000 C 
ATOM     27 BR   UNL     1      -5.157  12.218  18.743  0.00  0.00    +0.000 Br
ATOM     28 BR   UNL     1      -7.417  11.959  20.901  0.00  0.00    +0.000 Br
ENDBRANCH  19  20
ENDBRANCH   4  19
TORSDOF 5
ENDMDL
MODEL 7
REMARK VINA RESULT:      -7.7      2.962      3.976
REMARK  Name = 
REMARK  6 active torsions:
REMARK  status: ('A' for Active; 'I' for Inactive)
REMARK    1  A    between atoms: C_1  and  C_2
REMARK    2  A    between atoms: C_5  and  C_6
REMARK    3  A    between atoms: C_6  and  C_7
REMARK    4  A    between atoms: N_9  and  C_10
REMARK    5  A    between atoms: C_13  and  C_14
REMARK    6  A    between atoms: C_14  and  C_15
REMARK                            x       y       z     vdW  Elec       q    Type
REMARK                         _______ _______ _______ _____ _____    ______ ____
ROOT
ATOM      1  C   UNL     1       1.296   8.986  20.244  0.00  0.00    +0.000 A 
ATOM      2  C   UNL     1       1.730   7.754  20.740  0.00  0.00    +0.000 A 
ATOM      3  C   UNL     1       2.327   6.821  19.893  0.00  0.00    +0.000 A 
ATOM      4  C   UNL     1       2.508   7.114  18.535  0.00  0.00    +0.000 A 
ATOM      5  C   UNL     1       2.022   8.334  18.034  0.00  0.00    +0.000 A 
ATOM      6  C   UNL     1       1.391   9.254  18.880  0.00  0.00    +0.000 A 
ENDROOT
BRANCH   1   9
ATOM      7  C   UNL     1      -0.226   9.691  21.989  0.00  0.00    +0.000 C 
ATOM      8  O   UNL     1      -0.782   8.594  22.068  0.00  0.00    +0.000 OA
ATOM      9  N   UNL     1       0.818   9.987  21.118  0.00  0.00    +0.000 N 
ATOM     10  H   UNL     1       1.487  10.665  21.462  0.00  0.00    +0.000 HD
BRANCH   7  11
ATOM     11  C   UNL     1      -0.643  10.835  22.893  0.00  0.00    +0.000 C 
BRANCH  11  16
ATOM     12  C   UNL     1      -5.186  14.125  21.265  0.00  0.00    +0.000 C 
ATOM     13  C   UNL     1      -4.019  13.278  21.681  0.00  0.00    +0.000 A 
ATOM     14  C   UNL     1      -3.885  12.829  22.997  0.00  0.00    +0.000 A 
ATOM     15  C   UNL     1      -2.797  12.032  23.366  0.00  0.00    +0.000 A 
ATOM     16  C   UNL     1      -1.823  11.657  22.426  0.00  0.00    +0.000 A 
ATOM     17  C   UNL     1      -1.941  12.146  21.118  0.00  0.00    +0.000 A 
ATOM     18  C   UNL     1      -3.033  12.937  20.748  0.00  0.00    +0.000 A 
ENDBRANCH  11  16
ENDBRANCH   7  11
ENDBRANCH   1   9
BRANCH   4  19
ATOM     19  C   UNL     1       3.165   6.097  17.618  0.00  0.00    +0.000 C 
BRANCH  19  20
ATOM     20  C   UNL     1       4.478   5.558  18.121  0.00  0.00    +0.000 C 
ATOM     21  C   UNL     1       5.659   6.160  17.972  0.00  0.00    +0.000 C 
ATOM     22  C   UNL     1       6.647   5.361  18.677  0.00  0.00    +0.000 C 
ATOM     23  O   UNL     1       7.827   5.625  18.730  0.00  0.00    +0.000 OA
ATOM     24  O   UNL     1       6.037   4.296  19.273  0.00  0.00    +0.000 OA
ATOM     25  C   UNL     1       4.687   4.348  18.887  0.00  0.00    +0.000 C 
ATOM     26  C   UNL     1       3.866   3.334  19.229  0.00  0.00    +0.000 C 
ATOM     27 BR   UNL     1       2.077   3.138  18.725  0.00  0.00    +0.000 Br
ATOM     28 BR   UNL     1       4.497   1.897  20.286  0.00  0.00    +0.000 Br
ENDBRANCH  19  20
ENDBRANCH   4  19
TORSDOF 5
ENDMDL
MODEL 8
REMARK VINA RESULT:      -7.7      3.768      9.537
REMARK  Name = 
REMARK  6 active torsions:
REMARK  status: ('A' for Active; 'I' for Inactive)
REMARK    1  A    between atoms: C_1  and  C_2
REMARK    2  A    between atoms: C_5  and  C_6
REMARK    3  A    between atoms: C_6  and  C_7
REMARK    4  A    between atoms: N_9  and  C_10
REMARK    5  A    between atoms: C_13  and  C_14
REMARK    6  A    between atoms: C_14  and  C_15
REMARK                            x       y       z     vdW  Elec       q    Type
REMARK                         _______ _______ _______ _____ _____    ______ ____
ROOT
ATOM      1  C   UNL     1       2.411   7.103  19.766  0.00  0.00    +0.000 A 
ATOM      2  C   UNL     1       2.202   8.112  18.822  0.00  0.00    +0.000 A 
ATOM      3  C   UNL     1       1.305   9.148  19.080  0.00  0.00    +0.000 A 
ATOM      4  C   UNL     1       0.611   9.194  20.297  0.00  0.00    +0.000 A 
ATOM      5  C   UNL     1       0.788   8.148  21.218  0.00  0.00    +0.000 A 
ATOM      6  C   UNL     1       1.662   7.090  20.941  0.00  0.00    +0.000 A 
ENDROOT
BRANCH   1   9
ATOM      7  C   UNL     1       3.049   4.822  19.265  0.00  0.00    +0.000 C 
ATOM      8  O   UNL     1       1.887   4.431  19.142  0.00  0.00    +0.000 OA
ATOM      9  N   UNL     1       3.416   6.129  19.570  0.00  0.00    +0.000 N 
ATOM     10  H   UNL     1       4.291   6.438  19.165  0.00  0.00    +0.000 HD
BRANCH   7  11
ATOM     11  C   UNL     1       4.210   3.869  19.057  0.00  0.00    +0.000 C 
BRANCH  11  16
ATOM     12  C   UNL     1       7.312   4.894  14.216  0.00  0.00    +0.000 C 
ATOM     13  C   UNL     1       6.517   4.630  15.460  0.00  0.00    +0.000 A 
ATOM     14  C   UNL     1       5.175   4.245  15.393  0.00  0.00    +0.000 A 
ATOM     15  C   UNL     1       4.452   3.992  16.563  0.00  0.00    +0.000 A 
ATOM     16  C   UNL     1       5.055   4.108  17.826  0.00  0.00    +0.000 A 
ATOM     17  C   UNL     1       6.388   4.535  17.888  0.00  0.00    +0.000 A 
ATOM     18  C   UNL     1       7.113   4.781  16.718  0.00  0.00    +0.000 A 
ENDBRANCH  11  16
ENDBRANCH   7  11
ENDBRANCH   1   9
BRANCH   4  19
ATOM     19  C   UNL     1      -0.359  10.329  20.576  0.00  0.00    +0.000 C 
BRANCH  19  20
ATOM     20  C   UNL     1      -0.899  11.007  19.346  0.00  0.00    +0.000 C 
ATOM     21  C   UNL     1      -1.689  10.430  18.439  0.00  0.00    +0.000 C 
ATOM     22  C   UNL     1      -2.056  11.449  17.469  0.00  0.00    +0.000 C 
ATOM     23  O   UNL     1      -2.760  11.252  16.505  0.00  0.00    +0.000 OA
ATOM     24  O   UNL     1      -1.501  12.643  17.826  0.00  0.00    +0.000 OA
ATOM     25  C   UNL     1      -0.711  12.389  18.960  0.00  0.00    +0.000 C 
ATOM     26  C   UNL     1       0.064  13.375  19.455  0.00  0.00    +0.000 C 
ATOM     27 BR   UNL     1       1.275  13.228  20.871  0.00  0.00    +0.000 Br
ATOM     28 BR   UNL     1       0.030  15.105  18.690  0.00  0.00    +0.000 Br
ENDBRANCH  19  20
ENDBRANCH   4  19
TORSDOF 5
ENDMDL
MODEL 9
REMARK VINA RESULT:      -7.6      1.128      1.501
REMARK  Name = 
REMARK  6 active torsions:
REMARK  status: ('A' for Active; 'I' for Inactive)
REMARK    1  A    between atoms: C_1  and  C_2
REMARK    2  A    between atoms: C_5  and  C_6
REMARK    3  A    between atoms: C_6  and  C_7
REMARK    4  A    between atoms: N_9  and  C_10
REMARK    5  A    between atoms: C_13  and  C_14
REMARK    6  A    between atoms: C_14  and  C_15
REMARK                            x       y       z     vdW  Elec       q    Type
REMARK                         _______ _______ _______ _____ _____    ______ ____
ROOT
ATOM      1  C   UNL     1       0.966   9.517  18.603  0.00  0.00    +0.000 A 
ATOM      2  C   UNL     1       1.889   9.090  17.645  0.00  0.00    +0.000 A 
ATOM      3  C   UNL     1       2.743   8.019  17.912  0.00  0.00    +0.000 A 
ATOM      4  C   UNL     1       2.675   7.353  19.143  0.00  0.00    +0.000 A 
ATOM      5  C   UNL     1       1.780   7.822  20.120  0.00  0.00    +0.000 A 
ATOM      6  C   UNL     1       0.950   8.920  19.862  0.00  0.00    +0.000 A 
ENDROOT
BRANCH   1   9
ATOM      7  C   UNL     1      -0.116  11.621  19.114  0.00  0.00    +0.000 C 
ATOM      8  O   UNL     1       0.563  11.827  20.121  0.00  0.00    +0.000 OA
ATOM      9  N   UNL     1       0.008  10.507  18.290  0.00  0.00    +0.000 N 
ATOM     10  H   UNL     1      -0.191  10.670  17.311  0.00  0.00    +0.000 HD
BRANCH   7  11
ATOM     11  C   UNL     1      -1.161  12.626  18.670  0.00  0.00    +0.000 C 
BRANCH  11  16
ATOM     12  C   UNL     1      -6.726  10.860  18.492  0.00  0.00    +0.000 C 
ATOM     13  C   UNL     1      -5.296  11.312  18.537  0.00  0.00    +0.000 A 
ATOM     14  C   UNL     1      -4.800  12.036  19.624  0.00  0.00    +0.000 A 
ATOM     15  C   UNL     1      -3.462  12.440  19.654  0.00  0.00    +0.000 A 
ATOM     16  C   UNL     1      -2.585  12.120  18.605  0.00  0.00    +0.000 A 
ATOM     17  C   UNL     1      -3.099  11.430  17.499  0.00  0.00    +0.000 A 
ATOM     18  C   UNL     1      -4.436  11.021  17.472  0.00  0.00    +0.000 A 
ENDBRANCH  11  16
ENDBRANCH   7  11
ENDBRANCH   1   9
BRANCH   4  19
ATOM     19  C   UNL     1       3.602   6.184  19.427  0.00  0.00    +0.000 C 
BRANCH  19  20
ATOM     20  C   UNL     1       3.345   4.964  18.583  0.00  0.00    +0.000 C 
ATOM     21  C   UNL     1       2.404   4.051  18.826  0.00  0.00    +0.000 C 
ATOM     22  C   UNL     1       2.431   3.096  17.729  0.00  0.00    +0.000 C 
ATOM     23  O   UNL     1       1.706   2.130  17.647  0.00  0.00    +0.000 OA
ATOM     24  O   UNL     1       3.375   3.469  16.819  0.00  0.00    +0.000 OA
ATOM     25  C   UNL     1       4.018   4.597  17.355  0.00  0.00    +0.000 C 
ATOM     26  C   UNL     1       5.093   5.105  16.720  0.00  0.00    +0.000 C 
ATOM     27 BR   UNL     1       6.166   6.517  17.311  0.00  0.00    +0.000 Br
ATOM     28 BR   UNL     1       5.684   4.365  15.082  0.00  0.00    +0.000 Br
ENDBRANCH  19  20
ENDBRANCH   4  19
TORSDOF 5
ENDMDL
