MODEL 1
REMARK VINA RESULT:      -7.7      0.000      0.000
REMARK  Name = 
REMARK  16 active torsions:
REMARK  status: ('A' for Active; 'I' for Inactive)
REMARK    1  A    between atoms: C_1  and  C_2
REMARK    2  A    between atoms: C_2  and  O_4
REMARK    3  A    between atoms: O_4  and  C_5
REMARK    4  A    between atoms: C_5  and  C_6
REMARK    5  A    between atoms: C_5  and  C_7
REMARK    6  A    between atoms: C_8  and  C_9
REMARK    7  A    between atoms: N_11  and  C_12
REMARK    8  A    between atoms: C_14  and  C_15
REMARK    9  A    between atoms: C_16  and  C_17
REMARK   10  A    between atoms: C_17  and  C_18
REMARK   11  A    between atoms: C_19  and  C_20
REMARK   12  A    between atoms: C_19  and  C_21
REMARK   13  A    between atoms: C_22  and  C_23
REMARK   14  A    between atoms: C_29  and  C_30
REMARK   15  A    between atoms: C_31  and  O_32
REMARK   16  A    between atoms: C_34  and  C_35
REMARK                            x       y       z     vdW  Elec       q    Type
REMARK                         _______ _______ _______ _____ _____    ______ ____
ROOT
ATOM      1  C   UNL     1       5.616   5.091  17.080  0.00  0.00    +0.000 C 
ATOM      2  C   UNL     1       7.115   4.736  17.129  0.00  0.00    +0.000 C 
ATOM      3  C   UNL     1       7.944   5.702  17.998  0.00  0.00    +0.000 C 
ATOM      4  C   UNL     1       7.690   5.484  19.496  0.00  0.00    +0.000 C 
ATOM      5  C   UNL     1       7.666   7.151  17.549  0.00  0.00    +0.000 C 
ATOM      6  O   UNL     1       6.247   7.414  17.586  0.00  0.00    +0.000 OA
ATOM      7  C   UNL     1       5.501   6.583  16.681  0.00  0.00    +0.000 C 
ATOM      8  C   UNL     1       4.071   7.106  16.650  0.00  0.00    +0.000 C 
ENDROOT
BRANCH   1  11
ATOM      9  C   UNL     1       4.434   3.525  18.583  0.00  0.00    +0.000 C 
ATOM     10  O   UNL     1       4.273   2.681  17.709  0.00  0.00    +0.000 OA
ATOM     11  N   UNL     1       4.947   4.777  18.348  0.00  0.00    +0.000 N 
ATOM     12  H   UNL     1       5.129   5.390  19.131  0.00  0.00    +0.000 HD
BRANCH   9  14
ATOM     13  C   UNL     1       3.038   3.756  20.642  0.00  0.00    +0.000 C 
ATOM     14  C   UNL     1       4.117   3.255  20.009  0.00  0.00    +0.000 C 
BRANCH  13  15
ATOM     15  C   UNL     1       1.947   4.611  20.032  0.00  0.00    +0.000 C 
ATOM     16  C   UNL     1       1.596   5.757  20.976  0.00  0.00    +0.000 C 
BRANCH  15  17
ATOM     17  O   UNL     1       0.774   3.779  19.847  0.00  0.00    +0.000 OA
BRANCH  17  19
ATOM     18  C   UNL     1       1.174   4.065  17.540  0.00  0.00    +0.000 C 
ATOM     19  C   UNL     1       0.698   3.160  18.625  0.00  0.00    +0.000 C 
ATOM     20  O   UNL     1       0.297   2.020  18.431  0.00  0.00    +0.000 OA
ENDBRANCH  17  19
ENDBRANCH  15  17
ENDBRANCH  13  15
ENDBRANCH   9  14
ENDBRANCH   1  11
BRANCH   5  21
ATOM     21  C   UNL     1       8.336   8.241  18.409  0.00  0.00    +0.000 C 
BRANCH  21  22
ATOM     22  C   UNL     1       8.234   9.660  17.901  0.00  0.00    +0.000 C 
ATOM     23  C   UNL     1       8.863  10.717  18.463  0.00  0.00    +0.000 C 
ATOM     24  C   UNL     1       9.736  10.584  19.688  0.00  0.00    +0.000 C 
BRANCH  23  25
ATOM     25  C   UNL     1       8.747  12.046  17.846  0.00  0.00    +0.000 C 
ATOM     26  C   UNL     1       9.009  13.215  18.461  0.00  0.00    +0.000 C 
BRANCH  26  27
ATOM     27  C   UNL     1       9.040  14.607  17.861  0.00  0.00    +0.000 C 
ATOM     28  O   UNL     1       7.739  15.121  17.493  0.00  0.00    +0.000 OA
ATOM     29  C   UNL     1       6.945  15.637  18.574  0.00  0.00    +0.000 C 
ATOM     30  C   UNL     1       7.684  16.695  19.386  0.00  0.00    +0.000 C 
ATOM     31  C   UNL     1       8.969  16.078  19.833  0.00  0.00    +0.000 C 
ATOM     32  O   UNL     1       9.530  16.608  21.037  0.00  0.00    +0.000 OA
ATOM     33  C   UNL     1       9.065  15.254  21.104  0.00  0.00    +0.000 C 
ATOM     34  C   UNL     1       7.851  14.954  21.904  0.00  0.00    +0.000 C 
ATOM     35  C   UNL     1       9.849  15.645  18.700  0.00  0.00    +0.000 C 
BRANCH  35  36
ATOM     36  O   UNL     1      10.186  16.772  17.879  0.00  0.00    +0.000 OA
ATOM     37  H   UNL     1      11.157  16.781  17.794  0.00  0.00    +0.000 HD
ENDBRANCH  35  36
ENDBRANCH  26  27
ENDBRANCH  23  25
ENDBRANCH  21  22
ENDBRANCH   5  21
TORSDOF 10
ENDMDL
MODEL 2
REMARK VINA RESULT:      -7.3      6.800     11.769
REMARK  Name = 
REMARK  16 active torsions:
REMARK  status: ('A' for Active; 'I' for Inactive)
REMARK    1  A    between atoms: C_1  and  C_2
REMARK    2  A    between atoms: C_2  and  O_4
REMARK    3  A    between atoms: O_4  and  C_5
REMARK    4  A    between atoms: C_5  and  C_6
REMARK    5  A    between atoms: C_5  and  C_7
REMARK    6  A    between atoms: C_8  and  C_9
REMARK    7  A    between atoms: N_11  and  C_12
REMARK    8  A    between atoms: C_14  and  C_15
REMARK    9  A    between atoms: C_16  and  C_17
REMARK   10  A    between atoms: C_17  and  C_18
REMARK   11  A    between atoms: C_19  and  C_20
REMARK   12  A    between atoms: C_19  and  C_21
REMARK   13  A    between atoms: C_22  and  C_23
REMARK   14  A    between atoms: C_29  and  C_30
REMARK   15  A    between atoms: C_31  and  O_32
REMARK   16  A    between atoms: C_34  and  C_35
REMARK                            x       y       z     vdW  Elec       q    Type
REMARK                         _______ _______ _______ _____ _____    ______ ____
ROOT
ATOM      1  C   UNL     1      -0.022  13.615  20.929  0.00  0.00    +0.000 C 
ATOM      2  C   UNL     1      -1.141  12.590  20.662  0.00  0.00    +0.000 C 
ATOM      3  C   UNL     1      -0.850  11.198  21.259  0.00  0.00    +0.000 C 
ATOM      4  C   UNL     1      -0.999  11.189  22.787  0.00  0.00    +0.000 C 
ATOM      5  C   UNL     1       0.543  10.729  20.791  0.00  0.00    +0.000 C 
ATOM      6  O   UNL     1       1.535  11.722  21.128  0.00  0.00    +0.000 OA
ATOM      7  C   UNL     1       1.313  12.980  20.470  0.00  0.00    +0.000 C 
ATOM      8  C   UNL     1       2.535  13.854  20.727  0.00  0.00    +0.000 C 
ENDROOT
BRANCH   1  11
ATOM      9  C   UNL     1      -0.599  15.223  22.715  0.00  0.00    +0.000 C 
ATOM     10  O   UNL     1      -0.951  16.095  21.928  0.00  0.00    +0.000 OA
ATOM     11  N   UNL     1      -0.009  14.044  22.332  0.00  0.00    +0.000 N 
ATOM     12  H   UNL     1       0.178  13.336  23.030  0.00  0.00    +0.000 HD
BRANCH   9  14
ATOM     13  C   UNL     1      -2.012  15.151  24.774  0.00  0.00    +0.000 C 
ATOM     14  C   UNL     1      -0.818  15.346  24.179  0.00  0.00    +0.000 C 
BRANCH  13  15
ATOM     15  C   UNL     1      -3.300  14.728  24.102  0.00  0.00    +0.000 C 
ATOM     16  C   UNL     1      -4.407  15.727  24.423  0.00  0.00    +0.000 C 
BRANCH  15  17
ATOM     17  O   UNL     1      -3.675  13.428  24.625  0.00  0.00    +0.000 OA
BRANCH  17  19
ATOM     18  C   UNL     1      -4.323  12.788  22.450  0.00  0.00    +0.000 C 
ATOM     19  C   UNL     1      -4.645  12.779  23.906  0.00  0.00    +0.000 C 
ATOM     20  O   UNL     1      -5.648  12.258  24.375  0.00  0.00    +0.000 OA
ENDBRANCH  17  19
ENDBRANCH  15  17
ENDBRANCH  13  15
ENDBRANCH   9  14
ENDBRANCH   1  11
BRANCH   5  21
ATOM     21  C   UNL     1       1.025   9.401  21.406  0.00  0.00    +0.000 C 
BRANCH  21  22
ATOM     22  C   UNL     1       1.589   8.378  20.448  0.00  0.00    +0.000 C 
ATOM     23  C   UNL     1       1.643   8.538  19.106  0.00  0.00    +0.000 C 
ATOM     24  C   UNL     1       1.121   9.776  18.417  0.00  0.00    +0.000 C 
BRANCH  23  25
ATOM     25  C   UNL     1       2.274   7.505  18.273  0.00  0.00    +0.000 C 
ATOM     26  C   UNL     1       2.526   6.241  18.660  0.00  0.00    +0.000 C 
BRANCH  26  27
ATOM     27  C   UNL     1       3.049   5.089  17.824  0.00  0.00    +0.000 C 
ATOM     28  O   UNL     1       4.412   4.709  18.127  0.00  0.00    +0.000 OA
ATOM     29  C   UNL     1       4.588   3.899  19.301  0.00  0.00    +0.000 C 
ATOM     30  C   UNL     1       3.719   2.646  19.279  0.00  0.00    +0.000 C 
ATOM     31  C   UNL     1       2.310   3.100  19.073  0.00  0.00    +0.000 C 
ATOM     32  O   UNL     1       1.295   2.236  19.590  0.00  0.00    +0.000 OA
ATOM     33  C   UNL     1       1.422   3.511  20.233  0.00  0.00    +0.000 C 
ATOM     34  C   UNL     1       1.960   3.564  21.616  0.00  0.00    +0.000 C 
ATOM     35  C   UNL     1       2.105   3.846  17.790  0.00  0.00    +0.000 C 
BRANCH  35  36
ATOM     36  O   UNL     1       2.445   3.011  16.674  0.00  0.00    +0.000 OA
ATOM     37  H   UNL     1       3.019   3.539  16.089  0.00  0.00    +0.000 HD
ENDBRANCH  35  36
ENDBRANCH  26  27
ENDBRANCH  23  25
ENDBRANCH  21  22
ENDBRANCH   5  21
TORSDOF 10
ENDMDL
MODEL 3
REMARK VINA RESULT:      -7.2      0.965      1.635
REMARK  Name = 
REMARK  16 active torsions:
REMARK  status: ('A' for Active; 'I' for Inactive)
REMARK    1  A    between atoms: C_1  and  C_2
REMARK    2  A    between atoms: C_2  and  O_4
REMARK    3  A    between atoms: O_4  and  C_5
REMARK    4  A    between atoms: C_5  and  C_6
REMARK    5  A    between atoms: C_5  and  C_7
REMARK    6  A    between atoms: C_8  and  C_9
REMARK    7  A    between atoms: N_11  and  C_12
REMARK    8  A    between atoms: C_14  and  C_15
REMARK    9  A    between atoms: C_16  and  C_17
REMARK   10  A    between atoms: C_17  and  C_18
REMARK   11  A    between atoms: C_19  and  C_20
REMARK   12  A    between atoms: C_19  and  C_21
REMARK   13  A    between atoms: C_22  and  C_23
REMARK   14  A    between atoms: C_29  and  C_30
REMARK   15  A    between atoms: C_31  and  O_32
REMARK   16  A    between atoms: C_34  and  C_35
REMARK                            x       y       z     vdW  Elec       q    Type
REMARK                         _______ _______ _______ _____ _____    ______ ____
ROOT
ATOM      1  C   UNL     1       5.722   4.943  17.045  0.00  0.00    +0.000 C 
ATOM      2  C   UNL     1       7.218   4.596  17.177  0.00  0.00    +0.000 C 
ATOM      3  C   UNL     1       7.999   5.586  18.065  0.00  0.00    +0.000 C 
ATOM      4  C   UNL     1       7.669   5.402  19.553  0.00  0.00    +0.000 C 
ATOM      5  C   UNL     1       7.739   7.023  17.567  0.00  0.00    +0.000 C 
ATOM      6  O   UNL     1       6.319   7.280  17.526  0.00  0.00    +0.000 OA
ATOM      7  C   UNL     1       5.623   6.424  16.605  0.00  0.00    +0.000 C 
ATOM      8  C   UNL     1       4.194   6.941  16.488  0.00  0.00    +0.000 C 
ENDROOT
BRANCH   1  11
ATOM      9  C   UNL     1       4.334   3.462  18.455  0.00  0.00    +0.000 C 
ATOM     10  O   UNL     1       4.101   2.677  17.542  0.00  0.00    +0.000 OA
ATOM     11  N   UNL     1       4.991   4.656  18.284  0.00  0.00    +0.000 N 
ATOM     12  H   UNL     1       5.222   5.212  19.096  0.00  0.00    +0.000 HD
BRANCH   9  14
ATOM     13  C   UNL     1       2.818   3.619  20.435  0.00  0.00    +0.000 C 
ATOM     14  C   UNL     1       3.954   3.173  19.862  0.00  0.00    +0.000 C 
BRANCH  13  15
ATOM     15  C   UNL     1       1.722   4.421  19.767  0.00  0.00    +0.000 C 
ATOM     16  C   UNL     1       0.991   3.555  18.747  0.00  0.00    +0.000 C 
BRANCH  15  17
ATOM     17  O   UNL     1       2.339   5.538  19.078  0.00  0.00    +0.000 OA
BRANCH  17  19
ATOM     18  C   UNL     1       1.410   6.624  20.954  0.00  0.00    +0.000 C 
ATOM     19  C   UNL     1       2.073   6.767  19.626  0.00  0.00    +0.000 C 
ATOM     20  O   UNL     1       2.335   7.846  19.112  0.00  0.00    +0.000 OA
ENDBRANCH  17  19
ENDBRANCH  15  17
ENDBRANCH  13  15
ENDBRANCH   9  14
ENDBRANCH   1  11
BRANCH   5  21
ATOM     21  C   UNL     1       8.361   8.136  18.434  0.00  0.00    +0.000 C 
BRANCH  21  22
ATOM     22  C   UNL     1       8.208   9.551  17.928  0.00  0.00    +0.000 C 
ATOM     23  C   UNL     1       8.806  10.628  18.485  0.00  0.00    +0.000 C 
ATOM     24  C   UNL     1       9.694  10.523  19.702  0.00  0.00    +0.000 C 
BRANCH  23  25
ATOM     25  C   UNL     1       8.642  11.953  17.870  0.00  0.00    +0.000 C 
ATOM     26  C   UNL     1       8.813  13.130  18.501  0.00  0.00    +0.000 C 
BRANCH  26  27
ATOM     27  C   UNL     1       8.790  14.526  17.908  0.00  0.00    +0.000 C 
ATOM     28  O   UNL     1       7.503  14.924  17.381  0.00  0.00    +0.000 OA
ATOM     29  C   UNL     1       6.536  15.353  18.354  0.00  0.00    +0.000 C 
ATOM     30  C   UNL     1       7.068  16.464  19.252  0.00  0.00    +0.000 C 
ATOM     31  C   UNL     1       8.339  15.962  19.856  0.00  0.00    +0.000 C 
ATOM     32  O   UNL     1       8.694  16.527  21.121  0.00  0.00    +0.000 OA
ATOM     33  C   UNL     1       8.350  15.135  21.129  0.00  0.00    +0.000 C 
ATOM     34  C   UNL     1       7.079  14.718  21.771  0.00  0.00    +0.000 C 
ATOM     35  C   UNL     1       9.389  15.624  18.843  0.00  0.00    +0.000 C 
BRANCH  35  36
ATOM     36  O   UNL     1       9.721  16.786  18.070  0.00  0.00    +0.000 OA
ATOM     37  H   UNL     1       8.884  17.144  17.720  0.00  0.00    +0.000 HD
ENDBRANCH  35  36
ENDBRANCH  26  27
ENDBRANCH  23  25
ENDBRANCH  21  22
ENDBRANCH   5  21
TORSDOF 10
ENDMDL
MODEL 4
REMARK VINA RESULT:      -7.1      5.445     11.734
REMARK  Name = 
REMARK  16 active torsions:
REMARK  status: ('A' for Active; 'I' for Inactive)
REMARK    1  A    between atoms: C_1  and  C_2
REMARK    2  A    between atoms: C_2  and  O_4
REMARK    3  A    between atoms: O_4  and  C_5
REMARK    4  A    between atoms: C_5  and  C_6
REMARK    5  A    between atoms: C_5  and  C_7
REMARK    6  A    between atoms: C_8  and  C_9
REMARK    7  A    between atoms: N_11  and  C_12
REMARK    8  A    between atoms: C_14  and  C_15
REMARK    9  A    between atoms: C_16  and  C_17
REMARK   10  A    between atoms: C_17  and  C_18
REMARK   11  A    between atoms: C_19  and  C_20
REMARK   12  A    between atoms: C_19  and  C_21
REMARK   13  A    between atoms: C_22  and  C_23
REMARK   14  A    between atoms: C_29  and  C_30
REMARK   15  A    between atoms: C_31  and  O_32
REMARK   16  A    between atoms: C_34  and  C_35
REMARK                            x       y       z     vdW  Elec       q    Type
REMARK                         _______ _______ _______ _____ _____    ______ ____
ROOT
ATOM      1  C   UNL     1       0.305  13.867  21.702  0.00  0.00    +0.000 C 
ATOM      2  C   UNL     1       1.590  13.332  21.040  0.00  0.00    +0.000 C 
ATOM      3  C   UNL     1       1.347  12.102  20.141  0.00  0.00    +0.000 C 
ATOM      4  C   UNL     1       0.648  12.483  18.829  0.00  0.00    +0.000 C 
ATOM      5  C   UNL     1       0.573  11.036  20.944  0.00  0.00    +0.000 C 
ATOM      6  O   UNL     1      -0.639  11.607  21.481  0.00  0.00    +0.000 OA
ATOM      7  C   UNL     1      -0.389  12.677  22.408  0.00  0.00    +0.000 C 
ATOM      8  C   UNL     1      -1.717  13.035  23.064  0.00  0.00    +0.000 C 
ENDROOT
BRANCH   1  11
ATOM      9  C   UNL     1      -0.403  15.888  20.468  0.00  0.00    +0.000 C 
ATOM     10  O   UNL     1       0.263  16.646  21.165  0.00  0.00    +0.000 OA
ATOM     11  N   UNL     1      -0.557  14.549  20.731  0.00  0.00    +0.000 N 
ATOM     12  H   UNL     1      -1.052  13.970  20.066  0.00  0.00    +0.000 HD
BRANCH   9  14
ATOM     13  C   UNL     1      -0.459  16.996  18.230  0.00  0.00    +0.000 C 
ATOM     14  C   UNL     1      -1.086  16.349  19.232  0.00  0.00    +0.000 C 
BRANCH  13  15
ATOM     15  C   UNL     1       1.017  17.317  18.143  0.00  0.00    +0.000 C 
ATOM     16  C   UNL     1       1.280  18.243  16.960  0.00  0.00    +0.000 C 
BRANCH  15  17
ATOM     17  O   UNL     1       1.736  16.075  17.936  0.00  0.00    +0.000 OA
BRANCH  17  19
ATOM     18  C   UNL     1       3.654  14.738  18.251  0.00  0.00    +0.000 C 
ATOM     19  C   UNL     1       2.899  15.960  18.654  0.00  0.00    +0.000 C 
ATOM     20  O   UNL     1       3.283  16.741  19.513  0.00  0.00    +0.000 OA
ENDBRANCH  17  19
ENDBRANCH  15  17
ENDBRANCH  13  15
ENDBRANCH   9  14
ENDBRANCH   1  11
BRANCH   5  21
ATOM     21  C   UNL     1       0.151   9.792  20.137  0.00  0.00    +0.000 C 
BRANCH  21  22
ATOM     22  C   UNL     1       1.164   8.676  20.036  0.00  0.00    +0.000 C 
ATOM     23  C   UNL     1       1.826   8.346  18.904  0.00  0.00    +0.000 C 
ATOM     24  C   UNL     1       1.600   9.066  17.596  0.00  0.00    +0.000 C 
BRANCH  23  25
ATOM     25  C   UNL     1       2.842   7.285  18.935  0.00  0.00    +0.000 C 
ATOM     26  C   UNL     1       3.488   6.796  17.860  0.00  0.00    +0.000 C 
BRANCH  26  27
ATOM     27  C   UNL     1       4.633   5.802  17.825  0.00  0.00    +0.000 C 
ATOM     28  O   UNL     1       5.174   5.475  19.126  0.00  0.00    +0.000 OA
ATOM     29  C   UNL     1       4.415   4.529  19.897  0.00  0.00    +0.000 C 
ATOM     30  C   UNL     1       4.149   3.236  19.133  0.00  0.00    +0.000 C 
ATOM     31  C   UNL     1       3.493   3.620  17.847  0.00  0.00    +0.000 C 
ATOM     32  O   UNL     1       2.644   2.631  17.261  0.00  0.00    +0.000 OA
ATOM     33  C   UNL     1       1.991   3.814  17.740  0.00  0.00    +0.000 C 
ATOM     34  C   UNL     1       1.128   3.717  18.943  0.00  0.00    +0.000 C 
ATOM     35  C   UNL     1       4.335   4.516  16.991  0.00  0.00    +0.000 C 
BRANCH  35  36
ATOM     36  O   UNL     1       5.567   3.862  16.656  0.00  0.00    +0.000 OA
ATOM     37  H   UNL     1       5.609   3.044  17.185  0.00  0.00    +0.000 HD
ENDBRANCH  35  36
ENDBRANCH  26  27
ENDBRANCH  23  25
ENDBRANCH  21  22
ENDBRANCH   5  21
TORSDOF 10
ENDMDL
MODEL 5
REMARK VINA RESULT:      -7.1      6.801     11.872
REMARK  Name = 
REMARK  16 active torsions:
REMARK  status: ('A' for Active; 'I' for Inactive)
REMARK    1  A    between atoms: C_1  and  C_2
REMARK    2  A    between atoms: C_2  and  O_4
REMARK    3  A    between atoms: O_4  and  C_5
REMARK    4  A    between atoms: C_5  and  C_6
REMARK    5  A    between atoms: C_5  and  C_7
REMARK    6  A    between atoms: C_8  and  C_9
REMARK    7  A    between atoms: N_11  and  C_12
REMARK    8  A    between atoms: C_14  and  C_15
REMARK    9  A    between atoms: C_16  and  C_17
REMARK   10  A    between atoms: C_17  and  C_18
REMARK   11  A    between atoms: C_19  and  C_20
REMARK   12  A    between atoms: C_19  and  C_21
REMARK   13  A    between atoms: C_22  and  C_23
REMARK   14  A    between atoms: C_29  and  C_30
REMARK   15  A    between atoms: C_31  and  O_32
REMARK   16  A    between atoms: C_34  and  C_35
REMARK                            x       y       z     vdW  Elec       q    Type
REMARK                         _______ _______ _______ _____ _____    ______ ____
ROOT
ATOM      1  C   UNL     1      -0.430  13.428  19.450  0.00  0.00    +0.000 C 
ATOM      2  C   UNL     1      -0.445  12.460  18.250  0.00  0.00    +0.000 C 
ATOM      3  C   UNL     1      -0.377  10.976  18.661  0.00  0.00    +0.000 C 
ATOM      4  C   UNL     1      -1.702  10.489  19.264  0.00  0.00    +0.000 C 
ATOM      5  C   UNL     1       0.823  10.769  19.609  0.00  0.00    +0.000 C 
ATOM      6  O   UNL     1       0.728  11.675  20.728  0.00  0.00    +0.000 OA
ATOM      7  C   UNL     1       0.784  13.056  20.335  0.00  0.00    +0.000 C 
ATOM      8  C   UNL     1       0.902  13.890  21.605  0.00  0.00    +0.000 C 
ENDROOT
BRANCH   1  11
ATOM      9  C   UNL     1      -2.316  14.572  20.563  0.00  0.00    +0.000 C 
ATOM     10  O   UNL     1      -1.759  15.665  20.562  0.00  0.00    +0.000 OA
ATOM     11  N   UNL     1      -1.706  13.406  20.174  0.00  0.00    +0.000 N 
ATOM     12  H   UNL     1      -2.252  12.557  20.121  0.00  0.00    +0.000 HD
BRANCH   9  14
ATOM     13  C   UNL     1      -4.135  13.986  22.171  0.00  0.00    +0.000 C 
ATOM     14  C   UNL     1      -3.740  14.413  20.956  0.00  0.00    +0.000 C 
BRANCH  13  15
ATOM     15  C   UNL     1      -3.243  13.655  23.349  0.00  0.00    +0.000 C 
ATOM     16  C   UNL     1      -3.778  12.425  24.076  0.00  0.00    +0.000 C 
BRANCH  15  17
ATOM     17  O   UNL     1      -3.262  14.783  24.259  0.00  0.00    +0.000 OA
BRANCH  17  19
ATOM     18  C   UNL     1      -2.143  16.759  24.895  0.00  0.00    +0.000 C 
ATOM     19  C   UNL     1      -2.029  15.317  24.535  0.00  0.00    +0.000 C 
ATOM     20  O   UNL     1      -0.968  14.709  24.495  0.00  0.00    +0.000 OA
ENDBRANCH  17  19
ENDBRANCH  15  17
ENDBRANCH  13  15
ENDBRANCH   9  14
ENDBRANCH   1  11
BRANCH   5  21
ATOM     21  C   UNL     1       0.949   9.352  20.201  0.00  0.00    +0.000 C 
BRANCH  21  22
ATOM     22  C   UNL     1       1.876   8.399  19.483  0.00  0.00    +0.000 C 
ATOM     23  C   UNL     1       2.035   7.097  19.811  0.00  0.00    +0.000 C 
ATOM     24  C   UNL     1       1.297   6.456  20.962  0.00  0.00    +0.000 C 
BRANCH  23  25
ATOM     25  C   UNL     1       2.914   6.242  19.000  0.00  0.00    +0.000 C 
ATOM     26  C   UNL     1       3.903   5.467  19.482  0.00  0.00    +0.000 C 
BRANCH  26  27
ATOM     27  C   UNL     1       4.762   4.466  18.733  0.00  0.00    +0.000 C 
ATOM     28  O   UNL     1       5.331   3.432  19.570  0.00  0.00    +0.000 OA
ATOM     29  C   UNL     1       4.444   2.359  19.927  0.00  0.00    +0.000 C 
ATOM     30  C   UNL     1       3.797   1.710  18.709  0.00  0.00    +0.000 C 
ATOM     31  C   UNL     1       3.131   2.802  17.937  0.00  0.00    +0.000 C 
ATOM     32  O   UNL     1       2.012   2.409  17.138  0.00  0.00    +0.000 OA
ATOM     33  C   UNL     1       1.719   3.262  18.253  0.00  0.00    +0.000 C 
ATOM     34  C   UNL     1       0.980   2.697  19.410  0.00  0.00    +0.000 C 
ATOM     35  C   UNL     1       4.078   3.863  17.466  0.00  0.00    +0.000 C 
BRANCH  35  36
ATOM     36  O   UNL     1       5.073   3.288  16.607  0.00  0.00    +0.000 OA
ATOM     37  H   UNL     1       5.713   2.828  17.181  0.00  0.00    +0.000 HD
ENDBRANCH  35  36
ENDBRANCH  26  27
ENDBRANCH  23  25
ENDBRANCH  21  22
ENDBRANCH   5  21
TORSDOF 10
ENDMDL
MODEL 6
REMARK VINA RESULT:      -7.1      6.438     11.390
REMARK  Name = 
REMARK  16 active torsions:
REMARK  status: ('A' for Active; 'I' for Inactive)
REMARK    1  A    between atoms: C_1  and  C_2
REMARK    2  A    between atoms: C_2  and  O_4
REMARK    3  A    between atoms: O_4  and  C_5
REMARK    4  A    between atoms: C_5  and  C_6
REMARK    5  A    between atoms: C_5  and  C_7
REMARK    6  A    between atoms: C_8  and  C_9
REMARK    7  A    between atoms: N_11  and  C_12
REMARK    8  A    between atoms: C_14  and  C_15
REMARK    9  A    between atoms: C_16  and  C_17
REMARK   10  A    between atoms: C_17  and  C_18
REMARK   11  A    between atoms: C_19  and  C_20
REMARK   12  A    between atoms: C_19  and  C_21
REMARK   13  A    between atoms: C_22  and  C_23
REMARK   14  A    between atoms: C_29  and  C_30
REMARK   15  A    between atoms: C_31  and  O_32
REMARK   16  A    between atoms: C_34  and  C_35
REMARK                            x       y       z     vdW  Elec       q    Type
REMARK                         _______ _______ _______ _____ _____    ______ ____
ROOT
ATOM      1  C   UNL     1      -0.113  13.296  20.186  0.00  0.00    +0.000 C 
ATOM      2  C   UNL     1      -0.790  12.868  18.869  0.00  0.00    +0.000 C 
ATOM      3  C   UNL     1      -0.295  11.506  18.342  0.00  0.00    +0.000 C 
ATOM      4  C   UNL     1      -0.838  10.338  19.178  0.00  0.00    +0.000 C 
ATOM      5  C   UNL     1       1.246  11.523  18.269  0.00  0.00    +0.000 C 
ATOM      6  O   UNL     1       1.796  11.880  19.555  0.00  0.00    +0.000 OA
ATOM      7  C   UNL     1       1.418  13.201  19.977  0.00  0.00    +0.000 C 
ATOM      8  C   UNL     1       2.233  13.537  21.220  0.00  0.00    +0.000 C 
ENDROOT
BRANCH   1  11
ATOM      9  C   UNL     1      -1.055  13.111  22.463  0.00  0.00    +0.000 C 
ATOM     10  O   UNL     1      -0.881  14.298  22.719  0.00  0.00    +0.000 OA
ATOM     11  N   UNL     1      -0.595  12.502  21.322  0.00  0.00    +0.000 N 
ATOM     12  H   UNL     1      -0.849  11.541  21.138  0.00  0.00    +0.000 HD
BRANCH   9  14
ATOM     13  C   UNL     1      -3.174  12.191  23.414  0.00  0.00    +0.000 C 
ATOM     14  C   UNL     1      -1.828  12.215  23.362  0.00  0.00    +0.000 C 
BRANCH  13  15
ATOM     15  C   UNL     1      -4.128  12.998  22.560  0.00  0.00    +0.000 C 
ATOM     16  C   UNL     1      -4.476  14.306  23.264  0.00  0.00    +0.000 C 
BRANCH  15  17
ATOM     17  O   UNL     1      -5.341  12.223  22.384  0.00  0.00    +0.000 OA
BRANCH  17  19
ATOM     18  C   UNL     1      -7.401  12.450  21.258  0.00  0.00    +0.000 C 
ATOM     19  C   UNL     1      -5.918  12.337  21.145  0.00  0.00    +0.000 C 
ATOM     20  O   UNL     1      -5.316  12.345  20.080  0.00  0.00    +0.000 OA
ENDBRANCH  17  19
ENDBRANCH  15  17
ENDBRANCH  13  15
ENDBRANCH   9  14
ENDBRANCH   1  11
BRANCH   5  21
ATOM     21  C   UNL     1       1.895  10.183  17.871  0.00  0.00    +0.000 C 
BRANCH  21  22
ATOM     22  C   UNL     1       1.681   9.022  18.814  0.00  0.00    +0.000 C 
ATOM     23  C   UNL     1       2.348   7.848  18.741  0.00  0.00    +0.000 C 
ATOM     24  C   UNL     1       3.383   7.569  17.678  0.00  0.00    +0.000 C 
BRANCH  23  25
ATOM     25  C   UNL     1       2.108   6.809  19.753  0.00  0.00    +0.000 C 
ATOM     26  C   UNL     1       1.557   5.604  19.515  0.00  0.00    +0.000 C 
BRANCH  26  27
ATOM     27  C   UNL     1       1.397   4.438  20.471  0.00  0.00    +0.000 C 
ATOM     28  O   UNL     1       0.525   3.391  19.987  0.00  0.00    +0.000 OA
ATOM     29  C   UNL     1       1.105   2.488  19.030  0.00  0.00    +0.000 C 
ATOM     30  C   UNL     1       2.400   1.861  19.534  0.00  0.00    +0.000 C 
ATOM     31  C   UNL     1       3.306   2.985  19.918  0.00  0.00    +0.000 C 
ATOM     32  O   UNL     1       4.707   2.708  19.849  0.00  0.00    +0.000 OA
ATOM     33  C   UNL     1       4.209   3.669  18.908  0.00  0.00    +0.000 C 
ATOM     34  C   UNL     1       4.153   3.300  17.471  0.00  0.00    +0.000 C 
ATOM     35  C   UNL     1       2.747   3.858  20.999  0.00  0.00    +0.000 C 
BRANCH  35  36
ATOM     36  O   UNL     1       2.510   3.085  22.184  0.00  0.00    +0.000 OA
ATOM     37  H   UNL     1       1.627   2.682  22.089  0.00  0.00    +0.000 HD
ENDBRANCH  35  36
ENDBRANCH  26  27
ENDBRANCH  23  25
ENDBRANCH  21  22
ENDBRANCH   5  21
TORSDOF 10
ENDMDL
MODEL 7
REMARK VINA RESULT:      -7.1      6.310     10.741
REMARK  Name = 
REMARK  16 active torsions:
REMARK  status: ('A' for Active; 'I' for Inactive)
REMARK    1  A    between atoms: C_1  and  C_2
REMARK    2  A    between atoms: C_2  and  O_4
REMARK    3  A    between atoms: O_4  and  C_5
REMARK    4  A    between atoms: C_5  and  C_6
REMARK    5  A    between atoms: C_5  and  C_7
REMARK    6  A    between atoms: C_8  and  C_9
REMARK    7  A    between atoms: N_11  and  C_12
REMARK    8  A    between atoms: C_14  and  C_15
REMARK    9  A    between atoms: C_16  and  C_17
REMARK   10  A    between atoms: C_17  and  C_18
REMARK   11  A    between atoms: C_19  and  C_20
REMARK   12  A    between atoms: C_19  and  C_21
REMARK   13  A    between atoms: C_22  and  C_23
REMARK   14  A    between atoms: C_29  and  C_30
REMARK   15  A    between atoms: C_31  and  O_32
REMARK   16  A    between atoms: C_34  and  C_35
REMARK                            x       y       z     vdW  Elec       q    Type
REMARK                         _______ _______ _______ _____ _____    ______ ____
ROOT
ATOM      1  C   UNL     1      -0.215  11.768  21.671  0.00  0.00    +0.000 C 
ATOM      2  C   UNL     1       0.556  12.473  20.539  0.00  0.00    +0.000 C 
ATOM      3  C   UNL     1       0.558  11.681  19.215  0.00  0.00    +0.000 C 
ATOM      4  C   UNL     1      -0.809  11.729  18.519  0.00  0.00    +0.000 C 
ATOM      5  C   UNL     1       1.040  10.241  19.490  0.00  0.00    +0.000 C 
ATOM      6  O   UNL     1       0.231   9.640  20.522  0.00  0.00    +0.000 OA
ATOM      7  C   UNL     1       0.332  10.324  21.782  0.00  0.00    +0.000 C 
ATOM      8  C   UNL     1      -0.378   9.472  22.826  0.00  0.00    +0.000 C 
ENDROOT
BRANCH   1  11
ATOM      9  C   UNL     1      -2.503  12.350  22.402  0.00  0.00    +0.000 C 
ATOM     10  O   UNL     1      -2.164  12.576  23.559  0.00  0.00    +0.000 OA
ATOM     11  N   UNL     1      -1.665  11.824  21.451  0.00  0.00    +0.000 N 
ATOM     12  H   UNL     1      -1.991  11.742  20.497  0.00  0.00    +0.000 HD
BRANCH   9  14
ATOM     13  C   UNL     1      -4.315  13.918  21.694  0.00  0.00    +0.000 C 
ATOM     14  C   UNL     1      -3.868  12.664  21.904  0.00  0.00    +0.000 C 
BRANCH  13  15
ATOM     15  C   UNL     1      -3.527  15.200  21.862  0.00  0.00    +0.000 C 
ATOM     16  C   UNL     1      -4.480  16.370  22.085  0.00  0.00    +0.000 C 
BRANCH  15  17
ATOM     17  O   UNL     1      -2.778  15.430  20.642  0.00  0.00    +0.000 OA
BRANCH  17  19
ATOM     18  C   UNL     1      -0.741  15.816  19.517  0.00  0.00    +0.000 C 
ATOM     19  C   UNL     1      -1.422  15.544  20.815  0.00  0.00    +0.000 C 
ATOM     20  O   UNL     1      -0.832  15.439  21.882  0.00  0.00    +0.000 OA
ENDBRANCH  17  19
ENDBRANCH  15  17
ENDBRANCH  13  15
ENDBRANCH   9  14
ENDBRANCH   1  11
BRANCH   5  21
ATOM     21  C   UNL     1       0.982   9.292  18.277  0.00  0.00    +0.000 C 
BRANCH  21  22
ATOM     22  C   UNL     1       2.296   8.710  17.811  0.00  0.00    +0.000 C 
ATOM     23  C   UNL     1       2.886   7.623  18.359  0.00  0.00    +0.000 C 
ATOM     24  C   UNL     1       2.284   6.877  19.525  0.00  0.00    +0.000 C 
BRANCH  23  25
ATOM     25  C   UNL     1       4.133   7.102  17.781  0.00  0.00    +0.000 C 
ATOM     26  C   UNL     1       4.459   7.136  16.476  0.00  0.00    +0.000 C 
BRANCH  26  27
ATOM     27  C   UNL     1       5.770   6.742  15.825  0.00  0.00    +0.000 C 
ATOM     28  O   UNL     1       6.931   6.937  16.666  0.00  0.00    +0.000 OA
ATOM     29  C   UNL     1       7.156   5.927  17.663  0.00  0.00    +0.000 C 
ATOM     30  C   UNL     1       7.207   4.524  17.068  0.00  0.00    +0.000 C 
ATOM     31  C   UNL     1       5.939   4.332  16.301  0.00  0.00    +0.000 C 
ATOM     32  O   UNL     1       5.490   2.981  16.165  0.00  0.00    +0.000 OA
ATOM     33  C   UNL     1       4.666   3.840  16.965  0.00  0.00    +0.000 C 
ATOM     34  C   UNL     1       4.615   3.618  18.432  0.00  0.00    +0.000 C 
ATOM     35  C   UNL     1       5.762   5.317  15.186  0.00  0.00    +0.000 C 
BRANCH  35  36
ATOM     36  O   UNL     1       6.842   5.201  14.249  0.00  0.00    +0.000 OA
ATOM     37  H   UNL     1       7.071   6.105  13.966  0.00  0.00    +0.000 HD
ENDBRANCH  35  36
ENDBRANCH  26  27
ENDBRANCH  23  25
ENDBRANCH  21  22
ENDBRANCH   5  21
TORSDOF 10
ENDMDL
MODEL 8
REMARK VINA RESULT:      -7.0      6.832     11.802
REMARK  Name = 
REMARK  16 active torsions:
REMARK  status: ('A' for Active; 'I' for Inactive)
REMARK    1  A    between atoms: C_1  and  C_2
REMARK    2  A    between atoms: C_2  and  O_4
REMARK    3  A    between atoms: O_4  and  C_5
REMARK    4  A    between atoms: C_5  and  C_6
REMARK    5  A    between atoms: C_5  and  C_7
REMARK    6  A    between atoms: C_8  and  C_9
REMARK    7  A    between atoms: N_11  and  C_12
REMARK    8  A    between atoms: C_14  and  C_15
REMARK    9  A    between atoms: C_16  and  C_17
REMARK   10  A    between atoms: C_17  and  C_18
REMARK   11  A    between atoms: C_19  and  C_20
REMARK   12  A    between atoms: C_19  and  C_21
REMARK   13  A    between atoms: C_22  and  C_23
REMARK   14  A    between atoms: C_29  and  C_30
REMARK   15  A    between atoms: C_31  and  O_32
REMARK   16  A    between atoms: C_34  and  C_35
REMARK                            x       y       z     vdW  Elec       q    Type
REMARK                         _______ _______ _______ _____ _____    ______ ____
ROOT
ATOM      1  C   UNL     1      -1.349  12.735  19.175  0.00  0.00    +0.000 C 
ATOM      2  C   UNL     1      -1.766  11.345  18.655  0.00  0.00    +0.000 C 
ATOM      3  C   UNL     1      -0.659  10.281  18.798  0.00  0.00    +0.000 C 
ATOM      4  C   UNL     1      -0.471   9.845  20.258  0.00  0.00    +0.000 C 
ATOM      5  C   UNL     1       0.641  10.816  18.161  0.00  0.00    +0.000 C 
ATOM      6  O   UNL     1       0.985  12.091  18.744  0.00  0.00    +0.000 OA
ATOM      7  C   UNL     1      -0.005  13.103  18.500  0.00  0.00    +0.000 C 
ATOM      8  C   UNL     1       0.575  14.434  18.962  0.00  0.00    +0.000 C 
ENDROOT
BRANCH   1  11
ATOM      9  C   UNL     1      -2.437  12.795  21.393  0.00  0.00    +0.000 C 
ATOM     10  O   UNL     1      -3.547  13.040  20.932  0.00  0.00    +0.000 OA
ATOM     11  N   UNL     1      -1.289  12.765  20.641  0.00  0.00    +0.000 N 
ATOM     12  H   UNL     1      -0.423  12.473  21.074  0.00  0.00    +0.000 HD
BRANCH   9  14
ATOM     13  C   UNL     1      -2.115  13.393  23.797  0.00  0.00    +0.000 C 
ATOM     14  C   UNL     1      -2.234  12.465  22.828  0.00  0.00    +0.000 C 
BRANCH  13  15
ATOM     15  C   UNL     1      -2.220  14.894  23.631  0.00  0.00    +0.000 C 
ATOM     16  C   UNL     1      -1.355  15.594  24.675  0.00  0.00    +0.000 C 
BRANCH  15  17
ATOM     17  O   UNL     1      -3.604  15.274  23.837  0.00  0.00    +0.000 OA
BRANCH  17  19
ATOM     18  C   UNL     1      -5.658  15.893  22.857  0.00  0.00    +0.000 C 
ATOM     19  C   UNL     1      -4.170  15.963  22.794  0.00  0.00    +0.000 C 
ATOM     20  O   UNL     1      -3.555  16.559  21.920  0.00  0.00    +0.000 OA
ENDBRANCH  17  19
ENDBRANCH  15  17
ENDBRANCH  13  15
ENDBRANCH   9  14
ENDBRANCH   1  11
BRANCH   5  21
ATOM     21  C   UNL     1       1.873   9.907  18.334  0.00  0.00    +0.000 C 
BRANCH  21  22
ATOM     22  C   UNL     1       1.606   8.475  18.733  0.00  0.00    +0.000 C 
ATOM     23  C   UNL     1       2.397   7.430  18.399  0.00  0.00    +0.000 C 
ATOM     24  C   UNL     1       3.645   7.594  17.564  0.00  0.00    +0.000 C 
BRANCH  23  25
ATOM     25  C   UNL     1       2.078   6.085  18.898  0.00  0.00    +0.000 C 
ATOM     26  C   UNL     1       2.227   5.673  20.171  0.00  0.00    +0.000 C 
BRANCH  26  27
ATOM     27  C   UNL     1       1.801   4.354  20.788  0.00  0.00    +0.000 C 
ATOM     28  O   UNL     1       0.763   3.665  20.052  0.00  0.00    +0.000 OA
ATOM     29  C   UNL     1       1.198   2.946  18.886  0.00  0.00    +0.000 C 
ATOM     30  C   UNL     1       2.322   1.963  19.194  0.00  0.00    +0.000 C 
ATOM     31  C   UNL     1       3.412   2.744  19.853  0.00  0.00    +0.000 C 
ATOM     32  O   UNL     1       4.734   2.221  19.700  0.00  0.00    +0.000 OA
ATOM     33  C   UNL     1       4.474   3.474  19.051  0.00  0.00    +0.000 C 
ATOM     34  C   UNL     1       4.411   3.510  17.568  0.00  0.00    +0.000 C 
ATOM     35  C   UNL     1       2.987   3.399  21.131  0.00  0.00    +0.000 C 
BRANCH  35  36
ATOM     36  O   UNL     1       2.552   2.408  22.073  0.00  0.00    +0.000 OA
ATOM     37  H   UNL     1       3.330   1.863  22.293  0.00  0.00    +0.000 HD
ENDBRANCH  35  36
ENDBRANCH  26  27
ENDBRANCH  23  25
ENDBRANCH  21  22
ENDBRANCH   5  21
TORSDOF 10
ENDMDL
MODEL 9
REMARK VINA RESULT:      -7.0      1.329      1.746
REMARK  Name = 
REMARK  16 active torsions:
REMARK  status: ('A' for Active; 'I' for Inactive)
REMARK    1  A    between atoms: C_1  and  C_2
REMARK    2  A    between atoms: C_2  and  O_4
REMARK    3  A    between atoms: O_4  and  C_5
REMARK    4  A    between atoms: C_5  and  C_6
REMARK    5  A    between atoms: C_5  and  C_7
REMARK    6  A    between atoms: C_8  and  C_9
REMARK    7  A    between atoms: N_11  and  C_12
REMARK    8  A    between atoms: C_14  and  C_15
REMARK    9  A    between atoms: C_16  and  C_17
REMARK   10  A    between atoms: C_17  and  C_18
REMARK   11  A    between atoms: C_19  and  C_20
REMARK   12  A    between atoms: C_19  and  C_21
REMARK   13  A    between atoms: C_22  and  C_23
REMARK   14  A    between atoms: C_29  and  C_30
REMARK   15  A    between atoms: C_31  and  O_32
REMARK   16  A    between atoms: C_34  and  C_35
REMARK                            x       y       z     vdW  Elec       q    Type
REMARK                         _______ _______ _______ _____ _____    ______ ____
ROOT
ATOM      1  C   UNL     1       4.653   5.144  16.730  0.00  0.00    +0.000 C 
ATOM      2  C   UNL     1       5.946   5.063  15.895  0.00  0.00    +0.000 C 
ATOM      3  C   UNL     1       7.165   5.700  16.593  0.00  0.00    +0.000 C 
ATOM      4  C   UNL     1       7.678   4.832  17.751  0.00  0.00    +0.000 C 
ATOM      5  C   UNL     1       6.801   7.133  17.035  0.00  0.00    +0.000 C 
ATOM      6  O   UNL     1       5.613   7.109  17.854  0.00  0.00    +0.000 OA
ATOM      7  C   UNL     1       4.459   6.621  17.151  0.00  0.00    +0.000 C 
ATOM      8  C   UNL     1       3.245   6.856  18.041  0.00  0.00    +0.000 C 
ENDROOT
BRANCH   1  11
ATOM      9  C   UNL     1       3.928   3.073  17.867  0.00  0.00    +0.000 C 
ATOM     10  O   UNL     1       3.015   2.862  17.076  0.00  0.00    +0.000 OA
ATOM     11  N   UNL     1       4.688   4.216  17.867  0.00  0.00    +0.000 N 
ATOM     12  H   UNL     1       5.478   4.284  18.494  0.00  0.00    +0.000 HD
BRANCH   9  14
ATOM     13  C   UNL     1       4.013   2.181  20.200  0.00  0.00    +0.000 C 
ATOM     14  C   UNL     1       4.329   2.076  18.894  0.00  0.00    +0.000 C 
BRANCH  13  15
ATOM     15  C   UNL     1       3.170   3.262  20.843  0.00  0.00    +0.000 C 
ATOM     16  C   UNL     1       2.191   2.638  21.832  0.00  0.00    +0.000 C 
BRANCH  15  17
ATOM     17  O   UNL     1       2.419   3.929  19.797  0.00  0.00    +0.000 OA
BRANCH  17  19
ATOM     18  C   UNL     1       1.563   5.824  20.910  0.00  0.00    +0.000 C 
ATOM     19  C   UNL     1       1.265   4.537  20.220  0.00  0.00    +0.000 C 
ATOM     20  O   UNL     1       0.133   4.098  20.063  0.00  0.00    +0.000 OA
ENDBRANCH  17  19
ENDBRANCH  15  17
ENDBRANCH  13  15
ENDBRANCH   9  14
ENDBRANCH   1  11
BRANCH   5  21
ATOM     21  C   UNL     1       7.886   7.857  17.856  0.00  0.00    +0.000 C 
BRANCH  21  22
ATOM     22  C   UNL     1       8.171   9.293  17.482  0.00  0.00    +0.000 C 
ATOM     23  C   UNL     1       8.782  10.185  18.294  0.00  0.00    +0.000 C 
ATOM     24  C   UNL     1       9.236   9.832  19.690  0.00  0.00    +0.000 C 
BRANCH  23  25
ATOM     25  C   UNL     1       9.069  11.540  17.803  0.00  0.00    +0.000 C 
ATOM     26  C   UNL     1       8.272  12.613  17.968  0.00  0.00    +0.000 C 
BRANCH  26  27
ATOM     27  C   UNL     1       8.556  14.058  17.609  0.00  0.00    +0.000 C 
ATOM     28  O   UNL     1       7.604  15.001  18.155  0.00  0.00    +0.000 OA
ATOM     29  C   UNL     1       7.786  15.340  19.540  0.00  0.00    +0.000 C 
ATOM     30  C   UNL     1       9.198  15.833  19.837  0.00  0.00    +0.000 C 
ATOM     31  C   UNL     1      10.137  14.777  19.354  0.00  0.00    +0.000 C 
ATOM     32  O   UNL     1      11.402  14.716  20.017  0.00  0.00    +0.000 OA
ATOM     33  C   UNL     1      10.531  13.595  20.221  0.00  0.00    +0.000 C 
ATOM     34  C   UNL     1       9.918  13.401  21.559  0.00  0.00    +0.000 C 
ATOM     35  C   UNL     1      10.026  14.507  17.884  0.00  0.00    +0.000 C 
BRANCH  35  36
ATOM     36  O   UNL     1      10.314  15.699  17.140  0.00  0.00    +0.000 OA
ATOM     37  H   UNL     1      10.743  15.419  16.310  0.00  0.00    +0.000 HD
ENDBRANCH  35  36
ENDBRANCH  26  27
ENDBRANCH  23  25
ENDBRANCH  21  22
ENDBRANCH   5  21
TORSDOF 10
ENDMDL
