MODEL 1
REMARK VINA RESULT:      -7.7      0.000      0.000
REMARK  Name = 
REMARK  6 active torsions:
REMARK  status: ('A' for Active; 'I' for Inactive)
REMARK    1  A    between atoms: C_1  and  N_2
REMARK    2  A    between atoms: C_4  and  N_5
REMARK    3  A    between atoms: C_6  and  C_8
REMARK    4  A    between atoms: C_12  and  C_13
REMARK    5  A    between atoms: C_13  and  O_14
REMARK    6  A    between atoms: O_14  and  C_15
REMARK                            x       y       z     vdW  Elec       q    Type
REMARK                         _______ _______ _______ _____ _____    ______ ____
ROOT
ATOM      1  C   UNL     1       5.299   5.487  16.247  0.00  0.00    +0.000 A 
ATOM      2  O   UNL     1       5.812   5.876  15.033  0.00  0.00    +0.000 OA
ATOM      3  C   UNL     1       6.138   4.750  14.352  0.00  0.00    +0.000 A 
ATOM      4  C   UNL     1       5.847   3.635  15.098  0.00  0.00    +0.000 A 
ATOM      5  C   UNL     1       5.299   4.098  16.330  0.00  0.00    +0.000 A 
ENDROOT
BRANCH   1   7
ATOM      6  N   UNL     1       3.513   6.389  17.542  0.00  0.00    +0.000 N 
ATOM      7  C   UNL     1       4.852   6.511  17.181  0.00  0.00    +0.000 C 
ATOM      8  O   UNL     1       5.616   7.370  17.609  0.00  0.00    +0.000 OA
ATOM      9  H   UNL     1       3.042   5.606  17.098  0.00  0.00    +0.000 HD
BRANCH   6  13
ATOM     10  C   UNL     1       1.086  10.465  18.474  0.00  0.00    +0.000 C 
ATOM     11  N   UNL     1       1.559   9.163  18.904  0.00  0.00    +0.000 N 
ATOM     12  C   UNL     1       2.322   8.369  18.057  0.00  0.00    +0.000 A 
ATOM     13  C   UNL     1       2.773   7.152  18.425  0.00  0.00    +0.000 A 
ATOM     14  C   UNL     1       2.447   6.690  19.760  0.00  0.00    +0.000 A 
ATOM     15  C   UNL     1       1.709   7.428  20.600  0.00  0.00    +0.000 A 
ATOM     16  C   UNL     1       1.200   8.755  20.187  0.00  0.00    +0.000 A 
ATOM     17  O   UNL     1       0.516   9.411  20.966  0.00  0.00    +0.000 OA
ENDBRANCH   6  13
ENDBRANCH   1   7
BRANCH   5  18
ATOM     18  C   UNL     1       4.824   3.244  17.469  0.00  0.00    +0.000 C 
BRANCH  18  19
ATOM     19  O   UNL     1       3.395   3.205  17.495  0.00  0.00    +0.000 OA
BRANCH  19  20
ATOM     20  C   UNL     1       2.805   3.163  18.729  0.00  0.00    +0.000 A 
ATOM     21  C   UNL     1       1.424   3.387  18.730  0.00  0.00    +0.000 A 
ATOM     22  C   UNL     1       0.696   3.350  19.921  0.00  0.00    +0.000 A 
ATOM     23  C   UNL     1       1.344   3.069  21.122  0.00  0.00    +0.000 A 
ATOM     24  C   UNL     1       2.717   2.828  21.127  0.00  0.00    +0.000 A 
ATOM     25  C   UNL     1       3.448   2.874  19.934  0.00  0.00    +0.000 A 
ENDBRANCH  19  20
ENDBRANCH  18  19
ENDBRANCH   5  18
TORSDOF 5
ENDMDL
MODEL 2
REMARK VINA RESULT:      -7.5      2.033      6.415
REMARK  Name = 
REMARK  6 active torsions:
REMARK  status: ('A' for Active; 'I' for Inactive)
REMARK    1  A    between atoms: C_1  and  N_2
REMARK    2  A    between atoms: C_4  and  N_5
REMARK    3  A    between atoms: C_6  and  C_8
REMARK    4  A    between atoms: C_12  and  C_13
REMARK    5  A    between atoms: C_13  and  O_14
REMARK    6  A    between atoms: O_14  and  C_15
REMARK                            x       y       z     vdW  Elec       q    Type
REMARK                         _______ _______ _______ _____ _____    ______ ____
ROOT
ATOM      1  C   UNL     1       2.763   3.371  19.391  0.00  0.00    +0.000 A 
ATOM      2  O   UNL     1       2.093   2.184  19.226  0.00  0.00    +0.000 OA
ATOM      3  C   UNL     1       0.912   2.291  19.881  0.00  0.00    +0.000 A 
ATOM      4  C   UNL     1       0.798   3.526  20.470  0.00  0.00    +0.000 A 
ATOM      5  C   UNL     1       1.992   4.240  20.158  0.00  0.00    +0.000 A 
ENDROOT
BRANCH   1   7
ATOM      6  N   UNL     1       4.027   4.185  17.542  0.00  0.00    +0.000 N 
ATOM      7  C   UNL     1       4.071   3.532  18.770  0.00  0.00    +0.000 C 
ATOM      8  O   UNL     1       5.096   3.140  19.317  0.00  0.00    +0.000 OA
ATOM      9  H   UNL     1       3.089   4.451  17.255  0.00  0.00    +0.000 HD
BRANCH   6  13
ATOM     10  C   UNL     1       6.269   3.695  13.286  0.00  0.00    +0.000 C 
ATOM     11  N   UNL     1       6.189   4.315  14.595  0.00  0.00    +0.000 N 
ATOM     12  C   UNL     1       5.172   3.977  15.480  0.00  0.00    +0.000 A 
ATOM     13  C   UNL     1       5.067   4.538  16.702  0.00  0.00    +0.000 A 
ATOM     14  C   UNL     1       6.071   5.513  17.084  0.00  0.00    +0.000 A 
ATOM     15  C   UNL     1       7.061   5.865  16.253  0.00  0.00    +0.000 A 
ATOM     16  C   UNL     1       7.164   5.261  14.906  0.00  0.00    +0.000 A 
ATOM     17  O   UNL     1       8.071   5.605  14.155  0.00  0.00    +0.000 OA
ENDBRANCH   6  13
ENDBRANCH   1   7
BRANCH   5  18
ATOM     18  C   UNL     1       2.327   5.641  20.579  0.00  0.00    +0.000 C 
BRANCH  18  19
ATOM     19  O   UNL     1       2.851   6.378  19.472  0.00  0.00    +0.000 OA
BRANCH  19  20
ATOM     20  C   UNL     1       2.254   7.578  19.197  0.00  0.00    +0.000 A 
ATOM     21  C   UNL     1       1.561   8.151  20.268  0.00  0.00    +0.000 A 
ATOM     22  C   UNL     1       0.926   9.387  20.127  0.00  0.00    +0.000 A 
ATOM     23  C   UNL     1       0.994  10.068  18.914  0.00  0.00    +0.000 A 
ATOM     24  C   UNL     1       1.697   9.512  17.847  0.00  0.00    +0.000 A 
ATOM     25  C   UNL     1       2.327   8.269  17.986  0.00  0.00    +0.000 A 
ENDBRANCH  19  20
ENDBRANCH  18  19
ENDBRANCH   5  18
TORSDOF 5
ENDMDL
MODEL 3
REMARK VINA RESULT:      -7.5      0.486      1.073
REMARK  Name = 
REMARK  6 active torsions:
REMARK  status: ('A' for Active; 'I' for Inactive)
REMARK    1  A    between atoms: C_1  and  N_2
REMARK    2  A    between atoms: C_4  and  N_5
REMARK    3  A    between atoms: C_6  and  C_8
REMARK    4  A    between atoms: C_12  and  C_13
REMARK    5  A    between atoms: C_13  and  O_14
REMARK    6  A    between atoms: O_14  and  C_15
REMARK                            x       y       z     vdW  Elec       q    Type
REMARK                         _______ _______ _______ _____ _____    ______ ____
ROOT
ATOM      1  C   UNL     1       5.521   5.431  16.333  0.00  0.00    +0.000 A 
ATOM      2  O   UNL     1       6.467   5.869  15.439  0.00  0.00    +0.000 OA
ATOM      3  C   UNL     1       6.713   4.850  14.579  0.00  0.00    +0.000 A 
ATOM      4  C   UNL     1       5.945   3.757  14.895  0.00  0.00    +0.000 A 
ATOM      5  C   UNL     1       5.163   4.120  16.031  0.00  0.00    +0.000 A 
ENDROOT
BRANCH   1   7
ATOM      6  N   UNL     1       3.674   6.435  17.454  0.00  0.00    +0.000 N 
ATOM      7  C   UNL     1       5.060   6.343  17.370  0.00  0.00    +0.000 C 
ATOM      8  O   UNL     1       5.845   6.938  18.101  0.00  0.00    +0.000 OA
ATOM      9  H   UNL     1       3.185   5.857  16.777  0.00  0.00    +0.000 HD
BRANCH   6  13
ATOM     10  C   UNL     1       1.171  10.458  18.423  0.00  0.00    +0.000 C 
ATOM     11  N   UNL     1       1.646   9.149  18.832  0.00  0.00    +0.000 N 
ATOM     12  C   UNL     1       2.444   8.388  17.987  0.00  0.00    +0.000 A 
ATOM     13  C   UNL     1       2.898   7.166  18.335  0.00  0.00    +0.000 A 
ATOM     14  C   UNL     1       2.538   6.663  19.647  0.00  0.00    +0.000 A 
ATOM     15  C   UNL     1       1.766   7.370  20.484  0.00  0.00    +0.000 A 
ATOM     16  C   UNL     1       1.254   8.702  20.092  0.00  0.00    +0.000 A 
ATOM     17  O   UNL     1       0.539   9.329  20.868  0.00  0.00    +0.000 OA
ENDBRANCH   6  13
ENDBRANCH   1   7
BRANCH   5  18
ATOM     18  C   UNL     1       4.164   3.252  16.737  0.00  0.00    +0.000 C 
BRANCH  18  19
ATOM     19  O   UNL     1       4.376   3.304  18.150  0.00  0.00    +0.000 OA
BRANCH  19  20
ATOM     20  C   UNL     1       3.265   3.188  18.942  0.00  0.00    +0.000 A 
ATOM     21  C   UNL     1       3.528   3.037  20.307  0.00  0.00    +0.000 A 
ATOM     22  C   UNL     1       2.483   2.930  21.227  0.00  0.00    +0.000 A 
ATOM     23  C   UNL     1       1.162   2.991  20.788  0.00  0.00    +0.000 A 
ATOM     24  C   UNL     1       0.892   3.158  19.430  0.00  0.00    +0.000 A 
ATOM     25  C   UNL     1       1.940   3.256  18.508  0.00  0.00    +0.000 A 
ENDBRANCH  19  20
ENDBRANCH  18  19
ENDBRANCH   5  18
TORSDOF 5
ENDMDL
MODEL 4
REMARK VINA RESULT:      -7.4      1.476      2.265
REMARK  Name = 
REMARK  6 active torsions:
REMARK  status: ('A' for Active; 'I' for Inactive)
REMARK    1  A    between atoms: C_1  and  N_2
REMARK    2  A    between atoms: C_4  and  N_5
REMARK    3  A    between atoms: C_6  and  C_8
REMARK    4  A    between atoms: C_12  and  C_13
REMARK    5  A    between atoms: C_13  and  O_14
REMARK    6  A    between atoms: O_14  and  C_15
REMARK                            x       y       z     vdW  Elec       q    Type
REMARK                         _______ _______ _______ _____ _____    ______ ____
ROOT
ATOM      1  C   UNL     1       4.441   5.590  17.351  0.00  0.00    +0.000 A 
ATOM      2  O   UNL     1       4.836   5.795  16.051  0.00  0.00    +0.000 OA
ATOM      3  C   UNL     1       6.048   5.207  15.900  0.00  0.00    +0.000 A 
ATOM      4  C   UNL     1       6.451   4.623  17.075  0.00  0.00    +0.000 A 
ATOM      5  C   UNL     1       5.415   4.861  18.026  0.00  0.00    +0.000 A 
ENDROOT
BRANCH   1   7
ATOM      6  N   UNL     1       3.210   7.423  18.244  0.00  0.00    +0.000 N 
ATOM      7  C   UNL     1       3.151   6.112  17.783  0.00  0.00    +0.000 C 
ATOM      8  O   UNL     1       2.127   5.442  17.708  0.00  0.00    +0.000 OA
ATOM      9  H   UNL     1       4.143   7.824  18.218  0.00  0.00    +0.000 HD
BRANCH   6  13
ATOM     10  C   UNL     1       0.422   8.963  21.883  0.00  0.00    +0.000 C 
ATOM     11  N   UNL     1       0.799   9.021  20.483  0.00  0.00    +0.000 N 
ATOM     12  C   UNL     1       1.809   8.206  19.986  0.00  0.00    +0.000 A 
ATOM     13  C   UNL     1       2.186   8.239  18.691  0.00  0.00    +0.000 A 
ATOM     14  C   UNL     1       1.486   9.153  17.809  0.00  0.00    +0.000 A 
ATOM     15  C   UNL     1       0.512   9.956  18.258  0.00  0.00    +0.000 A 
ATOM     16  C   UNL     1       0.112   9.931  19.682  0.00  0.00    +0.000 A 
ATOM     17  O   UNL     1      -0.775  10.682  20.077  0.00  0.00    +0.000 OA
ENDBRANCH   6  13
ENDBRANCH   1   7
BRANCH   5  18
ATOM     18  C   UNL     1       5.399   4.407  19.456  0.00  0.00    +0.000 C 
BRANCH  18  19
ATOM     19  O   UNL     1       4.906   3.068  19.545  0.00  0.00    +0.000 OA
BRANCH  19  20
ATOM     20  C   UNL     1       3.546   2.915  19.572  0.00  0.00    +0.000 A 
ATOM     21  C   UNL     1       2.893   3.630  20.582  0.00  0.00    +0.000 A 
ATOM     22  C   UNL     1       1.504   3.579  20.708  0.00  0.00    +0.000 A 
ATOM     23  C   UNL     1       0.753   2.825  19.809  0.00  0.00    +0.000 A 
ATOM     24  C   UNL     1       1.394   2.124  18.790  0.00  0.00    +0.000 A 
ATOM     25  C   UNL     1       2.788   2.168  18.669  0.00  0.00    +0.000 A 
ENDBRANCH  19  20
ENDBRANCH  18  19
ENDBRANCH   5  18
TORSDOF 5
ENDMDL
MODEL 5
REMARK VINA RESULT:      -7.3      0.662      1.691
REMARK  Name = 
REMARK  6 active torsions:
REMARK  status: ('A' for Active; 'I' for Inactive)
REMARK    1  A    between atoms: C_1  and  N_2
REMARK    2  A    between atoms: C_4  and  N_5
REMARK    3  A    between atoms: C_6  and  C_8
REMARK    4  A    between atoms: C_12  and  C_13
REMARK    5  A    between atoms: C_13  and  O_14
REMARK    6  A    between atoms: O_14  and  C_15
REMARK                            x       y       z     vdW  Elec       q    Type
REMARK                         _______ _______ _______ _____ _____    ______ ____
ROOT
ATOM      1  C   UNL     1       5.462   5.689  16.267  0.00  0.00    +0.000 A 
ATOM      2  O   UNL     1       6.191   6.029  15.153  0.00  0.00    +0.000 OA
ATOM      3  C   UNL     1       6.511   4.877  14.514  0.00  0.00    +0.000 A 
ATOM      4  C   UNL     1       6.005   3.794  15.189  0.00  0.00    +0.000 A 
ATOM      5  C   UNL     1       5.318   4.306  16.329  0.00  0.00    +0.000 A 
ENDROOT
BRANCH   1   7
ATOM      6  N   UNL     1       3.587   6.786  17.247  0.00  0.00    +0.000 N 
ATOM      7  C   UNL     1       4.974   6.751  17.137  0.00  0.00    +0.000 C 
ATOM      8  O   UNL     1       5.741   7.507  17.723  0.00  0.00    +0.000 OA
ATOM      9  H   UNL     1       3.117   6.070  16.701  0.00  0.00    +0.000 HD
BRANCH   6  13
ATOM     10  C   UNL     1       1.304   7.689  21.412  0.00  0.00    +0.000 C 
ATOM     11  N   UNL     1       1.659   8.094  20.065  0.00  0.00    +0.000 N 
ATOM     12  C   UNL     1       2.440   7.275  19.260  0.00  0.00    +0.000 A 
ATOM     13  C   UNL     1       2.791   7.624  18.005  0.00  0.00    +0.000 A 
ATOM     14  C   UNL     1       2.310   8.897  17.502  0.00  0.00    +0.000 A 
ATOM     15  C   UNL     1       1.559   9.712  18.254  0.00  0.00    +0.000 A 
ATOM     16  C   UNL     1       1.190   9.334  19.636  0.00  0.00    +0.000 A 
ATOM     17  O   UNL     1       0.511  10.100  20.314  0.00  0.00    +0.000 OA
ENDBRANCH   6  13
ENDBRANCH   1   7
BRANCH   5  18
ATOM     18  C   UNL     1       4.595   3.501  17.367  0.00  0.00    +0.000 C 
BRANCH  18  19
ATOM     19  O   UNL     1       3.212   3.862  17.398  0.00  0.00    +0.000 OA
BRANCH  19  20
ATOM     20  C   UNL     1       2.521   3.547  18.537  0.00  0.00    +0.000 A 
ATOM     21  C   UNL     1       3.254   3.662  19.722  0.00  0.00    +0.000 A 
ATOM     22  C   UNL     1       2.662   3.391  20.957  0.00  0.00    +0.000 A 
ATOM     23  C   UNL     1       1.320   3.020  21.017  0.00  0.00    +0.000 A 
ATOM     24  C   UNL     1       0.578   2.919  19.841  0.00  0.00    +0.000 A 
ATOM     25  C   UNL     1       1.175   3.182  18.603  0.00  0.00    +0.000 A 
ENDBRANCH  19  20
ENDBRANCH  18  19
ENDBRANCH   5  18
TORSDOF 5
ENDMDL
MODEL 6
REMARK VINA RESULT:      -7.2      2.042      6.292
REMARK  Name = 
REMARK  6 active torsions:
REMARK  status: ('A' for Active; 'I' for Inactive)
REMARK    1  A    between atoms: C_1  and  N_2
REMARK    2  A    between atoms: C_4  and  N_5
REMARK    3  A    between atoms: C_6  and  C_8
REMARK    4  A    between atoms: C_12  and  C_13
REMARK    5  A    between atoms: C_13  and  O_14
REMARK    6  A    between atoms: O_14  and  C_15
REMARK                            x       y       z     vdW  Elec       q    Type
REMARK                         _______ _______ _______ _____ _____    ______ ____
ROOT
ATOM      1  C   UNL     1       2.369   3.129  18.651  0.00  0.00    +0.000 A 
ATOM      2  O   UNL     1       1.343   2.313  18.242  0.00  0.00    +0.000 OA
ATOM      3  C   UNL     1       0.290   2.546  19.063  0.00  0.00    +0.000 A 
ATOM      4  C   UNL     1       0.609   3.499  19.998  0.00  0.00    +0.000 A 
ATOM      5  C   UNL     1       1.956   3.890  19.740  0.00  0.00    +0.000 A 
ENDROOT
BRANCH   1   7
ATOM      6  N   UNL     1       3.863   4.224  17.151  0.00  0.00    +0.000 N 
ATOM      7  C   UNL     1       3.630   3.089  17.923  0.00  0.00    +0.000 C 
ATOM      8  O   UNL     1       4.402   2.142  18.024  0.00  0.00    +0.000 OA
ATOM      9  H   UNL     1       3.118   4.912  17.204  0.00  0.00    +0.000 HD
BRANCH   6  13
ATOM     10  C   UNL     1       6.281   3.713  12.995  0.00  0.00    +0.000 C 
ATOM     11  N   UNL     1       6.170   4.306  14.314  0.00  0.00    +0.000 N 
ATOM     12  C   UNL     1       5.095   4.003  15.141  0.00  0.00    +0.000 A 
ATOM     13  C   UNL     1       4.960   4.540  16.371  0.00  0.00    +0.000 A 
ATOM     14  C   UNL     1       5.995   5.449  16.825  0.00  0.00    +0.000 A 
ATOM     15  C   UNL     1       7.041   5.767  16.051  0.00  0.00    +0.000 A 
ATOM     16  C   UNL     1       7.178   5.190  14.695  0.00  0.00    +0.000 A 
ATOM     17  O   UNL     1       8.137   5.502  13.997  0.00  0.00    +0.000 OA
ENDBRANCH   6  13
ENDBRANCH   1   7
BRANCH   5  18
ATOM     18  C   UNL     1       2.746   4.914  20.500  0.00  0.00    +0.000 C 
BRANCH  18  19
ATOM     19  O   UNL     1       3.330   5.857  19.599  0.00  0.00    +0.000 OA
BRANCH  19  20
ATOM     20  C   UNL     1       2.641   7.023  19.400  0.00  0.00    +0.000 A 
ATOM     21  C   UNL     1       2.743   7.556  18.110  0.00  0.00    +0.000 A 
ATOM     22  C   UNL     1       2.071   8.730  17.768  0.00  0.00    +0.000 A 
ATOM     23  C   UNL     1       1.274   9.374  18.712  0.00  0.00    +0.000 A 
ATOM     24  C   UNL     1       1.153   8.841  19.994  0.00  0.00    +0.000 A 
ATOM     25  C   UNL     1       1.834   7.668  20.339  0.00  0.00    +0.000 A 
ENDBRANCH  19  20
ENDBRANCH  18  19
ENDBRANCH   5  18
TORSDOF 5
ENDMDL
MODEL 7
REMARK VINA RESULT:      -7.2      2.064      6.471
REMARK  Name = 
REMARK  6 active torsions:
REMARK  status: ('A' for Active; 'I' for Inactive)
REMARK    1  A    between atoms: C_1  and  N_2
REMARK    2  A    between atoms: C_4  and  N_5
REMARK    3  A    between atoms: C_6  and  C_8
REMARK    4  A    between atoms: C_12  and  C_13
REMARK    5  A    between atoms: C_13  and  O_14
REMARK    6  A    between atoms: O_14  and  C_15
REMARK                            x       y       z     vdW  Elec       q    Type
REMARK                         _______ _______ _______ _____ _____    ______ ____
ROOT
ATOM      1  C   UNL     1       3.136   3.559  19.857  0.00  0.00    +0.000 A 
ATOM      2  O   UNL     1       3.001   2.573  20.803  0.00  0.00    +0.000 OA
ATOM      3  C   UNL     1       1.753   2.679  21.322  0.00  0.00    +0.000 A 
ATOM      4  C   UNL     1       1.072   3.714  20.732  0.00  0.00    +0.000 A 
ATOM      5  C   UNL     1       1.957   4.293  19.775  0.00  0.00    +0.000 A 
ENDROOT
BRANCH   1   7
ATOM      6  N   UNL     1       4.258   4.248  17.871  0.00  0.00    +0.000 N 
ATOM      7  C   UNL     1       4.392   3.663  19.127  0.00  0.00    +0.000 C 
ATOM      8  O   UNL     1       5.453   3.286  19.613  0.00  0.00    +0.000 OA
ATOM      9  H   UNL     1       3.304   4.512  17.644  0.00  0.00    +0.000 HD
BRANCH   6  13
ATOM     10  C   UNL     1       6.038   3.635  13.417  0.00  0.00    +0.000 C 
ATOM     11  N   UNL     1       6.127   4.252  14.727  0.00  0.00    +0.000 N 
ATOM     12  C   UNL     1       5.181   3.976  15.707  0.00  0.00    +0.000 A 
ATOM     13  C   UNL     1       5.232   4.537  16.933  0.00  0.00    +0.000 A 
ATOM     14  C   UNL     1       6.331   5.441  17.214  0.00  0.00    +0.000 A 
ATOM     15  C   UNL     1       7.256   5.732  16.290  0.00  0.00    +0.000 A 
ATOM     16  C   UNL     1       7.188   5.130  14.940  0.00  0.00    +0.000 A 
ATOM     17  O   UNL     1       8.038   5.418  14.104  0.00  0.00    +0.000 OA
ENDBRANCH   6  13
ENDBRANCH   1   7
BRANCH   5  18
ATOM     18  C   UNL     1       1.656   5.455  18.875  0.00  0.00    +0.000 C 
BRANCH  18  19
ATOM     19  O   UNL     1       2.568   6.526  19.130  0.00  0.00    +0.000 OA
BRANCH  19  20
ATOM     20  C   UNL     1       2.021   7.767  19.315  0.00  0.00    +0.000 A 
ATOM     21  C   UNL     1       2.030   8.590  18.184  0.00  0.00    +0.000 A 
ATOM     22  C   UNL     1       1.482   9.873  18.231  0.00  0.00    +0.000 A 
ATOM     23  C   UNL     1       0.902  10.338  19.409  0.00  0.00    +0.000 A 
ATOM     24  C   UNL     1       0.873   9.517  20.535  0.00  0.00    +0.000 A 
ATOM     25  C   UNL     1       1.430   8.234  20.490  0.00  0.00    +0.000 A 
ENDBRANCH  19  20
ENDBRANCH  18  19
ENDBRANCH   5  18
TORSDOF 5
ENDMDL
MODEL 8
REMARK VINA RESULT:      -7.1      2.023      6.242
REMARK  Name = 
REMARK  6 active torsions:
REMARK  status: ('A' for Active; 'I' for Inactive)
REMARK    1  A    between atoms: C_1  and  N_2
REMARK    2  A    between atoms: C_4  and  N_5
REMARK    3  A    between atoms: C_6  and  C_8
REMARK    4  A    between atoms: C_12  and  C_13
REMARK    5  A    between atoms: C_13  and  O_14
REMARK    6  A    between atoms: O_14  and  C_15
REMARK                            x       y       z     vdW  Elec       q    Type
REMARK                         _______ _______ _______ _____ _____    ______ ____
ROOT
ATOM      1  C   UNL     1       2.761   3.230  19.627  0.00  0.00    +0.000 A 
ATOM      2  O   UNL     1       2.144   2.010  19.496  0.00  0.00    +0.000 OA
ATOM      3  C   UNL     1       0.970   2.076  20.169  0.00  0.00    +0.000 A 
ATOM      4  C   UNL     1       0.809   3.315  20.737  0.00  0.00    +0.000 A 
ATOM      5  C   UNL     1       1.963   4.077  20.391  0.00  0.00    +0.000 A 
ENDROOT
BRANCH   1   7
ATOM      6  N   UNL     1       3.959   4.103  17.762  0.00  0.00    +0.000 N 
ATOM      7  C   UNL     1       4.050   3.439  18.981  0.00  0.00    +0.000 C 
ATOM      8  O   UNL     1       5.098   3.074  19.502  0.00  0.00    +0.000 OA
ATOM      9  H   UNL     1       3.007   4.342  17.497  0.00  0.00    +0.000 HD
BRANCH   6  13
ATOM     10  C   UNL     1       7.585   7.135  16.742  0.00  0.00    +0.000 C 
ATOM     11  N   UNL     1       6.775   5.985  16.384  0.00  0.00    +0.000 N 
ATOM     12  C   UNL     1       5.737   5.564  17.206  0.00  0.00    +0.000 A 
ATOM     13  C   UNL     1       4.969   4.498  16.904  0.00  0.00    +0.000 A 
ATOM     14  C   UNL     1       5.249   3.795  15.666  0.00  0.00    +0.000 A 
ATOM     15  C   UNL     1       6.246   4.172  14.854  0.00  0.00    +0.000 A 
ATOM     16  C   UNL     1       7.099   5.332  15.196  0.00  0.00    +0.000 A 
ATOM     17  O   UNL     1       8.014   5.654  14.446  0.00  0.00    +0.000 OA
ENDBRANCH   6  13
ENDBRANCH   1   7
BRANCH   5  18
ATOM     18  C   UNL     1       2.240   5.499  20.780  0.00  0.00    +0.000 C 
BRANCH  18  19
ATOM     19  O   UNL     1       2.714   6.238  19.651  0.00  0.00    +0.000 OA
BRANCH  19  20
ATOM     20  C   UNL     1       2.176   7.482  19.463  0.00  0.00    +0.000 A 
ATOM     21  C   UNL     1       2.358   8.015  18.182  0.00  0.00    +0.000 A 
ATOM     22  C   UNL     1       1.839   9.268  17.851  0.00  0.00    +0.000 A 
ATOM     23  C   UNL     1       1.116   9.992  18.796  0.00  0.00    +0.000 A 
ATOM     24  C   UNL     1       0.916   9.461  20.069  0.00  0.00    +0.000 A 
ATOM     25  C   UNL     1       1.443   8.208  20.403  0.00  0.00    +0.000 A 
ENDBRANCH  19  20
ENDBRANCH  18  19
ENDBRANCH   5  18
TORSDOF 5
ENDMDL
MODEL 9
REMARK VINA RESULT:      -7.1      2.034      6.146
REMARK  Name = 
REMARK  6 active torsions:
REMARK  status: ('A' for Active; 'I' for Inactive)
REMARK    1  A    between atoms: C_1  and  N_2
REMARK    2  A    between atoms: C_4  and  N_5
REMARK    3  A    between atoms: C_6  and  C_8
REMARK    4  A    between atoms: C_12  and  C_13
REMARK    5  A    between atoms: C_13  and  O_14
REMARK    6  A    between atoms: O_14  and  C_15
REMARK                            x       y       z     vdW  Elec       q    Type
REMARK                         _______ _______ _______ _____ _____    ______ ____
ROOT
ATOM      1  C   UNL     1       2.439   3.201  19.071  0.00  0.00    +0.000 A 
ATOM      2  O   UNL     1       1.697   2.145  18.601  0.00  0.00    +0.000 OA
ATOM      3  C   UNL     1       0.504   2.172  19.244  0.00  0.00    +0.000 A 
ATOM      4  C   UNL     1       0.454   3.226  20.123  0.00  0.00    +0.000 A 
ATOM      5  C   UNL     1       1.703   3.905  20.019  0.00  0.00    +0.000 A 
ENDROOT
BRANCH   1   7
ATOM      6  N   UNL     1       3.781   4.090  17.314  0.00  0.00    +0.000 N 
ATOM      7  C   UNL     1       3.775   3.415  18.530  0.00  0.00    +0.000 C 
ATOM      8  O   UNL     1       4.779   3.046  19.130  0.00  0.00    +0.000 OA
ATOM      9  H   UNL     1       2.853   4.331  16.977  0.00  0.00    +0.000 HD
BRANCH   6  13
ATOM     10  C   UNL     1       7.595   7.000  16.712  0.00  0.00    +0.000 C 
ATOM     11  N   UNL     1       6.756   5.920  16.229  0.00  0.00    +0.000 N 
ATOM     12  C   UNL     1       5.654   5.496  16.961  0.00  0.00    +0.000 A 
ATOM     13  C   UNL     1       4.856   4.492  16.543  0.00  0.00    +0.000 A 
ATOM     14  C   UNL     1       5.175   3.864  15.275  0.00  0.00    +0.000 A 
ATOM     15  C   UNL     1       6.233   4.245  14.547  0.00  0.00    +0.000 A 
ATOM     16  C   UNL     1       7.117   5.335  15.017  0.00  0.00    +0.000 A 
ATOM     17  O   UNL     1       8.088   5.662  14.343  0.00  0.00    +0.000 OA
ENDBRANCH   6  13
ENDBRANCH   1   7
BRANCH   5  18
ATOM     18  C   UNL     1       2.117   5.127  20.784  0.00  0.00    +0.000 C 
BRANCH  18  19
ATOM     19  O   UNL     1       2.933   5.969  19.967  0.00  0.00    +0.000 OA
BRANCH  19  20
ATOM     20  C   UNL     1       2.351   7.114  19.493  0.00  0.00    +0.000 A 
ATOM     21  C   UNL     1       1.698   7.887  20.458  0.00  0.00    +0.000 A 
ATOM     22  C   UNL     1       1.082   9.091  20.111  0.00  0.00    +0.000 A 
ATOM     23  C   UNL     1       1.131   9.541  18.794  0.00  0.00    +0.000 A 
ATOM     24  C   UNL     1       1.794   8.785  17.829  0.00  0.00    +0.000 A 
ATOM     25  C   UNL     1       2.404   7.574  18.175  0.00  0.00    +0.000 A 
ENDBRANCH  19  20
ENDBRANCH  18  19
ENDBRANCH   5  18
TORSDOF 5
ENDMDL
