MODEL 1
REMARK VINA RESULT:      -7.6      0.000      0.000
REMARK  Name = 
REMARK  6 active torsions:
REMARK  status: ('A' for Active; 'I' for Inactive)
REMARK    1  A    between atoms: C_1  and  C_2
REMARK    2  A    between atoms: C_2  and  N_3
REMARK    3  A    between atoms: C_7  and  C_9
REMARK    4  A    between atoms: C_16  and  C_17
REMARK    5  A    between atoms: C_20  and  O_21
REMARK    6  A    between atoms: O_21  and  C_22
REMARK                            x       y       z     vdW  Elec       q    Type
REMARK                         _______ _______ _______ _____ _____    ______ ____
ROOT
ATOM      1  C   UNL     1       3.083   3.487  18.941  0.00  0.00    +0.000 C 
ATOM      2  C   UNL     1       3.701   3.045  20.294  0.00  0.00    +0.000 C 
ATOM      3  C   UNL     1       2.672   3.161  21.422  0.00  0.00    +0.000 C 
ATOM      4  C   UNL     1       1.412   2.366  21.050  0.00  0.00    +0.000 C 
ATOM      5  C   UNL     1       0.766   2.946  19.786  0.00  0.00    +0.000 C 
ATOM      6  C   UNL     1       1.729   2.820  18.606  0.00  0.00    +0.000 C 
ATOM      7  C   UNL     1       0.455   4.431  19.989  0.00  0.00    +0.000 C 
ATOM      8  C   UNL     1       1.748   5.241  20.300  0.00  0.00    +0.000 C 
ATOM      9  C   UNL     1       2.334   4.647  21.610  0.00  0.00    +0.000 C 
ATOM     10  C   UNL     1       2.757   5.001  19.125  0.00  0.00    +0.000 C 
ENDROOT
BRANCH   1  15
ATOM     11  N   UNL     1       6.177   6.661  16.083  0.00  0.00    +0.000 NA
ATOM     12  C   UNL     1       5.949   5.363  15.392  0.00  0.00    +0.000 C 
ATOM     13  C   UNL     1       5.869   4.121  16.311  0.00  0.00    +0.000 C 
ATOM     14  N   UNL     1       4.931   4.326  17.419  0.00  0.00    +0.000 N 
ATOM     15  C   UNL     1       4.094   3.280  17.797  0.00  0.00    +0.000 C 
ATOM     16  O   UNL     1       4.143   2.194  17.207  0.00  0.00    +0.000 OA
ATOM     17  C   UNL     1       5.152   5.594  18.130  0.00  0.00    +0.000 C 
ATOM     18  C   UNL     1       5.185   6.788  17.167  0.00  0.00    +0.000 C 
BRANCH  11  20
ATOM     19  C   UNL     1       7.825   7.890  17.549  0.00  0.00    +0.000 C 
ATOM     20  C   UNL     1       7.572   6.786  16.524  0.00  0.00    +0.000 C 
ENDBRANCH  11  20
ENDBRANCH   1  15
BRANCH   8  21
ATOM     21  C   UNL     1       1.502   6.744  20.448  0.00  0.00    +0.000 A 
ATOM     22  C   UNL     1       0.769   7.290  21.513  0.00  0.00    +0.000 A 
ATOM     23  C   UNL     1       0.461   8.649  21.556  0.00  0.00    +0.000 A 
ATOM     24  C   UNL     1       0.896   9.509  20.552  0.00  0.00    +0.000 A 
ATOM     25  C   UNL     1       1.647   8.997  19.500  0.00  0.00    +0.000 A 
ATOM     26  C   UNL     1       1.953   7.634  19.454  0.00  0.00    +0.000 A 
BRANCH  24  27
ATOM     27  O   UNL     1       0.480  10.804  20.674  0.00  0.00    +0.000 OA
ATOM     28  C   UNL     1      -0.564  11.022  21.613  0.00  0.00    +0.000 C 
ENDBRANCH  24  27
ENDBRANCH   8  21
TORSDOF 4
ENDMDL
MODEL 2
REMARK VINA RESULT:      -7.5      2.824      7.436
REMARK  Name = 
REMARK  6 active torsions:
REMARK  status: ('A' for Active; 'I' for Inactive)
REMARK    1  A    between atoms: C_1  and  C_2
REMARK    2  A    between atoms: C_2  and  N_3
REMARK    3  A    between atoms: C_7  and  C_9
REMARK    4  A    between atoms: C_16  and  C_17
REMARK    5  A    between atoms: C_20  and  O_21
REMARK    6  A    between atoms: O_21  and  C_22
REMARK                            x       y       z     vdW  Elec       q    Type
REMARK                         _______ _______ _______ _____ _____    ______ ____
ROOT
ATOM      1  C   UNL     1       2.816   6.521  18.397  0.00  0.00    +0.000 C 
ATOM      2  C   UNL     1       1.680   5.495  18.139  0.00  0.00    +0.000 C 
ATOM      3  C   UNL     1       2.211   4.063  18.244  0.00  0.00    +0.000 C 
ATOM      4  C   UNL     1       2.898   3.868  19.603  0.00  0.00    +0.000 C 
ATOM      5  C   UNL     1       4.102   4.809  19.734  0.00  0.00    +0.000 C 
ATOM      6  C   UNL     1       3.634   6.262  19.683  0.00  0.00    +0.000 C 
ATOM      7  C   UNL     1       5.075   4.581  18.575  0.00  0.00    +0.000 C 
ATOM      8  C   UNL     1       4.389   4.846  17.203  0.00  0.00    +0.000 C 
ATOM      9  C   UNL     1       3.211   3.839  17.099  0.00  0.00    +0.000 C 
ATOM     10  C   UNL     1       3.823   6.306  17.225  0.00  0.00    +0.000 C 
ENDROOT
BRANCH   1  15
ATOM     11  N   UNL     1      -0.561   9.234  21.406  0.00  0.00    +0.000 NA
ATOM     12  C   UNL     1      -0.418   9.853  20.061  0.00  0.00    +0.000 C 
ATOM     13  C   UNL     1       0.999   9.789  19.442  0.00  0.00    +0.000 C 
ATOM     14  N   UNL     1       1.548   8.431  19.483  0.00  0.00    +0.000 N 
ATOM     15  C   UNL     1       2.256   7.956  18.383  0.00  0.00    +0.000 C 
ATOM     16  O   UNL     1       2.419   8.670  17.386  0.00  0.00    +0.000 OA
ATOM     17  C   UNL     1       1.437   7.808  20.810  0.00  0.00    +0.000 C 
ATOM     18  C   UNL     1       0.002   7.872  21.350  0.00  0.00    +0.000 C 
BRANCH  11  20
ATOM     19  C   UNL     1      -0.775  11.344  22.777  0.00  0.00    +0.000 C 
ATOM     20  C   UNL     1       0.029  10.089  22.445  0.00  0.00    +0.000 C 
ENDBRANCH  11  20
ENDBRANCH   1  15
BRANCH   8  21
ATOM     21  C   UNL     1       5.338   4.696  16.011  0.00  0.00    +0.000 A 
ATOM     22  C   UNL     1       6.632   5.237  16.001  0.00  0.00    +0.000 A 
ATOM     23  C   UNL     1       7.427   5.187  14.857  0.00  0.00    +0.000 A 
ATOM     24  C   UNL     1       6.966   4.571  13.697  0.00  0.00    +0.000 A 
ATOM     25  C   UNL     1       5.697   4.003  13.690  0.00  0.00    +0.000 A 
ATOM     26  C   UNL     1       4.898   4.057  14.836  0.00  0.00    +0.000 A 
BRANCH  24  27
ATOM     27  O   UNL     1       7.811   4.639  12.626  0.00  0.00    +0.000 OA
ATOM     28  C   UNL     1       8.459   5.891  12.441  0.00  0.00    +0.000 C 
ENDBRANCH  24  27
ENDBRANCH   8  21
TORSDOF 4
ENDMDL
MODEL 3
REMARK VINA RESULT:      -7.5      2.882      7.655
REMARK  Name = 
REMARK  6 active torsions:
REMARK  status: ('A' for Active; 'I' for Inactive)
REMARK    1  A    between atoms: C_1  and  C_2
REMARK    2  A    between atoms: C_2  and  N_3
REMARK    3  A    between atoms: C_7  and  C_9
REMARK    4  A    between atoms: C_16  and  C_17
REMARK    5  A    between atoms: C_20  and  O_21
REMARK    6  A    between atoms: O_21  and  C_22
REMARK                            x       y       z     vdW  Elec       q    Type
REMARK                         _______ _______ _______ _____ _____    ______ ____
ROOT
ATOM      1  C   UNL     1       3.240   6.510  18.180  0.00  0.00    +0.000 C 
ATOM      2  C   UNL     1       2.157   5.398  18.218  0.00  0.00    +0.000 C 
ATOM      3  C   UNL     1       2.806   4.014  18.292  0.00  0.00    +0.000 C 
ATOM      4  C   UNL     1       3.764   3.959  19.491  0.00  0.00    +0.000 C 
ATOM      5  C   UNL     1       4.895   4.981  19.320  0.00  0.00    +0.000 C 
ATOM      6  C   UNL     1       4.316   6.395  19.284  0.00  0.00    +0.000 C 
ATOM      7  C   UNL     1       5.631   4.735  18.001  0.00  0.00    +0.000 C 
ATOM      8  C   UNL     1       4.666   4.858  16.785  0.00  0.00    +0.000 C 
ATOM      9  C   UNL     1       3.571   3.774  16.982  0.00  0.00    +0.000 C 
ATOM     10  C   UNL     1       4.005   6.278  16.841  0.00  0.00    +0.000 C 
ENDROOT
BRANCH   1  15
ATOM     11  N   UNL     1      -0.269   8.927  21.289  0.00  0.00    +0.000 NA
ATOM     12  C   UNL     1      -0.192   9.577  19.953  0.00  0.00    +0.000 C 
ATOM     13  C   UNL     1       1.215   9.624  19.311  0.00  0.00    +0.000 C 
ATOM     14  N   UNL     1       1.859   8.308  19.319  0.00  0.00    +0.000 N 
ATOM     15  C   UNL     1       2.580   7.902  18.200  0.00  0.00    +0.000 C 
ATOM     16  O   UNL     1       2.677   8.643  17.214  0.00  0.00    +0.000 OA
ATOM     17  C   UNL     1       1.814   7.655  20.637  0.00  0.00    +0.000 C 
ATOM     18  C   UNL     1       0.387   7.610  21.200  0.00  0.00    +0.000 C 
BRANCH  11  20
ATOM     19  C   UNL     1      -0.755  10.685  23.036  0.00  0.00    +0.000 C 
ATOM     20  C   UNL     1       0.277   9.804  22.334  0.00  0.00    +0.000 C 
ENDBRANCH  11  20
ENDBRANCH   1  15
BRANCH   8  21
ATOM     21  C   UNL     1       5.365   4.685  15.435  0.00  0.00    +0.000 A 
ATOM     22  C   UNL     1       4.757   4.043  14.345  0.00  0.00    +0.000 A 
ATOM     23  C   UNL     1       5.463   3.795  13.168  0.00  0.00    +0.000 A 
ATOM     24  C   UNL     1       6.787   4.205  13.033  0.00  0.00    +0.000 A 
ATOM     25  C   UNL     1       7.402   4.867  14.089  0.00  0.00    +0.000 A 
ATOM     26  C   UNL     1       6.696   5.112  15.270  0.00  0.00    +0.000 A 
BRANCH  24  27
ATOM     27  O   UNL     1       7.388   3.852  11.859  0.00  0.00    +0.000 OA
ATOM     28  C   UNL     1       7.172   2.510  11.444  0.00  0.00    +0.000 C 
ENDBRANCH  24  27
ENDBRANCH   8  21
TORSDOF 4
ENDMDL
MODEL 4
REMARK VINA RESULT:      -7.4      4.933     10.364
REMARK  Name = 
REMARK  6 active torsions:
REMARK  status: ('A' for Active; 'I' for Inactive)
REMARK    1  A    between atoms: C_1  and  C_2
REMARK    2  A    between atoms: C_2  and  N_3
REMARK    3  A    between atoms: C_7  and  C_9
REMARK    4  A    between atoms: C_16  and  C_17
REMARK    5  A    between atoms: C_20  and  O_21
REMARK    6  A    between atoms: O_21  and  C_22
REMARK                            x       y       z     vdW  Elec       q    Type
REMARK                         _______ _______ _______ _____ _____    ______ ____
ROOT
ATOM      1  C   UNL     1      -1.020  11.867  20.901  0.00  0.00    +0.000 C 
ATOM      2  C   UNL     1      -0.018  13.043  20.759  0.00  0.00    +0.000 C 
ATOM      3  C   UNL     1       0.538  13.110  19.335  0.00  0.00    +0.000 C 
ATOM      4  C   UNL     1      -0.623  13.187  18.333  0.00  0.00    +0.000 C 
ATOM      5  C   UNL     1      -1.492  11.927  18.422  0.00  0.00    +0.000 C 
ATOM      6  C   UNL     1      -2.117  11.823  19.813  0.00  0.00    +0.000 C 
ATOM      7  C   UNL     1      -0.634  10.680  18.192  0.00  0.00    +0.000 C 
ATOM      8  C   UNL     1       0.501  10.574  19.252  0.00  0.00    +0.000 C 
ATOM      9  C   UNL     1       1.376  11.847  19.088  0.00  0.00    +0.000 C 
ATOM     10  C   UNL     1      -0.166  10.582  20.670  0.00  0.00    +0.000 C 
ENDROOT
BRANCH   1  15
ATOM     11  N   UNL     1      -5.236  14.134  23.115  0.00  0.00    +0.000 NA
ATOM     12  C   UNL     1      -4.243  13.722  24.143  0.00  0.00    +0.000 C 
ATOM     13  C   UNL     1      -3.488  12.403  23.852  0.00  0.00    +0.000 C 
ATOM     14  N   UNL     1      -2.919  12.391  22.501  0.00  0.00    +0.000 N 
ATOM     15  C   UNL     1      -1.645  11.863  22.310  0.00  0.00    +0.000 C 
ATOM     16  O   UNL     1      -1.004  11.410  23.266  0.00  0.00    +0.000 OA
ATOM     17  C   UNL     1      -3.890  12.775  21.466  0.00  0.00    +0.000 C 
ATOM     18  C   UNL     1      -4.577  14.106  21.797  0.00  0.00    +0.000 C 
BRANCH  11  20
ATOM     19  C   UNL     1      -7.502  13.821  24.186  0.00  0.00    +0.000 C 
ATOM     20  C   UNL     1      -6.453  13.315  23.198  0.00  0.00    +0.000 C 
ENDBRANCH  11  20
ENDBRANCH   1  15
BRANCH   8  21
ATOM     21  C   UNL     1       1.351   9.308  19.108  0.00  0.00    +0.000 A 
ATOM     22  C   UNL     1       2.008   8.971  17.914  0.00  0.00    +0.000 A 
ATOM     23  C   UNL     1       2.674   7.754  17.777  0.00  0.00    +0.000 A 
ATOM     24  C   UNL     1       2.729   6.850  18.834  0.00  0.00    +0.000 A 
ATOM     25  C   UNL     1       2.109   7.174  20.035  0.00  0.00    +0.000 A 
ATOM     26  C   UNL     1       1.437   8.391  20.172  0.00  0.00    +0.000 A 
BRANCH  24  27
ATOM     27  O   UNL     1       3.358   5.669  18.558  0.00  0.00    +0.000 OA
ATOM     28  C   UNL     1       2.524   4.642  18.038  0.00  0.00    +0.000 C 
ENDBRANCH  24  27
ENDBRANCH   8  21
TORSDOF 4
ENDMDL
MODEL 5
REMARK VINA RESULT:      -7.4      5.150      9.939
REMARK  Name = 
REMARK  6 active torsions:
REMARK  status: ('A' for Active; 'I' for Inactive)
REMARK    1  A    between atoms: C_1  and  C_2
REMARK    2  A    between atoms: C_2  and  N_3
REMARK    3  A    between atoms: C_7  and  C_9
REMARK    4  A    between atoms: C_16  and  C_17
REMARK    5  A    between atoms: C_20  and  O_21
REMARK    6  A    between atoms: O_21  and  C_22
REMARK                            x       y       z     vdW  Elec       q    Type
REMARK                         _______ _______ _______ _____ _____    ______ ____
ROOT
ATOM      1  C   UNL     1      -1.696  11.434  18.641  0.00  0.00    +0.000 C 
ATOM      2  C   UNL     1      -2.040  11.403  20.154  0.00  0.00    +0.000 C 
ATOM      3  C   UNL     1      -0.793  11.680  20.997  0.00  0.00    +0.000 C 
ATOM      4  C   UNL     1      -0.158  13.005  20.554  0.00  0.00    +0.000 C 
ATOM      5  C   UNL     1       0.294  12.920  19.091  0.00  0.00    +0.000 C 
ATOM      6  C   UNL     1      -0.915  12.689  18.186  0.00  0.00    +0.000 C 
ATOM      7  C   UNL     1       1.259  11.746  18.907  0.00  0.00    +0.000 C 
ATOM      8  C   UNL     1       0.585  10.397  19.295  0.00  0.00    +0.000 C 
ATOM      9  C   UNL     1       0.191  10.518  20.793  0.00  0.00    +0.000 C 
ATOM     10  C   UNL     1      -0.711  10.243  18.429  0.00  0.00    +0.000 C 
ENDROOT
BRANCH   1  15
ATOM     11  N   UNL     1      -6.867  11.958  19.537  0.00  0.00    +0.000 NA
ATOM     12  C   UNL     1      -6.608  11.090  18.357  0.00  0.00    +0.000 C 
ATOM     13  C   UNL     1      -5.401  11.496  17.480  0.00  0.00    +0.000 C 
ATOM     14  N   UNL     1      -4.193  11.706  18.282  0.00  0.00    +0.000 N 
ATOM     15  C   UNL     1      -2.972  11.247  17.797  0.00  0.00    +0.000 C 
ATOM     16  O   UNL     1      -2.908  10.672  16.704  0.00  0.00    +0.000 OA
ATOM     17  C   UNL     1      -4.421  12.580  19.443  0.00  0.00    +0.000 C 
ATOM     18  C   UNL     1      -5.607  12.102  20.290  0.00  0.00    +0.000 C 
BRANCH  11  20
ATOM     19  C   UNL     1      -7.915  14.131  20.287  0.00  0.00    +0.000 C 
ATOM     20  C   UNL     1      -7.476  13.232  19.132  0.00  0.00    +0.000 C 
ENDBRANCH  11  20
ENDBRANCH   1  15
BRANCH   8  21
ATOM     21  C   UNL     1       1.486   9.181  19.067  0.00  0.00    +0.000 A 
ATOM     22  C   UNL     1       2.191   8.976  17.871  0.00  0.00    +0.000 A 
ATOM     23  C   UNL     1       2.908   7.800  17.648  0.00  0.00    +0.000 A 
ATOM     24  C   UNL     1       2.965   6.807  18.622  0.00  0.00    +0.000 A 
ATOM     25  C   UNL     1       2.297   6.999  19.826  0.00  0.00    +0.000 A 
ATOM     26  C   UNL     1       1.575   8.175  20.048  0.00  0.00    +0.000 A 
BRANCH  24  27
ATOM     27  O   UNL     1       3.646   5.679  18.263  0.00  0.00    +0.000 OA
ATOM     28  C   UNL     1       4.394   5.063  19.303  0.00  0.00    +0.000 C 
ENDBRANCH  24  27
ENDBRANCH   8  21
TORSDOF 4
ENDMDL
MODEL 6
REMARK VINA RESULT:      -7.2      4.952     10.307
REMARK  Name = 
REMARK  6 active torsions:
REMARK  status: ('A' for Active; 'I' for Inactive)
REMARK    1  A    between atoms: C_1  and  C_2
REMARK    2  A    between atoms: C_2  and  N_3
REMARK    3  A    between atoms: C_7  and  C_9
REMARK    4  A    between atoms: C_16  and  C_17
REMARK    5  A    between atoms: C_20  and  O_21
REMARK    6  A    between atoms: O_21  and  C_22
REMARK                            x       y       z     vdW  Elec       q    Type
REMARK                         _______ _______ _______ _____ _____    ______ ____
ROOT
ATOM      1  C   UNL     1      -0.998  11.915  20.838  0.00  0.00    +0.000 C 
ATOM      2  C   UNL     1       0.036  13.045  20.592  0.00  0.00    +0.000 C 
ATOM      3  C   UNL     1       0.586  12.973  19.166  0.00  0.00    +0.000 C 
ATOM      4  C   UNL     1      -0.578  12.998  18.165  0.00  0.00    +0.000 C 
ATOM      5  C   UNL     1      -1.481  11.775  18.364  0.00  0.00    +0.000 C 
ATOM      6  C   UNL     1      -2.101  11.809  19.760  0.00  0.00    +0.000 C 
ATOM      7  C   UNL     1      -0.659  10.489  18.240  0.00  0.00    +0.000 C 
ATOM      8  C   UNL     1       0.478  10.442  19.302  0.00  0.00    +0.000 C 
ATOM      9  C   UNL     1       1.387  11.670  19.027  0.00  0.00    +0.000 C 
ATOM     10  C   UNL     1      -0.182  10.591  20.716  0.00  0.00    +0.000 C 
ENDROOT
BRANCH   1  15
ATOM     11  N   UNL     1      -3.134  15.862  23.608  0.00  0.00    +0.000 NA
ATOM     12  C   UNL     1      -2.691  14.755  24.498  0.00  0.00    +0.000 C 
ATOM     13  C   UNL     1      -2.873  13.327  23.931  0.00  0.00    +0.000 C 
ATOM     14  N   UNL     1      -2.315  13.204  22.582  0.00  0.00    +0.000 N 
ATOM     15  C   UNL     1      -1.616  12.049  22.243  0.00  0.00    +0.000 C 
ATOM     16  O   UNL     1      -1.470  11.140  23.070  0.00  0.00    +0.000 OA
ATOM     17  C   UNL     1      -2.757  14.277  21.678  0.00  0.00    +0.000 C 
ATOM     18  C   UNL     1      -2.516  15.666  22.284  0.00  0.00    +0.000 C 
BRANCH  11  20
ATOM     19  C   UNL     1      -5.202  16.855  24.666  0.00  0.00    +0.000 C 
ATOM     20  C   UNL     1      -4.599  15.963  23.581  0.00  0.00    +0.000 C 
ENDBRANCH  11  20
ENDBRANCH   1  15
BRANCH   8  21
ATOM     21  C   UNL     1       1.290   9.145  19.265  0.00  0.00    +0.000 A 
ATOM     22  C   UNL     1       1.930   8.687  18.103  0.00  0.00    +0.000 A 
ATOM     23  C   UNL     1       2.562   7.444  18.069  0.00  0.00    +0.000 A 
ATOM     24  C   UNL     1       2.597   6.633  19.200  0.00  0.00    +0.000 A 
ATOM     25  C   UNL     1       1.994   7.077  20.371  0.00  0.00    +0.000 A 
ATOM     26  C   UNL     1       1.357   8.321  20.404  0.00  0.00    +0.000 A 
BRANCH  24  27
ATOM     27  O   UNL     1       3.191   5.416  19.024  0.00  0.00    +0.000 OA
ATOM     28  C   UNL     1       4.609   5.411  19.120  0.00  0.00    +0.000 C 
ENDBRANCH  24  27
ENDBRANCH   8  21
TORSDOF 4
ENDMDL
MODEL 7
REMARK VINA RESULT:      -7.2      4.978     10.027
REMARK  Name = 
REMARK  6 active torsions:
REMARK  status: ('A' for Active; 'I' for Inactive)
REMARK    1  A    between atoms: C_1  and  C_2
REMARK    2  A    between atoms: C_2  and  N_3
REMARK    3  A    between atoms: C_7  and  C_9
REMARK    4  A    between atoms: C_16  and  C_17
REMARK    5  A    between atoms: C_20  and  O_21
REMARK    6  A    between atoms: O_21  and  C_22
REMARK                            x       y       z     vdW  Elec       q    Type
REMARK                         _______ _______ _______ _____ _____    ______ ____
ROOT
ATOM      1  C   UNL     1      -1.500  11.667  19.152  0.00  0.00    +0.000 C 
ATOM      2  C   UNL     1      -1.488  11.792  20.699  0.00  0.00    +0.000 C 
ATOM      3  C   UNL     1      -0.061  11.997  21.213  0.00  0.00    +0.000 C 
ATOM      4  C   UNL     1       0.570  13.206  20.509  0.00  0.00    +0.000 C 
ATOM      5  C   UNL     1       0.665  12.958  18.999  0.00  0.00    +0.000 C 
ATOM      6  C   UNL     1      -0.736  12.789  18.412  0.00  0.00    +0.000 C 
ATOM      7  C   UNL     1       1.453  11.674  18.726  0.00  0.00    +0.000 C 
ATOM      8  C   UNL     1       0.769  10.442  19.388  0.00  0.00    +0.000 C 
ATOM      9  C   UNL     1       0.743  10.722  20.915  0.00  0.00    +0.000 C 
ATOM     10  C   UNL     1      -0.700  10.362  18.850  0.00  0.00    +0.000 C 
ENDROOT
BRANCH   1  15
ATOM     11  N   UNL     1      -6.258  12.827  21.109  0.00  0.00    +0.000 NA
ATOM     12  C   UNL     1      -6.356  11.845  19.997  0.00  0.00    +0.000 C 
ATOM     13  C   UNL     1      -5.352  12.044  18.837  0.00  0.00    +0.000 C 
ATOM     14  N   UNL     1      -3.978  12.183  19.327  0.00  0.00    +0.000 N 
ATOM     15  C   UNL     1      -2.947  11.555  18.635  0.00  0.00    +0.000 C 
ATOM     16  O   UNL     1      -3.188  10.890  17.620  0.00  0.00    +0.000 OA
ATOM     17  C   UNL     1      -3.853  13.166  20.414  0.00  0.00    +0.000 C 
ATOM     18  C   UNL     1      -4.851  12.892  21.547  0.00  0.00    +0.000 C 
BRANCH  11  20
ATOM     19  C   UNL     1      -6.749  15.209  21.792  0.00  0.00    +0.000 C 
ATOM     20  C   UNL     1      -6.828  14.124  20.719  0.00  0.00    +0.000 C 
ENDBRANCH  11  20
ENDBRANCH   1  15
BRANCH   8  21
ATOM     21  C   UNL     1       1.483   9.120  19.090  0.00  0.00    +0.000 A 
ATOM     22  C   UNL     1       1.597   8.093  20.039  0.00  0.00    +0.000 A 
ATOM     23  C   UNL     1       2.354   6.951  19.779  0.00  0.00    +0.000 A 
ATOM     24  C   UNL     1       2.997   6.788  18.555  0.00  0.00    +0.000 A 
ATOM     25  C   UNL     1       2.876   7.780  17.588  0.00  0.00    +0.000 A 
ATOM     26  C   UNL     1       2.120   8.926  17.851  0.00  0.00    +0.000 A 
BRANCH  24  27
ATOM     27  O   UNL     1       3.756   5.658  18.442  0.00  0.00    +0.000 OA
ATOM     28  C   UNL     1       4.379   5.467  17.179  0.00  0.00    +0.000 C 
ENDBRANCH  24  27
ENDBRANCH   8  21
TORSDOF 4
ENDMDL
MODEL 8
REMARK VINA RESULT:      -7.2      4.984     10.086
REMARK  Name = 
REMARK  6 active torsions:
REMARK  status: ('A' for Active; 'I' for Inactive)
REMARK    1  A    between atoms: C_1  and  C_2
REMARK    2  A    between atoms: C_2  and  N_3
REMARK    3  A    between atoms: C_7  and  C_9
REMARK    4  A    between atoms: C_16  and  C_17
REMARK    5  A    between atoms: C_20  and  O_21
REMARK    6  A    between atoms: O_21  and  C_22
REMARK                            x       y       z     vdW  Elec       q    Type
REMARK                         _______ _______ _______ _____ _____    ______ ____
ROOT
ATOM      1  C   UNL     1      -1.516  11.709  19.272  0.00  0.00    +0.000 C 
ATOM      2  C   UNL     1      -1.505  11.854  20.817  0.00  0.00    +0.000 C 
ATOM      3  C   UNL     1      -0.081  12.079  21.329  0.00  0.00    +0.000 C 
ATOM      4  C   UNL     1       0.540  13.284  20.609  0.00  0.00    +0.000 C 
ATOM      5  C   UNL     1       0.637  13.016  19.102  0.00  0.00    +0.000 C 
ATOM      6  C   UNL     1      -0.762  12.827  18.517  0.00  0.00    +0.000 C 
ATOM      7  C   UNL     1       1.437  11.736  18.847  0.00  0.00    +0.000 C 
ATOM      8  C   UNL     1       0.764  10.507  19.525  0.00  0.00    +0.000 C 
ATOM      9  C   UNL     1       0.735  10.808  21.049  0.00  0.00    +0.000 C 
ATOM     10  C   UNL     1      -0.704  10.407  18.987  0.00  0.00    +0.000 C 
ENDROOT
BRANCH   1  15
ATOM     11  N   UNL     1      -6.283  12.890  21.195  0.00  0.00    +0.000 NA
ATOM     12  C   UNL     1      -6.374  11.880  20.107  0.00  0.00    +0.000 C 
ATOM     13  C   UNL     1      -5.369  12.057  18.944  0.00  0.00    +0.000 C 
ATOM     14  N   UNL     1      -3.997  12.215  19.432  0.00  0.00    +0.000 N 
ATOM     15  C   UNL     1      -2.961  11.576  18.756  0.00  0.00    +0.000 C 
ATOM     16  O   UNL     1      -3.198  10.886  17.756  0.00  0.00    +0.000 OA
ATOM     17  C   UNL     1      -3.879  13.225  20.495  0.00  0.00    +0.000 C 
ATOM     18  C   UNL     1      -4.877  12.972  21.633  0.00  0.00    +0.000 C 
BRANCH  11  20
ATOM     19  C   UNL     1      -6.856  15.262  21.846  0.00  0.00    +0.000 C 
ATOM     20  C   UNL     1      -6.859  14.174  20.774  0.00  0.00    +0.000 C 
ENDBRANCH  11  20
ENDBRANCH   1  15
BRANCH   8  21
ATOM     21  C   UNL     1       1.489   9.188  19.246  0.00  0.00    +0.000 A 
ATOM     22  C   UNL     1       2.014   8.866  17.985  0.00  0.00    +0.000 A 
ATOM     23  C   UNL     1       2.563   7.609  17.731  0.00  0.00    +0.000 A 
ATOM     24  C   UNL     1       2.628   6.646  18.734  0.00  0.00    +0.000 A 
ATOM     25  C   UNL     1       2.139   6.951  20.000  0.00  0.00    +0.000 A 
ATOM     26  C   UNL     1       1.586   8.209  20.253  0.00  0.00    +0.000 A 
BRANCH  24  27
ATOM     27  O   UNL     1       3.130   5.436  18.348  0.00  0.00    +0.000 OA
ATOM     28  C   UNL     1       2.176   4.517  17.835  0.00  0.00    +0.000 C 
ENDBRANCH  24  27
ENDBRANCH   8  21
TORSDOF 4
ENDMDL
MODEL 9
REMARK VINA RESULT:      -7.1      4.893     10.157
REMARK  Name = 
REMARK  6 active torsions:
REMARK  status: ('A' for Active; 'I' for Inactive)
REMARK    1  A    between atoms: C_1  and  C_2
REMARK    2  A    between atoms: C_2  and  N_3
REMARK    3  A    between atoms: C_7  and  C_9
REMARK    4  A    between atoms: C_16  and  C_17
REMARK    5  A    between atoms: C_20  and  O_21
REMARK    6  A    between atoms: O_21  and  C_22
REMARK                            x       y       z     vdW  Elec       q    Type
REMARK                         _______ _______ _______ _____ _____    ______ ____
ROOT
ATOM      1  C   UNL     1      -0.540  12.132  20.840  0.00  0.00    +0.000 C 
ATOM      2  C   UNL     1       0.487  13.166  20.307  0.00  0.00    +0.000 C 
ATOM      3  C   UNL     1       0.768  12.931  18.821  0.00  0.00    +0.000 C 
ATOM      4  C   UNL     1      -0.554  12.942  18.040  0.00  0.00    +0.000 C 
ATOM      5  C   UNL     1      -1.466  11.804  18.514  0.00  0.00    +0.000 C 
ATOM      6  C   UNL     1      -1.823  12.003  19.987  0.00  0.00    +0.000 C 
ATOM      7  C   UNL     1      -0.743  10.461  18.378  0.00  0.00    +0.000 C 
ATOM      8  C   UNL     1       0.562  10.434  19.225  0.00  0.00    +0.000 C 
ATOM      9  C   UNL     1       1.467  11.571  18.675  0.00  0.00    +0.000 C 
ATOM     10  C   UNL     1       0.176  10.752  20.710  0.00  0.00    +0.000 C 
ENDROOT
BRANCH   1  15
ATOM     11  N   UNL     1      -2.002  16.432  23.522  0.00  0.00    +0.000 NA
ATOM     12  C   UNL     1      -1.443  15.393  24.429  0.00  0.00    +0.000 C 
ATOM     13  C   UNL     1      -1.774  13.929  24.054  0.00  0.00    +0.000 C 
ATOM     14  N   UNL     1      -1.474  13.649  22.647  0.00  0.00    +0.000 N 
ATOM     15  C   UNL     1      -0.888  12.432  22.311  0.00  0.00    +0.000 C 
ATOM     16  O   UNL     1      -0.626  11.600  23.188  0.00  0.00    +0.000 OA
ATOM     17  C   UNL     1      -2.036  14.653  21.730  0.00  0.00    +0.000 C 
ATOM     18  C   UNL     1      -1.641  16.078  22.137  0.00  0.00    +0.000 C 
BRANCH  11  20
ATOM     19  C   UNL     1      -3.824  17.084  25.145  0.00  0.00    +0.000 C 
ATOM     20  C   UNL     1      -3.443  16.607  23.745  0.00  0.00    +0.000 C 
ENDBRANCH  11  20
ENDBRANCH   1  15
BRANCH   8  21
ATOM     21  C   UNL     1       1.291   9.089  19.176  0.00  0.00    +0.000 A 
ATOM     22  C   UNL     1       1.375   8.233  20.285  0.00  0.00    +0.000 A 
ATOM     23  C   UNL     1       2.146   7.072  20.244  0.00  0.00    +0.000 A 
ATOM     24  C   UNL     1       2.833   6.715  19.087  0.00  0.00    +0.000 A 
ATOM     25  C   UNL     1       2.742   7.533  17.966  0.00  0.00    +0.000 A 
ATOM     26  C   UNL     1       1.974   8.699  18.009  0.00  0.00    +0.000 A 
BRANCH  24  27
ATOM     27  O   UNL     1       3.600   5.590  19.190  0.00  0.00    +0.000 OA
ATOM     28  C   UNL     1       3.533   4.704  18.080  0.00  0.00    +0.000 C 
ENDBRANCH  24  27
ENDBRANCH   8  21
TORSDOF 4
ENDMDL
