MODEL 1
REMARK VINA RESULT:      -7.8      0.000      0.000
REMARK  Name = 
REMARK  3 active torsions:
REMARK  status: ('A' for Active; 'I' for Inactive)
REMARK    1  A    between atoms: C_1  and  C_2
REMARK    2  A    between atoms: C_9  and  N_10
REMARK    3  A    between atoms: C_11  and  C_13
REMARK                            x       y       z     vdW  Elec       q    Type
REMARK                         _______ _______ _______ _____ _____    ______ ____
ROOT
ATOM      1  N   UNL     1       6.884   8.097  17.244  0.00  0.00    +0.000 N 
ATOM      2  C   UNL     1       7.961   8.234  18.096  0.00  0.00    +0.000 C 
ATOM      3  O   UNL     1       8.468   7.365  18.795  0.00  0.00    +0.000 OA
ATOM      4  H   UNL     1       6.558   8.901  16.725  0.00  0.00    +0.000 HD
ENDROOT
BRANCH   1  13
ATOM      5  C   UNL     1       3.922   1.494  17.520  0.00  0.00    +0.000 C 
ATOM      6  C   UNL     1       3.313   2.839  17.740  0.00  0.00    +0.000 A 
ATOM      7  C   UNL     1       2.317   3.029  18.623  0.00  0.00    +0.000 A 
ATOM      8  C   UNL     1       1.726   4.293  19.125  0.00  0.00    +0.000 A 
ATOM      9  O   UNL     1       0.752   4.244  19.874  0.00  0.00    +0.000 OA
ATOM     10  O   UNL     1       2.292   5.501  18.781  0.00  0.00    +0.000 OA
ATOM     11  C   UNL     1       3.449   5.498  18.016  0.00  0.00    +0.000 A 
ATOM     12  C   UNL     1       4.496   6.933  18.087  0.00  0.00    +0.000 A 
ATOM     13  C   UNL     1       6.092   6.947  17.253  0.00  0.00    +0.000 A 
ATOM     14  C   UNL     1       6.606   5.519  16.292  0.00  0.00    +0.000 A 
ATOM     15  C   UNL     1       5.519   4.028  16.251  0.00  0.00    +0.000 A 
ATOM     16  C   UNL     1       3.985   4.009  17.198  0.00  0.00    +0.000 A 
ENDBRANCH   1  13
BRANCH   2  17
ATOM     17  C   UNL     1       8.527   9.578  18.243  0.00  0.00    +0.000 A 
ATOM     18  C   UNL     1       9.519   9.868  19.184  0.00  0.00    +0.000 A 
ATOM     19  C   UNL     1       9.932  11.192  19.365  0.00  0.00    +0.000 A 
ATOM     20  C   UNL     1       9.327  12.203  18.600  0.00  0.00    +0.000 A 
ATOM     21  N   UNL     1       9.518  13.560  18.629  0.00  0.00    +0.000 NA
ATOM     22  C   UNL     1       8.678  14.048  17.746  0.00  0.00    +0.000 A 
ATOM     23  N   UNL     1       7.962  13.062  17.123  0.00  0.00    +0.000 N 
ATOM     24  C   UNL     1       8.357  11.869  17.663  0.00  0.00    +0.000 A 
ATOM     25  C   UNL     1       7.933  10.569  17.442  0.00  0.00    +0.000 A 
ATOM     26  H   UNL     1       7.255  13.188  16.415  0.00  0.00    +0.000 HD
ENDBRANCH   2  17
TORSDOF 2
ENDMDL
MODEL 2
REMARK VINA RESULT:      -7.7      6.588      9.476
REMARK  Name = 
REMARK  3 active torsions:
REMARK  status: ('A' for Active; 'I' for Inactive)
REMARK    1  A    between atoms: C_1  and  C_2
REMARK    2  A    between atoms: C_9  and  N_10
REMARK    3  A    between atoms: C_11  and  C_13
REMARK                            x       y       z     vdW  Elec       q    Type
REMARK                         _______ _______ _______ _____ _____    ______ ____
ROOT
ATOM      1  N   UNL     1       1.559   8.631  19.487  0.00  0.00    +0.000 N 
ATOM      2  C   UNL     1       2.222   8.517  18.281  0.00  0.00    +0.000 C 
ATOM      3  O   UNL     1       2.266   9.345  17.379  0.00  0.00    +0.000 OA
ATOM      4  H   UNL     1       1.598   7.866  20.147  0.00  0.00    +0.000 HD
ENDROOT
BRANCH   1  13
ATOM      5  C   UNL     1      -4.064  13.077  20.514  0.00  0.00    +0.000 C 
ATOM      6  C   UNL     1      -2.650  13.182  20.978  0.00  0.00    +0.000 A 
ATOM      7  C   UNL     1      -2.330  13.749  22.154  0.00  0.00    +0.000 A 
ATOM      8  C   UNL     1      -1.034  13.770  22.875  0.00  0.00    +0.000 A 
ATOM      9  O   UNL     1      -0.933  14.428  23.908  0.00  0.00    +0.000 OA
ATOM     10  O   UNL     1       0.026  13.028  22.402  0.00  0.00    +0.000 OA
ATOM     11  C   UNL     1      -0.169  12.224  21.289  0.00  0.00    +0.000 A 
ATOM     12  C   UNL     1       0.935  10.852  21.052  0.00  0.00    +0.000 A 
ATOM     13  C   UNL     1       0.654   9.667  19.723  0.00  0.00    +0.000 A 
ATOM     14  C   UNL     1      -0.721   9.908  18.593  0.00  0.00    +0.000 A 
ATOM     15  C   UNL     1      -1.872  11.324  18.871  0.00  0.00    +0.000 A 
ATOM     16  C   UNL     1      -1.626  12.417  20.282  0.00  0.00    +0.000 A 
ENDBRANCH   1  13
BRANCH   2  17
ATOM     17  C   UNL     1       2.893   7.242  18.008  0.00  0.00    +0.000 A 
ATOM     18  C   UNL     1       4.105   7.175  17.315  0.00  0.00    +0.000 A 
ATOM     19  C   UNL     1       4.635   5.926  16.975  0.00  0.00    +0.000 A 
ATOM     20  C   UNL     1       3.926   4.766  17.331  0.00  0.00    +0.000 A 
ATOM     21  N   UNL     1       4.207   3.450  17.070  0.00  0.00    +0.000 NA
ATOM     22  C   UNL     1       3.208   2.773  17.586  0.00  0.00    +0.000 A 
ATOM     23  N   UNL     1       2.296   3.593  18.196  0.00  0.00    +0.000 N 
ATOM     24  C   UNL     1       2.734   4.879  18.036  0.00  0.00    +0.000 A 
ATOM     25  C   UNL     1       2.184   6.095  18.406  0.00  0.00    +0.000 A 
ATOM     26  H   UNL     1       1.445   3.309  18.656  0.00  0.00    +0.000 HD
ENDBRANCH   2  17
TORSDOF 2
ENDMDL
MODEL 3
REMARK VINA RESULT:      -7.6      6.135      7.848
REMARK  Name = 
REMARK  3 active torsions:
REMARK  status: ('A' for Active; 'I' for Inactive)
REMARK    1  A    between atoms: C_1  and  C_2
REMARK    2  A    between atoms: C_9  and  N_10
REMARK    3  A    between atoms: C_11  and  C_13
REMARK                            x       y       z     vdW  Elec       q    Type
REMARK                         _______ _______ _______ _____ _____    ______ ____
ROOT
ATOM      1  N   UNL     1       1.105   9.011  19.869  0.00  0.00    +0.000 N 
ATOM      2  C   UNL     1       1.063   9.391  21.197  0.00  0.00    +0.000 C 
ATOM      3  O   UNL     1       1.761   8.967  22.110  0.00  0.00    +0.000 OA
ATOM      4  H   UNL     1       0.465   9.438  19.213  0.00  0.00    +0.000 HD
ENDROOT
BRANCH   1  13
ATOM      5  C   UNL     1       3.757   2.591  17.824  0.00  0.00    +0.000 C 
ATOM      6  C   UNL     1       4.258   3.972  17.566  0.00  0.00    +0.000 A 
ATOM      7  C   UNL     1       4.887   4.295  16.422  0.00  0.00    +0.000 A 
ATOM      8  C   UNL     1       5.274   5.627  15.897  0.00  0.00    +0.000 A 
ATOM      9  O   UNL     1       5.928   5.696  14.859  0.00  0.00    +0.000 OA
ATOM     10  O   UNL     1       4.867   6.768  16.554  0.00  0.00    +0.000 OA
ATOM     11  C   UNL     1       4.047   6.639  17.664  0.00  0.00    +0.000 A 
ATOM     12  C   UNL     1       3.047   8.035  18.126  0.00  0.00    +0.000 A 
ATOM     13  C   UNL     1       1.838   7.899  19.455  0.00  0.00    +0.000 A 
ATOM     14  C   UNL     1       1.682   6.356  20.360  0.00  0.00    +0.000 A 
ATOM     15  C   UNL     1       2.710   4.909  19.851  0.00  0.00    +0.000 A 
ATOM     16  C   UNL     1       3.820   5.051  18.439  0.00  0.00    +0.000 A 
ENDBRANCH   1  13
BRANCH   2  17
ATOM     17  C   UNL     1       0.030  10.356  21.581  0.00  0.00    +0.000 A 
ATOM     18  C   UNL     1      -0.487  10.414  22.878  0.00  0.00    +0.000 A 
ATOM     19  C   UNL     1      -1.559  11.269  23.156  0.00  0.00    +0.000 A 
ATOM     20  C   UNL     1      -2.098  12.044  22.116  0.00  0.00    +0.000 A 
ATOM     21  N   UNL     1      -3.164  12.905  22.123  0.00  0.00    +0.000 NA
ATOM     22  C   UNL     1      -3.271  13.336  20.887  0.00  0.00    +0.000 A 
ATOM     23  N   UNL     1      -2.301  12.809  20.077  0.00  0.00    +0.000 N 
ATOM     24  C   UNL     1      -1.541  11.969  20.844  0.00  0.00    +0.000 A 
ATOM     25  C   UNL     1      -0.470  11.148  20.532  0.00  0.00    +0.000 A 
ATOM     26  H   UNL     1      -2.180  12.985  19.091  0.00  0.00    +0.000 HD
ENDBRANCH   2  17
TORSDOF 2
ENDMDL
MODEL 4
REMARK VINA RESULT:      -7.6      8.164     10.659
REMARK  Name = 
REMARK  3 active torsions:
REMARK  status: ('A' for Active; 'I' for Inactive)
REMARK    1  A    between atoms: C_1  and  C_2
REMARK    2  A    between atoms: C_9  and  N_10
REMARK    3  A    between atoms: C_11  and  C_13
REMARK                            x       y       z     vdW  Elec       q    Type
REMARK                         _______ _______ _______ _____ _____    ______ ____
ROOT
ATOM      1  N   UNL     1       0.935  10.966  20.878  0.00  0.00    +0.000 N 
ATOM      2  C   UNL     1       0.563  10.273  19.743  0.00  0.00    +0.000 C 
ATOM      3  O   UNL     1      -0.442  10.449  19.065  0.00  0.00    +0.000 OA
ATOM      4  H   UNL     1       1.793  10.716  21.351  0.00  0.00    +0.000 HD
ENDROOT
BRANCH   1  13
ATOM      5  C   UNL     1      -3.544  16.214  23.076  0.00  0.00    +0.000 C 
ATOM      6  C   UNL     1      -3.419  14.797  23.525  0.00  0.00    +0.000 A 
ATOM      7  C   UNL     1      -4.486  14.086  23.929  0.00  0.00    +0.000 A 
ATOM      8  C   UNL     1      -4.604  12.635  24.215  0.00  0.00    +0.000 A 
ATOM      9  O   UNL     1      -5.662  12.196  24.663  0.00  0.00    +0.000 OA
ATOM     10  O   UNL     1      -3.548  11.793  23.944  0.00  0.00    +0.000 OA
ATOM     11  C   UNL     1      -2.414  12.322  23.346  0.00  0.00    +0.000 A 
ATOM     12  C   UNL     1      -1.349  11.211  22.455  0.00  0.00    +0.000 A 
ATOM     13  C   UNL     1       0.054  11.841  21.517  0.00  0.00    +0.000 A 
ATOM     14  C   UNL     1       0.415  13.600  21.528  0.00  0.00    +0.000 A 
ATOM     15  C   UNL     1      -0.716  14.741  22.436  0.00  0.00    +0.000 A 
ATOM     16  C   UNL     1      -2.177  14.086  23.263  0.00  0.00    +0.000 A 
ENDBRANCH   1  13
BRANCH   2  17
ATOM     17  C   UNL     1       1.419   9.155  19.335  0.00  0.00    +0.000 A 
ATOM     18  C   UNL     1       1.951   9.060  18.046  0.00  0.00    +0.000 A 
ATOM     19  C   UNL     1       2.657   7.910  17.675  0.00  0.00    +0.000 A 
ATOM     20  C   UNL     1       2.805   6.872  18.610  0.00  0.00    +0.000 A 
ATOM     21  N   UNL     1       3.399   5.645  18.473  0.00  0.00    +0.000 NA
ATOM     22  C   UNL     1       3.227   5.045  19.628  0.00  0.00    +0.000 A 
ATOM     23  N   UNL     1       2.564   5.841  20.524  0.00  0.00    +0.000 N 
ATOM     24  C   UNL     1       2.276   7.017  19.887  0.00  0.00    +0.000 A 
ATOM     25  C   UNL     1       1.585   8.145  20.298  0.00  0.00    +0.000 A 
ATOM     26  H   UNL     1       2.311   5.600  21.470  0.00  0.00    +0.000 HD
ENDBRANCH   2  17
TORSDOF 2
ENDMDL
MODEL 5
REMARK VINA RESULT:      -7.5      6.474      9.076
REMARK  Name = 
REMARK  3 active torsions:
REMARK  status: ('A' for Active; 'I' for Inactive)
REMARK    1  A    between atoms: C_1  and  C_2
REMARK    2  A    between atoms: C_9  and  N_10
REMARK    3  A    between atoms: C_11  and  C_13
REMARK                            x       y       z     vdW  Elec       q    Type
REMARK                         _______ _______ _______ _____ _____    ______ ____
ROOT
ATOM      1  N   UNL     1       1.451   8.657  19.357  0.00  0.00    +0.000 N 
ATOM      2  C   UNL     1       2.218   8.664  18.208  0.00  0.00    +0.000 C 
ATOM      3  O   UNL     1       2.367   9.592  17.422  0.00  0.00    +0.000 OA
ATOM      4  H   UNL     1       1.409   7.818  19.918  0.00  0.00    +0.000 HD
ENDROOT
BRANCH   1  13
ATOM      5  C   UNL     1      -4.127  13.108  20.588  0.00  0.00    +0.000 C 
ATOM      6  C   UNL     1      -2.710  13.181  21.049  0.00  0.00    +0.000 A 
ATOM      7  C   UNL     1      -2.380  13.698  22.245  0.00  0.00    +0.000 A 
ATOM      8  C   UNL     1      -1.080  13.679  22.959  0.00  0.00    +0.000 A 
ATOM      9  O   UNL     1      -0.968  14.294  24.018  0.00  0.00    +0.000 OA
ATOM     10  O   UNL     1      -0.029  12.948  22.452  0.00  0.00    +0.000 OA
ATOM     11  C   UNL     1      -0.236  12.191  21.309  0.00  0.00    +0.000 A 
ATOM     12  C   UNL     1       0.855  10.819  21.011  0.00  0.00    +0.000 A 
ATOM     13  C   UNL     1       0.556   9.691  19.638  0.00  0.00    +0.000 A 
ATOM     14  C   UNL     1      -0.822   9.988  18.526  0.00  0.00    +0.000 A 
ATOM     15  C   UNL     1      -1.959  11.402  18.865  0.00  0.00    +0.000 A 
ATOM     16  C   UNL     1      -1.697  12.436  20.318  0.00  0.00    +0.000 A 
ENDBRANCH   1  13
BRANCH   2  17
ATOM     17  C   UNL     1       2.877   7.407  17.840  0.00  0.00    +0.000 A 
ATOM     18  C   UNL     1       2.413   6.167  18.287  0.00  0.00    +0.000 A 
ATOM     19  C   UNL     1       3.152   5.013  18.008  0.00  0.00    +0.000 A 
ATOM     20  C   UNL     1       4.355   5.133  17.292  0.00  0.00    +0.000 A 
ATOM     21  N   UNL     1       5.270   4.173  16.944  0.00  0.00    +0.000 NA
ATOM     22  C   UNL     1       6.229   4.818  16.320  0.00  0.00    +0.000 A 
ATOM     23  N   UNL     1       5.966   6.158  16.225  0.00  0.00    +0.000 N 
ATOM     24  C   UNL     1       4.770   6.384  16.851  0.00  0.00    +0.000 A 
ATOM     25  C   UNL     1       4.059   7.547  17.092  0.00  0.00    +0.000 A 
ATOM     26  H   UNL     1       6.553   6.857  15.797  0.00  0.00    +0.000 HD
ENDBRANCH   2  17
TORSDOF 2
ENDMDL
MODEL 6
REMARK VINA RESULT:      -7.5      6.667      8.032
REMARK  Name = 
REMARK  3 active torsions:
REMARK  status: ('A' for Active; 'I' for Inactive)
REMARK    1  A    between atoms: C_1  and  C_2
REMARK    2  A    between atoms: C_9  and  N_10
REMARK    3  A    between atoms: C_11  and  C_13
REMARK                            x       y       z     vdW  Elec       q    Type
REMARK                         _______ _______ _______ _____ _____    ______ ____
ROOT
ATOM      1  N   UNL     1       0.872   9.664  20.182  0.00  0.00    +0.000 N 
ATOM      2  C   UNL     1       0.893  10.144  21.477  0.00  0.00    +0.000 C 
ATOM      3  O   UNL     1       1.562   9.722  22.412  0.00  0.00    +0.000 OA
ATOM      4  H   UNL     1       0.266  10.102  19.502  0.00  0.00    +0.000 HD
ENDROOT
BRANCH   1  13
ATOM      5  C   UNL     1       5.121   4.152  18.182  0.00  0.00    +0.000 C 
ATOM      6  C   UNL     1       3.901   4.172  19.040  0.00  0.00    +0.000 A 
ATOM      7  C   UNL     1       3.750   3.328  20.076  0.00  0.00    +0.000 A 
ATOM      8  C   UNL     1       2.728   3.322  21.150  0.00  0.00    +0.000 A 
ATOM      9  O   UNL     1       2.718   2.399  21.963  0.00  0.00    +0.000 OA
ATOM     10  O   UNL     1       1.828   4.361  21.249  0.00  0.00    +0.000 OA
ATOM     11  C   UNL     1       1.946   5.426  20.370  0.00  0.00    +0.000 A 
ATOM     12  C   UNL     1       1.240   6.984  20.854  0.00  0.00    +0.000 A 
ATOM     13  C   UNL     1       1.486   8.456  19.845  0.00  0.00    +0.000 A 
ATOM     14  C   UNL     1       2.404   8.337  18.306  0.00  0.00    +0.000 A 
ATOM     15  C   UNL     1       3.152   6.717  17.832  0.00  0.00    +0.000 A 
ATOM     16  C   UNL     1       2.985   5.296  18.929  0.00  0.00    +0.000 A 
ENDBRANCH   1  13
BRANCH   2  17
ATOM     17  C   UNL     1      -0.035  11.232  21.798  0.00  0.00    +0.000 A 
ATOM     18  C   UNL     1       0.244  12.564  21.478  0.00  0.00    +0.000 A 
ATOM     19  C   UNL     1      -0.618  13.573  21.920  0.00  0.00    +0.000 A 
ATOM     20  C   UNL     1      -1.741  13.222  22.687  0.00  0.00    +0.000 A 
ATOM     21  N   UNL     1      -2.691  14.019  23.270  0.00  0.00    +0.000 NA
ATOM     22  C   UNL     1      -3.494  13.195  23.904  0.00  0.00    +0.000 A 
ATOM     23  N   UNL     1      -3.119  11.888  23.738  0.00  0.00    +0.000 N 
ATOM     24  C   UNL     1      -1.990  11.883  22.966  0.00  0.00    +0.000 A 
ATOM     25  C   UNL     1      -1.171  10.853  22.534  0.00  0.00    +0.000 A 
ATOM     26  H   UNL     1      -3.574  11.078  24.131  0.00  0.00    +0.000 HD
ENDBRANCH   2  17
TORSDOF 2
ENDMDL
MODEL 7
REMARK VINA RESULT:      -7.5      5.722      8.716
REMARK  Name = 
REMARK  3 active torsions:
REMARK  status: ('A' for Active; 'I' for Inactive)
REMARK    1  A    between atoms: C_1  and  C_2
REMARK    2  A    between atoms: C_9  and  N_10
REMARK    3  A    between atoms: C_11  and  C_13
REMARK                            x       y       z     vdW  Elec       q    Type
REMARK                         _______ _______ _______ _____ _____    ______ ____
ROOT
ATOM      1  N   UNL     1       1.945   8.739  17.650  0.00  0.00    +0.000 N 
ATOM      2  C   UNL     1       2.410   7.726  18.466  0.00  0.00    +0.000 C 
ATOM      3  O   UNL     1       2.323   7.661  19.687  0.00  0.00    +0.000 OA
ATOM      4  H   UNL     1       2.088   8.673  16.651  0.00  0.00    +0.000 HD
ENDROOT
BRANCH   1  13
ATOM      5  C   UNL     1      -0.138  15.502  19.184  0.00  0.00    +0.000 C 
ATOM      6  C   UNL     1      -0.497  14.208  19.833  0.00  0.00    +0.000 A 
ATOM      7  C   UNL     1      -1.711  13.998  20.371  0.00  0.00    +0.000 A 
ATOM      8  C   UNL     1      -2.321  12.742  20.872  0.00  0.00    +0.000 A 
ATOM      9  O   UNL     1      -3.424  12.785  21.412  0.00  0.00    +0.000 OA
ATOM     10  O   UNL     1      -1.666  11.543  20.695  0.00  0.00    +0.000 OA
ATOM     11  C   UNL     1      -0.472  11.536  19.991  0.00  0.00    +0.000 A 
ATOM     12  C   UNL     1       0.042  10.007  19.243  0.00  0.00    +0.000 A 
ATOM     13  C   UNL     1       1.496   9.950  18.179  0.00  0.00    +0.000 A 
ATOM     14  C   UNL     1       2.467  11.438  17.919  0.00  0.00    +0.000 A 
ATOM     15  C   UNL     1       1.904  13.021  18.683  0.00  0.00    +0.000 A 
ATOM     16  C   UNL     1       0.378  13.062  19.641  0.00  0.00    +0.000 A 
ENDBRANCH   1  13
BRANCH   2  17
ATOM     17  C   UNL     1       3.150   6.638  17.821  0.00  0.00    +0.000 A 
ATOM     18  C   UNL     1       2.770   5.300  17.956  0.00  0.00    +0.000 A 
ATOM     19  C   UNL     1       3.585   4.295  17.422  0.00  0.00    +0.000 A 
ATOM     20  C   UNL     1       4.775   4.659  16.772  0.00  0.00    +0.000 A 
ATOM     21  N   UNL     1       5.751   3.871  16.220  0.00  0.00    +0.000 NA
ATOM     22  C   UNL     1       6.664   4.706  15.780  0.00  0.00    +0.000 A 
ATOM     23  N   UNL     1       6.312   6.010  16.000  0.00  0.00    +0.000 N 
ATOM     24  C   UNL     1       5.106   6.003  16.645  0.00  0.00    +0.000 A 
ATOM     25  C   UNL     1       4.319   7.028  17.144  0.00  0.00    +0.000 A 
ATOM     26  H   UNL     1       6.851   6.828  15.757  0.00  0.00    +0.000 HD
ENDBRANCH   2  17
TORSDOF 2
ENDMDL
MODEL 8
REMARK VINA RESULT:      -7.4      6.521      7.894
REMARK  Name = 
REMARK  3 active torsions:
REMARK  status: ('A' for Active; 'I' for Inactive)
REMARK    1  A    between atoms: C_1  and  C_2
REMARK    2  A    between atoms: C_9  and  N_10
REMARK    3  A    between atoms: C_11  and  C_13
REMARK                            x       y       z     vdW  Elec       q    Type
REMARK                         _______ _______ _______ _____ _____    ______ ____
ROOT
ATOM      1  N   UNL     1       0.674   9.525  20.165  0.00  0.00    +0.000 N 
ATOM      2  C   UNL     1       0.727  10.071  21.433  0.00  0.00    +0.000 C 
ATOM      3  O   UNL     1       1.487   9.760  22.342  0.00  0.00    +0.000 OA
ATOM      4  H   UNL     1      -0.010   9.871  19.506  0.00  0.00    +0.000 HD
ENDROOT
BRANCH   1  13
ATOM      5  C   UNL     1       5.342   4.299  18.338  0.00  0.00    +0.000 C 
ATOM      6  C   UNL     1       4.073   4.233  19.120  0.00  0.00    +0.000 A 
ATOM      7  C   UNL     1       3.908   3.363  20.131  0.00  0.00    +0.000 A 
ATOM      8  C   UNL     1       2.826   3.278  21.141  0.00  0.00    +0.000 A 
ATOM      9  O   UNL     1       2.819   2.340  21.936  0.00  0.00    +0.000 OA
ATOM     10  O   UNL     1       1.864   4.263  21.202  0.00  0.00    +0.000 OA
ATOM     11  C   UNL     1       1.973   5.351  20.349  0.00  0.00    +0.000 A 
ATOM     12  C   UNL     1       1.152   6.857  20.815  0.00  0.00    +0.000 A 
ATOM     13  C   UNL     1       1.375   8.360  19.846  0.00  0.00    +0.000 A 
ATOM     14  C   UNL     1       2.389   8.322  18.365  0.00  0.00    +0.000 A 
ATOM     15  C   UNL     1       3.255   6.756  17.911  0.00  0.00    +0.000 A 
ATOM     16  C   UNL     1       3.103   5.307  18.972  0.00  0.00    +0.000 A 
ENDBRANCH   1  13
BRANCH   2  17
ATOM     17  C   UNL     1      -0.275  11.089  21.761  0.00  0.00    +0.000 A 
ATOM     18  C   UNL     1      -1.001  11.058  22.956  0.00  0.00    +0.000 A 
ATOM     19  C   UNL     1      -2.031  11.982  23.160  0.00  0.00    +0.000 A 
ATOM     20  C   UNL     1      -2.318  12.915  22.150  0.00  0.00    +0.000 A 
ATOM     21  N   UNL     1      -3.296  13.873  22.091  0.00  0.00    +0.000 NA
ATOM     22  C   UNL     1      -3.153  14.443  20.917  0.00  0.00    +0.000 A 
ATOM     23  N   UNL     1      -2.105  13.912  20.215  0.00  0.00    +0.000 N 
ATOM     24  C   UNL     1      -1.559  12.922  20.985  0.00  0.00    +0.000 A 
ATOM     25  C   UNL     1      -0.521  12.036  20.752  0.00  0.00    +0.000 A 
ATOM     26  H   UNL     1      -1.802  14.180  19.291  0.00  0.00    +0.000 HD
ENDBRANCH   2  17
TORSDOF 2
ENDMDL
MODEL 9
REMARK VINA RESULT:      -7.4      5.765      8.985
REMARK  Name = 
REMARK  3 active torsions:
REMARK  status: ('A' for Active; 'I' for Inactive)
REMARK    1  A    between atoms: C_1  and  C_2
REMARK    2  A    between atoms: C_9  and  N_10
REMARK    3  A    between atoms: C_11  and  C_13
REMARK                            x       y       z     vdW  Elec       q    Type
REMARK                         _______ _______ _______ _____ _____    ______ ____
ROOT
ATOM      1  N   UNL     1       1.787   8.780  17.575  0.00  0.00    +0.000 N 
ATOM      2  C   UNL     1       2.279   7.852  18.472  0.00  0.00    +0.000 C 
ATOM      3  O   UNL     1       2.152   7.861  19.691  0.00  0.00    +0.000 OA
ATOM      4  H   UNL     1       1.969   8.658  16.589  0.00  0.00    +0.000 HD
ENDROOT
BRANCH   1  13
ATOM      5  C   UNL     1      -1.623  14.336  20.727  0.00  0.00    +0.000 C 
ATOM      6  C   UNL     1      -0.380  14.305  19.903  0.00  0.00    +0.000 A 
ATOM      7  C   UNL     1       0.639  15.153  20.126  0.00  0.00    +0.000 A 
ATOM      8  C   UNL     1       2.011  15.152  19.564  0.00  0.00    +0.000 A 
ATOM      9  O   UNL     1       2.771  16.079  19.836  0.00  0.00    +0.000 OA
ATOM     10  O   UNL     1       2.431  14.102  18.777  0.00  0.00    +0.000 OA
ATOM     11  C   UNL     1       1.570  13.033  18.582  0.00  0.00    +0.000 A 
ATOM     12  C   UNL     1       2.278  11.468  18.123  0.00  0.00    +0.000 A 
ATOM     13  C   UNL     1       1.249   9.994  18.007  0.00  0.00    +0.000 A 
ATOM     14  C   UNL     1      -0.518  10.117  18.302  0.00  0.00    +0.000 A 
ATOM     15  C   UNL     1      -1.232  11.744  18.803  0.00  0.00    +0.000 A 
ATOM     16  C   UNL     1      -0.150  13.168  19.025  0.00  0.00    +0.000 A 
ENDBRANCH   1  13
BRANCH   2  17
ATOM     17  C   UNL     1       3.104   6.771  17.926  0.00  0.00    +0.000 A 
ATOM     18  C   UNL     1       2.807   5.424  18.152  0.00  0.00    +0.000 A 
ATOM     19  C   UNL     1       3.697   4.439  17.712  0.00  0.00    +0.000 A 
ATOM     20  C   UNL     1       4.879   4.831  17.062  0.00  0.00    +0.000 A 
ATOM     21  N   UNL     1       5.917   4.070  16.592  0.00  0.00    +0.000 NA
ATOM     22  C   UNL     1       6.786   4.929  16.110  0.00  0.00    +0.000 A 
ATOM     23  N   UNL     1       6.346   6.221  16.225  0.00  0.00    +0.000 N 
ATOM     24  C   UNL     1       5.126   6.181  16.842  0.00  0.00    +0.000 A 
ATOM     25  C   UNL     1       4.262   7.186  17.247  0.00  0.00    +0.000 A 
ATOM     26  H   UNL     1       6.838   7.051  15.934  0.00  0.00    +0.000 HD
ENDBRANCH   2  17
TORSDOF 2
ENDMDL
