MODEL 1
REMARK VINA RESULT:      -7.7      0.000      0.000
REMARK  Name = 
REMARK  6 active torsions:
REMARK  status: ('A' for Active; 'I' for Inactive)
REMARK    1  A    between atoms: C_2  and  O_3
REMARK    2  A    between atoms: C_2  and  C_4
REMARK    3  A    between atoms: C_6  and  N_7
REMARK    4  A    between atoms: C_12  and  N_13
REMARK    5  A    between atoms: N_13  and  C_14
REMARK    6  A    between atoms: C_14  and  C_15
REMARK                            x       y       z     vdW  Elec       q    Type
REMARK                         _______ _______ _______ _____ _____    ______ ____
ROOT
ATOM      1  C   UNL     1       6.826   5.568  17.856  0.00  0.00    +0.000 A 
ATOM      2  C   UNL     1       7.348   5.379  16.561  0.00  0.00    +0.000 A 
ATOM      3  C   UNL     1       6.525   4.901  15.538  0.00  0.00    +0.000 A 
ATOM      4  C   UNL     1       5.196   4.575  15.805  0.00  0.00    +0.000 A 
ATOM      5  C   UNL     1       4.691   4.745  17.100  0.00  0.00    +0.000 A 
ATOM      6  C   UNL     1       5.490   5.221  18.166  0.00  0.00    +0.000 A 
ENDROOT
BRANCH   3   7
ATOM      7  N   UNL     1       7.045   4.800  14.168  0.00  0.00    +0.000 N 
ATOM      8  O   UNL     1       7.963   5.564  13.842  0.00  0.00    +0.000 OA
ATOM      9  O   UNL     1       6.521   3.966  13.415  0.00  0.00    +0.000 OA
ENDBRANCH   3   7
BRANCH   1  11
ATOM     10  O   UNL     1       8.278   7.298  18.610  0.00  0.00    +0.000 OA
ATOM     11  C   UNL     1       7.770   6.211  18.803  0.00  0.00    +0.000 C 
BRANCH  11  12
ATOM     12  O   UNL     1       7.937   5.497  19.936  0.00  0.00    +0.000 OA
ATOM     13  H   UNL     1       8.684   4.865  19.874  0.00  0.00    +0.000 HD
ENDBRANCH  11  12
ENDBRANCH   1  11
BRANCH   6  14
ATOM     14  N   UNL     1       4.825   5.467  19.384  0.00  0.00    +0.000 N 
ATOM     15  H   UNL     1       5.326   6.193  19.919  0.00  0.00    +0.000 HD
BRANCH  14  16
ATOM     16  C   UNL     1       3.402   5.867  19.410  0.00  0.00    +0.000 C 
BRANCH  16  17
ATOM     17  C   UNL     1       2.487   4.742  19.858  0.00  0.00    +0.000 A 
ATOM     18  C   UNL     1       2.542   4.339  21.192  0.00  0.00    +0.000 A 
ATOM     19  C   UNL     1       1.787   3.246  21.595  0.00  0.00    +0.000 A 
ATOM     20  C   UNL     1       0.993   2.593  20.662  0.00  0.00    +0.000 A 
ATOM     21  C   UNL     1       0.971   3.074  19.363  0.00  0.00    +0.000 A 
ATOM     22  N   UNL     1       1.695   4.134  18.934  0.00  0.00    +0.000 NA
ENDBRANCH  16  17
ENDBRANCH  14  16
ENDBRANCH   6  14
TORSDOF 6
ENDMDL
MODEL 2
REMARK VINA RESULT:      -7.6      0.736      1.344
REMARK  Name = 
REMARK  6 active torsions:
REMARK  status: ('A' for Active; 'I' for Inactive)
REMARK    1  A    between atoms: C_2  and  O_3
REMARK    2  A    between atoms: C_2  and  C_4
REMARK    3  A    between atoms: C_6  and  N_7
REMARK    4  A    between atoms: C_12  and  N_13
REMARK    5  A    between atoms: N_13  and  C_14
REMARK    6  A    between atoms: C_14  and  C_15
REMARK                            x       y       z     vdW  Elec       q    Type
REMARK                         _______ _______ _______ _____ _____    ______ ____
ROOT
ATOM      1  C   UNL     1       6.607   5.593  18.081  0.00  0.00    +0.000 A 
ATOM      2  C   UNL     1       7.229   5.294  16.852  0.00  0.00    +0.000 A 
ATOM      3  C   UNL     1       6.454   5.093  15.707  0.00  0.00    +0.000 A 
ATOM      4  C   UNL     1       5.064   5.153  15.784  0.00  0.00    +0.000 A 
ATOM      5  C   UNL     1       4.452   5.428  17.014  0.00  0.00    +0.000 A 
ATOM      6  C   UNL     1       5.197   5.632  18.199  0.00  0.00    +0.000 A 
ENDROOT
BRANCH   3   7
ATOM      7  N   UNL     1       7.110   4.881  14.409  0.00  0.00    +0.000 N 
ATOM      8  O   UNL     1       8.074   5.603  14.126  0.00  0.00    +0.000 OA
ATOM      9  O   UNL     1       6.645   4.003  13.669  0.00  0.00    +0.000 OA
ENDBRANCH   3   7
BRANCH   1  11
ATOM     10  O   UNL     1       7.618   5.287  20.215  0.00  0.00    +0.000 OA
ATOM     11  C   UNL     1       7.553   5.917  19.178  0.00  0.00    +0.000 C 
BRANCH  11  12
ATOM     12  O   UNL     1       8.385   6.932  18.865  0.00  0.00    +0.000 OA
ATOM     13  H   UNL     1       8.975   6.714  18.113  0.00  0.00    +0.000 HD
ENDBRANCH  11  12
ENDBRANCH   1  11
BRANCH   6  14
ATOM     14  N   UNL     1       4.467   6.029  19.337  0.00  0.00    +0.000 N 
ATOM     15  H   UNL     1       4.758   6.972  19.633  0.00  0.00    +0.000 HD
BRANCH  14  16
ATOM     16  C   UNL     1       2.989   6.055  19.323  0.00  0.00    +0.000 C 
BRANCH  16  17
ATOM     17  C   UNL     1       2.376   4.789  19.894  0.00  0.00    +0.000 A 
ATOM     18  C   UNL     1       1.518   4.048  19.082  0.00  0.00    +0.000 A 
ATOM     19  C   UNL     1       0.871   2.943  19.620  0.00  0.00    +0.000 A 
ATOM     20  C   UNL     1       1.103   2.605  20.946  0.00  0.00    +0.000 A 
ATOM     21  C   UNL     1       1.993   3.375  21.677  0.00  0.00    +0.000 A 
ATOM     22  N   UNL     1       2.640   4.458  21.187  0.00  0.00    +0.000 NA
ENDBRANCH  16  17
ENDBRANCH  14  16
ENDBRANCH   6  14
TORSDOF 6
ENDMDL
MODEL 3
REMARK VINA RESULT:      -7.6      1.852      2.470
REMARK  Name = 
REMARK  6 active torsions:
REMARK  status: ('A' for Active; 'I' for Inactive)
REMARK    1  A    between atoms: C_2  and  O_3
REMARK    2  A    between atoms: C_2  and  C_4
REMARK    3  A    between atoms: C_6  and  N_7
REMARK    4  A    between atoms: C_12  and  N_13
REMARK    5  A    between atoms: N_13  and  C_14
REMARK    6  A    between atoms: C_14  and  C_15
REMARK                            x       y       z     vdW  Elec       q    Type
REMARK                         _______ _______ _______ _____ _____    ______ ____
ROOT
ATOM      1  C   UNL     1       4.987   4.499  17.434  0.00  0.00    +0.000 A 
ATOM      2  C   UNL     1       5.682   4.133  16.264  0.00  0.00    +0.000 A 
ATOM      3  C   UNL     1       5.927   5.084  15.270  0.00  0.00    +0.000 A 
ATOM      4  C   UNL     1       5.454   6.387  15.417  0.00  0.00    +0.000 A 
ATOM      5  C   UNL     1       4.744   6.737  16.572  0.00  0.00    +0.000 A 
ATOM      6  C   UNL     1       4.469   5.806  17.600  0.00  0.00    +0.000 A 
ENDROOT
BRANCH   3   7
ATOM      7  N   UNL     1       6.738   4.724  14.099  0.00  0.00    +0.000 N 
ATOM      8  O   UNL     1       6.390   3.737  13.438  0.00  0.00    +0.000 OA
ATOM      9  O   UNL     1       7.732   5.422  13.853  0.00  0.00    +0.000 OA
ENDBRANCH   3   7
BRANCH   1  11
ATOM     10  O   UNL     1       5.315   3.572  19.602  0.00  0.00    +0.000 OA
ATOM     11  C   UNL     1       4.921   3.431  18.461  0.00  0.00    +0.000 C 
BRANCH  11  12
ATOM     12  O   UNL     1       4.302   2.318  18.016  0.00  0.00    +0.000 OA
ATOM     13  H   UNL     1       4.932   1.595  17.811  0.00  0.00    +0.000 HD
ENDBRANCH  11  12
ENDBRANCH   1  11
BRANCH   6  14
ATOM     14  N   UNL     1       3.861   6.319  18.764  0.00  0.00    +0.000 N 
ATOM     15  H   UNL     1       4.050   7.329  18.845  0.00  0.00    +0.000 HD
BRANCH  14  16
ATOM     16  C   UNL     1       2.409   6.168  18.996  0.00  0.00    +0.000 C 
BRANCH  16  17
ATOM     17  C   UNL     1       2.063   4.876  19.714  0.00  0.00    +0.000 A 
ATOM     18  C   UNL     1       1.307   3.924  19.032  0.00  0.00    +0.000 A 
ATOM     19  C   UNL     1       0.897   2.782  19.707  0.00  0.00    +0.000 A 
ATOM     20  C   UNL     1       1.259   2.618  21.037  0.00  0.00    +0.000 A 
ATOM     21  C   UNL     1       2.037   3.596  21.634  0.00  0.00    +0.000 A 
ATOM     22  N   UNL     1       2.453   4.722  21.009  0.00  0.00    +0.000 NA
ENDBRANCH  16  17
ENDBRANCH  14  16
ENDBRANCH   6  14
TORSDOF 6
ENDMDL
MODEL 4
REMARK VINA RESULT:      -7.6      1.151      1.640
REMARK  Name = 
REMARK  6 active torsions:
REMARK  status: ('A' for Active; 'I' for Inactive)
REMARK    1  A    between atoms: C_2  and  O_3
REMARK    2  A    between atoms: C_2  and  C_4
REMARK    3  A    between atoms: C_6  and  N_7
REMARK    4  A    between atoms: C_12  and  N_13
REMARK    5  A    between atoms: N_13  and  C_14
REMARK    6  A    between atoms: C_14  and  C_15
REMARK                            x       y       z     vdW  Elec       q    Type
REMARK                         _______ _______ _______ _____ _____    ______ ____
ROOT
ATOM      1  C   UNL     1       7.001   5.148  17.783  0.00  0.00    +0.000 A 
ATOM      2  C   UNL     1       7.454   5.264  16.453  0.00  0.00    +0.000 A 
ATOM      3  C   UNL     1       6.753   4.638  15.419  0.00  0.00    +0.000 A 
ATOM      4  C   UNL     1       5.625   3.869  15.703  0.00  0.00    +0.000 A 
ATOM      5  C   UNL     1       5.195   3.740  17.029  0.00  0.00    +0.000 A 
ATOM      6  C   UNL     1       5.877   4.351  18.107  0.00  0.00    +0.000 A 
ENDROOT
BRANCH   3   7
ATOM      7  N   UNL     1       7.170   4.843  14.025  0.00  0.00    +0.000 N 
ATOM      8  O   UNL     1       6.613   4.167  13.151  0.00  0.00    +0.000 OA
ATOM      9  O   UNL     1       8.067   5.671  13.810  0.00  0.00    +0.000 OA
ENDBRANCH   3   7
BRANCH   1  11
ATOM     10  O   UNL     1       8.110   7.115  18.534  0.00  0.00    +0.000 OA
ATOM     11  C   UNL     1       7.757   5.973  18.756  0.00  0.00    +0.000 C 
BRANCH  11  12
ATOM     12  O   UNL     1       7.936   5.351  19.939  0.00  0.00    +0.000 OA
ATOM     13  H   UNL     1       8.339   5.937  20.614  0.00  0.00    +0.000 HD
ENDBRANCH  11  12
ENDBRANCH   1  11
BRANCH   6  14
ATOM     14  N   UNL     1       5.265   4.249  19.373  0.00  0.00    +0.000 N 
ATOM     15  H   UNL     1       4.523   4.958  19.465  0.00  0.00    +0.000 HD
BRANCH  14  16
ATOM     16  C   UNL     1       4.659   2.979  19.827  0.00  0.00    +0.000 C 
BRANCH  16  17
ATOM     17  C   UNL     1       3.143   3.036  19.862  0.00  0.00    +0.000 A 
ATOM     18  C   UNL     1       2.431   2.181  19.021  0.00  0.00    +0.000 A 
ATOM     19  C   UNL     1       1.048   2.290  18.967  0.00  0.00    +0.000 A 
ATOM     20  C   UNL     1       0.414   3.239  19.757  0.00  0.00    +0.000 A 
ATOM     21  C   UNL     1       1.190   4.030  20.588  0.00  0.00    +0.000 A 
ATOM     22  N   UNL     1       2.539   3.954  20.666  0.00  0.00    +0.000 NA
ENDBRANCH  16  17
ENDBRANCH  14  16
ENDBRANCH   6  14
TORSDOF 6
ENDMDL
MODEL 5
REMARK VINA RESULT:      -7.5      1.943      2.509
REMARK  Name = 
REMARK  6 active torsions:
REMARK  status: ('A' for Active; 'I' for Inactive)
REMARK    1  A    between atoms: C_2  and  O_3
REMARK    2  A    between atoms: C_2  and  C_4
REMARK    3  A    between atoms: C_6  and  N_7
REMARK    4  A    between atoms: C_12  and  N_13
REMARK    5  A    between atoms: N_13  and  C_14
REMARK    6  A    between atoms: C_14  and  C_15
REMARK                            x       y       z     vdW  Elec       q    Type
REMARK                         _______ _______ _______ _____ _____    ______ ____
ROOT
ATOM      1  C   UNL     1       4.773   4.330  17.269  0.00  0.00    +0.000 A 
ATOM      2  C   UNL     1       5.413   3.960  16.070  0.00  0.00    +0.000 A 
ATOM      3  C   UNL     1       5.795   4.939  15.150  0.00  0.00    +0.000 A 
ATOM      4  C   UNL     1       5.513   6.282  15.400  0.00  0.00    +0.000 A 
ATOM      5  C   UNL     1       4.856   6.639  16.584  0.00  0.00    +0.000 A 
ATOM      6  C   UNL     1       4.446   5.680  17.539  0.00  0.00    +0.000 A 
ENDROOT
BRANCH   3   7
ATOM      7  N   UNL     1       6.551   4.559  13.949  0.00  0.00    +0.000 N 
ATOM      8  O   UNL     1       7.491   5.287  13.605  0.00  0.00    +0.000 OA
ATOM      9  O   UNL     1       6.189   3.541  13.342  0.00  0.00    +0.000 OA
ENDBRANCH   3   7
BRANCH   1  11
ATOM     10  O   UNL     1       3.881   2.227  17.941  0.00  0.00    +0.000 OA
ATOM     11  C   UNL     1       4.550   3.206  18.211  0.00  0.00    +0.000 C 
BRANCH  11  12
ATOM     12  O   UNL     1       5.235   3.348  19.364  0.00  0.00    +0.000 OA
ATOM     13  H   UNL     1       5.732   2.539  19.607  0.00  0.00    +0.000 HD
ENDBRANCH  11  12
ENDBRANCH   1  11
BRANCH   6  14
ATOM     14  N   UNL     1       3.914   6.184  18.744  0.00  0.00    +0.000 N 
ATOM     15  H   UNL     1       4.159   7.180  18.849  0.00  0.00    +0.000 HD
BRANCH  14  16
ATOM     16  C   UNL     1       2.466   6.100  19.031  0.00  0.00    +0.000 C 
BRANCH  16  17
ATOM     17  C   UNL     1       2.092   4.834  19.781  0.00  0.00    +0.000 A 
ATOM     18  C   UNL     1       1.163   3.973  19.200  0.00  0.00    +0.000 A 
ATOM     19  C   UNL     1       0.735   2.863  19.917  0.00  0.00    +0.000 A 
ATOM     20  C   UNL     1       1.251   2.639  21.186  0.00  0.00    +0.000 A 
ATOM     21  C   UNL     1       2.193   3.526  21.680  0.00  0.00    +0.000 A 
ATOM     22  N   UNL     1       2.632   4.618  21.012  0.00  0.00    +0.000 NA
ENDBRANCH  16  17
ENDBRANCH  14  16
ENDBRANCH   6  14
TORSDOF 6
ENDMDL
MODEL 6
REMARK VINA RESULT:      -7.5      1.502      1.855
REMARK  Name = 
REMARK  6 active torsions:
REMARK  status: ('A' for Active; 'I' for Inactive)
REMARK    1  A    between atoms: C_2  and  O_3
REMARK    2  A    between atoms: C_2  and  C_4
REMARK    3  A    between atoms: C_6  and  N_7
REMARK    4  A    between atoms: C_12  and  N_13
REMARK    5  A    between atoms: N_13  and  C_14
REMARK    6  A    between atoms: C_14  and  C_15
REMARK                            x       y       z     vdW  Elec       q    Type
REMARK                         _______ _______ _______ _____ _____    ______ ____
ROOT
ATOM      1  C   UNL     1       6.816   4.988  16.722  0.00  0.00    +0.000 A 
ATOM      2  C   UNL     1       7.550   5.207  15.539  0.00  0.00    +0.000 A 
ATOM      3  C   UNL     1       7.024   4.809  14.307  0.00  0.00    +0.000 A 
ATOM      4  C   UNL     1       5.790   4.163  14.248  0.00  0.00    +0.000 A 
ATOM      5  C   UNL     1       5.077   3.930  15.431  0.00  0.00    +0.000 A 
ATOM      6  C   UNL     1       5.574   4.310  16.700  0.00  0.00    +0.000 A 
ENDROOT
BRANCH   3   7
ATOM      7  N   UNL     1       7.745   5.128  13.067  0.00  0.00    +0.000 N 
ATOM      8  O   UNL     1       8.663   5.956  13.131  0.00  0.00    +0.000 OA
ATOM      9  O   UNL     1       7.379   4.561  12.028  0.00  0.00    +0.000 OA
ENDBRANCH   3   7
BRANCH   1  11
ATOM     10  O   UNL     1       7.684   6.767  18.045  0.00  0.00    +0.000 OA
ATOM     11  C   UNL     1       7.428   5.584  17.935  0.00  0.00    +0.000 C 
BRANCH  11  12
ATOM     12  O   UNL     1       7.593   4.687  18.929  0.00  0.00    +0.000 OA
ATOM     13  H   UNL     1       6.742   4.317  19.245  0.00  0.00    +0.000 HD
ENDBRANCH  11  12
ENDBRANCH   1  11
BRANCH   6  14
ATOM     14  N   UNL     1       4.701   4.134  17.793  0.00  0.00    +0.000 N 
ATOM     15  H   UNL     1       4.044   4.926  17.851  0.00  0.00    +0.000 HD
BRANCH  14  16
ATOM     16  C   UNL     1       3.868   2.918  17.915  0.00  0.00    +0.000 C 
BRANCH  16  17
ATOM     17  C   UNL     1       2.961   2.952  19.131  0.00  0.00    +0.000 A 
ATOM     18  C   UNL     1       1.666   3.444  18.975  0.00  0.00    +0.000 A 
ATOM     19  C   UNL     1       0.857   3.576  20.096  0.00  0.00    +0.000 A 
ATOM     20  C   UNL     1       1.358   3.205  21.337  0.00  0.00    +0.000 A 
ATOM     21  C   UNL     1       2.645   2.697  21.404  0.00  0.00    +0.000 A 
ATOM     22  N   UNL     1       3.462   2.557  20.334  0.00  0.00    +0.000 NA
ENDBRANCH  16  17
ENDBRANCH  14  16
ENDBRANCH   6  14
TORSDOF 6
ENDMDL
MODEL 7
REMARK VINA RESULT:      -7.4      0.854      1.324
REMARK  Name = 
REMARK  6 active torsions:
REMARK  status: ('A' for Active; 'I' for Inactive)
REMARK    1  A    between atoms: C_2  and  O_3
REMARK    2  A    between atoms: C_2  and  C_4
REMARK    3  A    between atoms: C_6  and  N_7
REMARK    4  A    between atoms: C_12  and  N_13
REMARK    5  A    between atoms: N_13  and  C_14
REMARK    6  A    between atoms: C_14  and  C_15
REMARK                            x       y       z     vdW  Elec       q    Type
REMARK                         _______ _______ _______ _____ _____    ______ ____
ROOT
ATOM      1  C   UNL     1       6.875   5.643  17.116  0.00  0.00    +0.000 A 
ATOM      2  C   UNL     1       7.293   5.554  15.773  0.00  0.00    +0.000 A 
ATOM      3  C   UNL     1       6.654   4.670  14.899  0.00  0.00    +0.000 A 
ATOM      4  C   UNL     1       5.626   3.850  15.362  0.00  0.00    +0.000 A 
ATOM      5  C   UNL     1       5.232   3.929  16.704  0.00  0.00    +0.000 A 
ATOM      6  C   UNL     1       5.855   4.805  17.623  0.00  0.00    +0.000 A 
ENDROOT
BRANCH   3   7
ATOM      7  N   UNL     1       7.025   4.652  13.478  0.00  0.00    +0.000 N 
ATOM      8  O   UNL     1       6.519   3.778  12.762  0.00  0.00    +0.000 OA
ATOM      9  O   UNL     1       7.836   5.502  13.085  0.00  0.00    +0.000 OA
ENDBRANCH   3   7
BRANCH   1  11
ATOM     10  O   UNL     1       8.040   6.544  18.987  0.00  0.00    +0.000 OA
ATOM     11  C   UNL     1       7.545   6.717  17.890  0.00  0.00    +0.000 C 
BRANCH  11  12
ATOM     12  O   UNL     1       7.619   7.881  17.212  0.00  0.00    +0.000 OA
ATOM     13  H   UNL     1       7.755   7.746  16.250  0.00  0.00    +0.000 HD
ENDBRANCH  11  12
ENDBRANCH   1  11
BRANCH   6  14
ATOM     14  N   UNL     1       5.277   4.879  18.907  0.00  0.00    +0.000 N 
ATOM     15  H   UNL     1       5.964   5.244  19.583  0.00  0.00    +0.000 HD
BRANCH  14  16
ATOM     16  C   UNL     1       4.039   5.653  19.142  0.00  0.00    +0.000 C 
BRANCH  16  17
ATOM     17  C   UNL     1       2.836   4.765  19.407  0.00  0.00    +0.000 A 
ATOM     18  C   UNL     1       2.474   4.523  20.732  0.00  0.00    +0.000 A 
ATOM     19  C   UNL     1       1.440   3.634  20.994  0.00  0.00    +0.000 A 
ATOM     20  C   UNL     1       0.793   3.019  19.931  0.00  0.00    +0.000 A 
ATOM     21  C   UNL     1       1.194   3.335  18.643  0.00  0.00    +0.000 A 
ATOM     22  N   UNL     1       2.197   4.195  18.350  0.00  0.00    +0.000 NA
ENDBRANCH  16  17
ENDBRANCH  14  16
ENDBRANCH   6  14
TORSDOF 6
ENDMDL
MODEL 8
REMARK VINA RESULT:      -7.4      1.525      2.791
REMARK  Name = 
REMARK  6 active torsions:
REMARK  status: ('A' for Active; 'I' for Inactive)
REMARK    1  A    between atoms: C_2  and  O_3
REMARK    2  A    between atoms: C_2  and  C_4
REMARK    3  A    between atoms: C_6  and  N_7
REMARK    4  A    between atoms: C_12  and  N_13
REMARK    5  A    between atoms: N_13  and  C_14
REMARK    6  A    between atoms: C_14  and  C_15
REMARK                            x       y       z     vdW  Elec       q    Type
REMARK                         _______ _______ _______ _____ _____    ______ ____
ROOT
ATOM      1  C   UNL     1       6.557   5.163  17.968  0.00  0.00    +0.000 A 
ATOM      2  C   UNL     1       7.161   5.144  16.694  0.00  0.00    +0.000 A 
ATOM      3  C   UNL     1       6.439   4.696  15.585  0.00  0.00    +0.000 A 
ATOM      4  C   UNL     1       5.133   4.233  15.741  0.00  0.00    +0.000 A 
ATOM      5  C   UNL     1       4.548   4.235  17.014  0.00  0.00    +0.000 A 
ATOM      6  C   UNL     1       5.243   4.674  18.164  0.00  0.00    +0.000 A 
ENDROOT
BRANCH   3   7
ATOM      7  N   UNL     1       7.036   4.771  14.245  0.00  0.00    +0.000 N 
ATOM      8  O   UNL     1       6.571   4.036  13.365  0.00  0.00    +0.000 OA
ATOM      9  O   UNL     1       7.983   5.554  14.082  0.00  0.00    +0.000 OA
ENDBRANCH   3   7
BRANCH   1  11
ATOM     10  O   UNL     1       7.473   5.357  20.157  0.00  0.00    +0.000 OA
ATOM     11  C   UNL     1       7.388   5.791  19.024  0.00  0.00    +0.000 C 
BRANCH  11  12
ATOM     12  O   UNL     1       8.099   6.844  18.571  0.00  0.00    +0.000 OA
ATOM     13  H   UNL     1       7.653   7.700  18.744  0.00  0.00    +0.000 HD
ENDBRANCH  11  12
ENDBRANCH   1  11
BRANCH   6  14
ATOM     14  N   UNL     1       4.497   4.746  19.358  0.00  0.00    +0.000 N 
ATOM     15  H   UNL     1       4.786   5.569  19.906  0.00  0.00    +0.000 HD
BRANCH  14  16
ATOM     16  C   UNL     1       3.019   4.786  19.332  0.00  0.00    +0.000 C 
BRANCH  16  17
ATOM     17  C   UNL     1       2.474   6.202  19.313  0.00  0.00    +0.000 A 
ATOM     18  C   UNL     1       2.564   6.928  18.126  0.00  0.00    +0.000 A 
ATOM     19  C   UNL     1       2.162   8.257  18.119  0.00  0.00    +0.000 A 
ATOM     20  C   UNL     1       1.675   8.822  19.290  0.00  0.00    +0.000 A 
ATOM     21  C   UNL     1       1.590   8.024  20.420  0.00  0.00    +0.000 A 
ATOM     22  N   UNL     1       1.973   6.727  20.465  0.00  0.00    +0.000 NA
ENDBRANCH  16  17
ENDBRANCH  14  16
ENDBRANCH   6  14
TORSDOF 6
ENDMDL
MODEL 9
REMARK VINA RESULT:      -7.4      1.500      2.599
REMARK  Name = 
REMARK  6 active torsions:
REMARK  status: ('A' for Active; 'I' for Inactive)
REMARK    1  A    between atoms: C_2  and  O_3
REMARK    2  A    between atoms: C_2  and  C_4
REMARK    3  A    between atoms: C_6  and  N_7
REMARK    4  A    between atoms: C_12  and  N_13
REMARK    5  A    between atoms: N_13  and  C_14
REMARK    6  A    between atoms: C_14  and  C_15
REMARK                            x       y       z     vdW  Elec       q    Type
REMARK                         _______ _______ _______ _____ _____    ______ ____
ROOT
ATOM      1  C   UNL     1       6.632   5.242  17.855  0.00  0.00    +0.000 A 
ATOM      2  C   UNL     1       7.195   5.209  16.563  0.00  0.00    +0.000 A 
ATOM      3  C   UNL     1       6.461   4.688  15.494  0.00  0.00    +0.000 A 
ATOM      4  C   UNL     1       5.185   4.167  15.709  0.00  0.00    +0.000 A 
ATOM      5  C   UNL     1       4.643   4.184  17.000  0.00  0.00    +0.000 A 
ATOM      6  C   UNL     1       5.352   4.696  18.111  0.00  0.00    +0.000 A 
ENDROOT
BRANCH   3   7
ATOM      7  N   UNL     1       7.010   4.746  14.133  0.00  0.00    +0.000 N 
ATOM      8  O   UNL     1       7.932   5.543  13.917  0.00  0.00    +0.000 OA
ATOM      9  O   UNL     1       6.504   4.005  13.278  0.00  0.00    +0.000 OA
ENDBRANCH   3   7
BRANCH   1  11
ATOM     10  O   UNL     1       8.101   6.953  18.619  0.00  0.00    +0.000 OA
ATOM     11  C   UNL     1       7.464   5.946  18.861  0.00  0.00    +0.000 C 
BRANCH  11  12
ATOM     12  O   UNL     1       7.372   5.397  20.090  0.00  0.00    +0.000 OA
ATOM     13  H   UNL     1       6.445   5.207  20.347  0.00  0.00    +0.000 HD
ENDBRANCH  11  12
ENDBRANCH   1  11
BRANCH   6  14
ATOM     14  N   UNL     1       4.642   4.772  19.327  0.00  0.00    +0.000 N 
ATOM     15  H   UNL     1       4.927   5.613  19.850  0.00  0.00    +0.000 HD
BRANCH  14  16
ATOM     16  C   UNL     1       3.164   4.774  19.348  0.00  0.00    +0.000 C 
BRANCH  16  17
ATOM     17  C   UNL     1       2.581   6.173  19.276  0.00  0.00    +0.000 A 
ATOM     18  C   UNL     1       2.652   6.856  18.063  0.00  0.00    +0.000 A 
ATOM     19  C   UNL     1       2.215   8.173  18.006  0.00  0.00    +0.000 A 
ATOM     20  C   UNL     1       1.713   8.768  19.156  0.00  0.00    +0.000 A 
ATOM     21  C   UNL     1       1.649   8.012  20.315  0.00  0.00    +0.000 A 
ATOM     22  N   UNL     1       2.066   6.728  20.408  0.00  0.00    +0.000 NA
ENDBRANCH  16  17
ENDBRANCH  14  16
ENDBRANCH   6  14
TORSDOF 6
ENDMDL
