MODEL 1
REMARK VINA RESULT:      -6.4      0.000      0.000
REMARK  Name = 
REMARK  4 active torsions:
REMARK  status: ('A' for Active; 'I' for Inactive)
REMARK    1  A    between atoms: C_1  and  C_2
REMARK    2  A    between atoms: C_5  and  N_6
REMARK    3  A    between atoms: C_7  and  C_8
REMARK    4  A    between atoms: C_16  and  C_17
REMARK                            x       y       z     vdW  Elec       q    Type
REMARK                         _______ _______ _______ _____ _____    ______ ____
ROOT
ATOM      1  N   UNL     1       3.077   6.727  18.273  0.00  0.00    +0.000 N 
ATOM      2  C   UNL     1       2.528   8.015  18.318  0.00  0.00    +0.000 A 
ATOM      3  N   UNL     1       3.102   8.747  17.382  0.00  0.00    +0.000 NA
ATOM      4  N   UNL     1       4.055   8.000  16.753  0.00  0.00    +0.000 NA
ATOM      5  C   UNL     1       4.033   6.782  17.260  0.00  0.00    +0.000 A 
ENDROOT
BRANCH   1  10
ATOM      6  C   UNL     1       1.322   2.419  21.616  0.00  0.00    +0.000 C 
ATOM      7  C   UNL     1       1.840   3.489  20.702  0.00  0.00    +0.000 A 
ATOM      8  C   UNL     1       3.010   4.195  21.007  0.00  0.00    +0.000 A 
ATOM      9  C   UNL     1       3.438   5.249  20.195  0.00  0.00    +0.000 A 
ATOM     10  C   UNL     1       2.711   5.588  19.048  0.00  0.00    +0.000 A 
ATOM     11  C   UNL     1       1.579   4.837  18.703  0.00  0.00    +0.000 A 
ATOM     12  C   UNL     1       1.131   3.816  19.543  0.00  0.00    +0.000 A 
ENDBRANCH   1  10
BRANCH   2  13
ATOM     13  C   UNL     1       1.524   8.556  19.250  0.00  0.00    +0.000 A 
ATOM     14  C   UNL     1       1.423   8.152  20.583  0.00  0.00    +0.000 A 
ATOM     15  C   UNL     1       0.416   8.690  21.370  0.00  0.00    +0.000 A 
ATOM     16  N   UNL     1      -0.455   9.623  20.939  0.00  0.00    +0.000 NA
ATOM     17  C   UNL     1      -0.305  10.052  19.670  0.00  0.00    +0.000 A 
ATOM     18  C   UNL     1       0.653   9.556  18.800  0.00  0.00    +0.000 A 
ENDBRANCH   2  13
BRANCH   5  19
ATOM     19  C   UNL     1       4.844   5.708  16.738  0.00  0.00    +0.000 A 
ATOM     20  C   UNL     1       4.445   4.468  16.267  0.00  0.00    +0.000 A 
ATOM     21  C   UNL     1       5.545   3.605  15.991  0.00  0.00    +0.000 A 
ATOM     22  C   UNL     1       6.750   4.252  16.132  0.00  0.00    +0.000 A 
ATOM     23  S   UNL     1       6.550   5.871  16.642  0.00  0.00    +0.000 S 
ENDBRANCH   5  19
TORSDOF 3
ENDMDL
MODEL 2
REMARK VINA RESULT:      -6.4      1.993      5.540
REMARK  Name = 
REMARK  4 active torsions:
REMARK  status: ('A' for Active; 'I' for Inactive)
REMARK    1  A    between atoms: C_1  and  C_2
REMARK    2  A    between atoms: C_5  and  N_6
REMARK    3  A    between atoms: C_7  and  C_8
REMARK    4  A    between atoms: C_16  and  C_17
REMARK                            x       y       z     vdW  Elec       q    Type
REMARK                         _______ _______ _______ _____ _____    ______ ____
ROOT
ATOM      1  N   UNL     1       2.852   6.731  18.391  0.00  0.00    +0.000 N 
ATOM      2  C   UNL     1       3.753   6.825  17.323  0.00  0.00    +0.000 A 
ATOM      3  N   UNL     1       3.799   8.083  16.924  0.00  0.00    +0.000 NA
ATOM      4  N   UNL     1       2.915   8.817  17.661  0.00  0.00    +0.000 NA
ATOM      5  C   UNL     1       2.359   8.025  18.558  0.00  0.00    +0.000 A 
ENDROOT
BRANCH   1  10
ATOM      6  C   UNL     1       1.303   2.387  21.788  0.00  0.00    +0.000 C 
ATOM      7  C   UNL     1       1.768   3.468  20.859  0.00  0.00    +0.000 A 
ATOM      8  C   UNL     1       2.925   4.207  21.133  0.00  0.00    +0.000 A 
ATOM      9  C   UNL     1       3.303   5.270  20.307  0.00  0.00    +0.000 A 
ATOM     10  C   UNL     1       2.538   5.585  19.178  0.00  0.00    +0.000 A 
ATOM     11  C   UNL     1       1.419   4.802  18.864  0.00  0.00    +0.000 A 
ATOM     12  C   UNL     1       1.022   3.771  19.717  0.00  0.00    +0.000 A 
ENDBRANCH   1  10
BRANCH   2  13
ATOM     13  C   UNL     1       4.514   5.751  16.663  0.00  0.00    +0.000 A 
ATOM     14  C   UNL     1       4.427   4.410  17.042  0.00  0.00    +0.000 A 
ATOM     15  C   UNL     1       5.217   3.478  16.386  0.00  0.00    +0.000 A 
ATOM     16  N   UNL     1       6.040   3.779  15.362  0.00  0.00    +0.000 NA
ATOM     17  C   UNL     1       6.064   5.067  14.964  0.00  0.00    +0.000 A 
ATOM     18  C   UNL     1       5.332   6.073  15.574  0.00  0.00    +0.000 A 
ENDBRANCH   2  13
BRANCH   5  19
ATOM     19  C   UNL     1       1.455   8.513  19.572  0.00  0.00    +0.000 A 
ATOM     20  C   UNL     1       1.249   8.034  20.854  0.00  0.00    +0.000 A 
ATOM     21  C   UNL     1       0.152   8.666  21.508  0.00  0.00    +0.000 A 
ATOM     22  C   UNL     1      -0.363   9.698  20.758  0.00  0.00    +0.000 A 
ATOM     23  S   UNL     1       0.443   9.864  19.260  0.00  0.00    +0.000 S 
ENDBRANCH   5  19
TORSDOF 3
ENDMDL
MODEL 3
REMARK VINA RESULT:      -6.3      4.121      8.678
REMARK  Name = 
REMARK  4 active torsions:
REMARK  status: ('A' for Active; 'I' for Inactive)
REMARK    1  A    between atoms: C_1  and  C_2
REMARK    2  A    between atoms: C_5  and  N_6
REMARK    3  A    between atoms: C_7  and  C_8
REMARK    4  A    between atoms: C_16  and  C_17
REMARK                            x       y       z     vdW  Elec       q    Type
REMARK                         _______ _______ _______ _____ _____    ______ ____
ROOT
ATOM      1  N   UNL     1      -0.778  11.036  20.198  0.00  0.00    +0.000 N 
ATOM      2  C   UNL     1       0.343  10.291  20.587  0.00  0.00    +0.000 A 
ATOM      3  N   UNL     1       0.662  10.631  21.822  0.00  0.00    +0.000 NA
ATOM      4  N   UNL     1      -0.179  11.620  22.245  0.00  0.00    +0.000 NA
ATOM      5  C   UNL     1      -1.060  11.854  21.291  0.00  0.00    +0.000 A 
ENDROOT
BRANCH   1  10
ATOM      6  C   UNL     1      -3.380  10.437  15.130  0.00  0.00    +0.000 C 
ATOM      7  C   UNL     1      -2.767  10.648  16.482  0.00  0.00    +0.000 A 
ATOM      8  C   UNL     1      -2.002  11.787  16.758  0.00  0.00    +0.000 A 
ATOM      9  C   UNL     1      -1.363  11.934  17.993  0.00  0.00    +0.000 A 
ATOM     10  C   UNL     1      -1.509  10.950  18.978  0.00  0.00    +0.000 A 
ATOM     11  C   UNL     1      -2.333   9.844  18.729  0.00  0.00    +0.000 A 
ATOM     12  C   UNL     1      -2.931   9.681  17.478  0.00  0.00    +0.000 A 
ENDBRANCH   1  10
BRANCH   2  13
ATOM     13  C   UNL     1       1.121   9.320  19.801  0.00  0.00    +0.000 A 
ATOM     14  C   UNL     1       1.503   9.541  18.476  0.00  0.00    +0.000 A 
ATOM     15  C   UNL     1       2.200   8.546  17.807  0.00  0.00    +0.000 A 
ATOM     16  N   UNL     1       2.577   7.383  18.373  0.00  0.00    +0.000 NA
ATOM     17  C   UNL     1       2.259   7.211  19.672  0.00  0.00    +0.000 A 
ATOM     18  C   UNL     1       1.543   8.135  20.416  0.00  0.00    +0.000 A 
ENDBRANCH   2  13
BRANCH   5  19
ATOM     19  C   UNL     1      -2.164  12.769  21.460  0.00  0.00    +0.000 A 
ATOM     20  C   UNL     1      -3.375  12.560  22.098  0.00  0.00    +0.000 A 
ATOM     21  C   UNL     1      -4.286  13.641  21.916  0.00  0.00    +0.000 A 
ATOM     22  C   UNL     1      -3.701  14.697  21.259  0.00  0.00    +0.000 A 
ATOM     23  S   UNL     1      -2.082  14.362  20.825  0.00  0.00    +0.000 S 
ENDBRANCH   5  19
TORSDOF 3
ENDMDL
MODEL 4
REMARK VINA RESULT:      -6.2      4.000      7.083
REMARK  Name = 
REMARK  4 active torsions:
REMARK  status: ('A' for Active; 'I' for Inactive)
REMARK    1  A    between atoms: C_1  and  C_2
REMARK    2  A    between atoms: C_5  and  N_6
REMARK    3  A    between atoms: C_7  and  C_8
REMARK    4  A    between atoms: C_16  and  C_17
REMARK                            x       y       z     vdW  Elec       q    Type
REMARK                         _______ _______ _______ _____ _____    ______ ____
ROOT
ATOM      1  N   UNL     1      -0.762  10.963  20.184  0.00  0.00    +0.000 N 
ATOM      2  C   UNL     1      -1.040  11.719  21.330  0.00  0.00    +0.000 A 
ATOM      3  N   UNL     1      -0.066  11.531  22.201  0.00  0.00    +0.000 NA
ATOM      4  N   UNL     1       0.823  10.631  21.689  0.00  0.00    +0.000 NA
ATOM      5  C   UNL     1       0.430  10.301  20.473  0.00  0.00    +0.000 A 
ENDROOT
BRANCH   1  10
ATOM      6  C   UNL     1      -3.386  10.507  15.113  0.00  0.00    +0.000 C 
ATOM      7  C   UNL     1      -2.767  10.680  16.467  0.00  0.00    +0.000 A 
ATOM      8  C   UNL     1      -1.992  11.806  16.768  0.00  0.00    +0.000 A 
ATOM      9  C   UNL     1      -1.348  11.918  18.004  0.00  0.00    +0.000 A 
ATOM     10  C   UNL     1      -1.499  10.912  18.965  0.00  0.00    +0.000 A 
ATOM     11  C   UNL     1      -2.331   9.818  18.692  0.00  0.00    +0.000 A 
ATOM     12  C   UNL     1      -2.934   9.690  17.440  0.00  0.00    +0.000 A 
ENDBRANCH   1  10
BRANCH   2  13
ATOM     13  C   UNL     1      -2.215  12.557  21.618  0.00  0.00    +0.000 A 
ATOM     14  C   UNL     1      -2.607  13.626  20.808  0.00  0.00    +0.000 A 
ATOM     15  C   UNL     1      -3.706  14.383  21.187  0.00  0.00    +0.000 A 
ATOM     16  N   UNL     1      -4.457  14.124  22.275  0.00  0.00    +0.000 NA
ATOM     17  C   UNL     1      -4.106  13.050  23.011  0.00  0.00    +0.000 A 
ATOM     18  C   UNL     1      -3.011  12.250  22.728  0.00  0.00    +0.000 A 
ENDBRANCH   2  13
BRANCH   5  19
ATOM     19  C   UNL     1       1.210   9.448  19.609  0.00  0.00    +0.000 A 
ATOM     20  C   UNL     1       1.619   9.674  18.305  0.00  0.00    +0.000 A 
ATOM     21  C   UNL     1       2.231   8.530  17.715  0.00  0.00    +0.000 A 
ATOM     22  C   UNL     1       2.391   7.510  18.624  0.00  0.00    +0.000 A 
ATOM     23  S   UNL     1       1.762   7.918  20.160  0.00  0.00    +0.000 S 
ENDBRANCH   5  19
TORSDOF 3
ENDMDL
MODEL 5
REMARK VINA RESULT:      -6.2      3.712      8.361
REMARK  Name = 
REMARK  4 active torsions:
REMARK  status: ('A' for Active; 'I' for Inactive)
REMARK    1  A    between atoms: C_1  and  C_2
REMARK    2  A    between atoms: C_5  and  N_6
REMARK    3  A    between atoms: C_7  and  C_8
REMARK    4  A    between atoms: C_16  and  C_17
REMARK                            x       y       z     vdW  Elec       q    Type
REMARK                         _______ _______ _______ _____ _____    ______ ____
ROOT
ATOM      1  N   UNL     1      -0.124  10.307  20.902  0.00  0.00    +0.000 N 
ATOM      2  C   UNL     1       0.880   9.342  21.050  0.00  0.00    +0.000 A 
ATOM      3  N   UNL     1       1.236   9.300  22.320  0.00  0.00    +0.000 NA
ATOM      4  N   UNL     1       0.536  10.247  23.011  0.00  0.00    +0.000 NA
ATOM      5  C   UNL     1      -0.298  10.840  22.179  0.00  0.00    +0.000 A 
ENDROOT
BRANCH   1  10
ATOM      6  C   UNL     1      -2.739  11.437  15.932  0.00  0.00    +0.000 C 
ATOM      7  C   UNL     1      -2.117  11.192  17.274  0.00  0.00    +0.000 A 
ATOM      8  C   UNL     1      -1.254  12.129  17.853  0.00  0.00    +0.000 A 
ATOM      9  C   UNL     1      -0.612  11.854  19.064  0.00  0.00    +0.000 A 
ATOM     10  C   UNL     1      -0.853  10.644  19.725  0.00  0.00    +0.000 A 
ATOM     11  C   UNL     1      -1.771   9.735  19.182  0.00  0.00    +0.000 A 
ATOM     12  C   UNL     1      -2.374   9.995  17.950  0.00  0.00    +0.000 A 
ENDBRANCH   1  10
BRANCH   2  13
ATOM     13  C   UNL     1       1.522   8.516  20.014  0.00  0.00    +0.000 A 
ATOM     14  C   UNL     1       1.801   8.983  18.728  0.00  0.00    +0.000 A 
ATOM     15  C   UNL     1       2.370   8.113  17.810  0.00  0.00    +0.000 A 
ATOM     16  N   UNL     1       2.718   6.843  18.095  0.00  0.00    +0.000 NA
ATOM     17  C   UNL     1       2.504   6.426  19.359  0.00  0.00    +0.000 A 
ATOM     18  C   UNL     1       1.917   7.212  20.338  0.00  0.00    +0.000 A 
ENDBRANCH   2  13
BRANCH   5  19
ATOM     19  C   UNL     1      -1.266  11.819  22.614  0.00  0.00    +0.000 A 
ATOM     20  C   UNL     1      -2.509  11.614  23.188  0.00  0.00    +0.000 A 
ATOM     21  C   UNL     1      -3.255  12.821  23.329  0.00  0.00    +0.000 A 
ATOM     22  C   UNL     1      -2.510  13.924  22.982  0.00  0.00    +0.000 A 
ATOM     23  S   UNL     1      -0.945  13.497  22.446  0.00  0.00    +0.000 S 
ENDBRANCH   5  19
TORSDOF 3
ENDMDL
MODEL 6
REMARK VINA RESULT:      -6.2      2.590      5.096
REMARK  Name = 
REMARK  4 active torsions:
REMARK  status: ('A' for Active; 'I' for Inactive)
REMARK    1  A    between atoms: C_1  and  C_2
REMARK    2  A    between atoms: C_5  and  N_6
REMARK    3  A    between atoms: C_7  and  C_8
REMARK    4  A    between atoms: C_16  and  C_17
REMARK                            x       y       z     vdW  Elec       q    Type
REMARK                         _______ _______ _______ _____ _____    ______ ____
ROOT
ATOM      1  N   UNL     1       4.461   5.257  18.792  0.00  0.00    +0.000 N 
ATOM      2  C   UNL     1       4.080   3.943  19.091  0.00  0.00    +0.000 A 
ATOM      3  N   UNL     1       5.158   3.182  19.081  0.00  0.00    +0.000 NA
ATOM      4  N   UNL     1       6.236   3.942  18.729  0.00  0.00    +0.000 NA
ATOM      5  C   UNL     1       5.836   5.190  18.577  0.00  0.00    +0.000 A 
ENDROOT
BRANCH   1  10
ATOM      6  C   UNL     1       0.824   9.677  18.566  0.00  0.00    +0.000 C 
ATOM      7  C   UNL     1       1.843   8.580  18.641  0.00  0.00    +0.000 A 
ATOM      8  C   UNL     1       2.639   8.257  17.536  0.00  0.00    +0.000 A 
ATOM      9  C   UNL     1       3.525   7.176  17.588  0.00  0.00    +0.000 A 
ATOM     10  C   UNL     1       3.643   6.424  18.762  0.00  0.00    +0.000 A 
ATOM     11  C   UNL     1       2.898   6.790  19.892  0.00  0.00    +0.000 A 
ATOM     12  C   UNL     1       1.982   7.841  19.819  0.00  0.00    +0.000 A 
ENDBRANCH   1  10
BRANCH   2  13
ATOM     13  C   UNL     1       2.730   3.408  19.333  0.00  0.00    +0.000 A 
ATOM     14  C   UNL     1       1.883   2.978  18.309  0.00  0.00    +0.000 A 
ATOM     15  C   UNL     1       0.612   2.529  18.636  0.00  0.00    +0.000 A 
ATOM     16  N   UNL     1       0.151   2.437  19.899  0.00  0.00    +0.000 NA
ATOM     17  C   UNL     1       1.002   2.793  20.882  0.00  0.00    +0.000 A 
ATOM     18  C   UNL     1       2.280   3.278  20.653  0.00  0.00    +0.000 A 
ENDBRANCH   2  13
BRANCH   5  19
ATOM     19  C   UNL     1       6.753   6.273  18.313  0.00  0.00    +0.000 A 
ATOM     20  C   UNL     1       7.882   6.649  19.022  0.00  0.00    +0.000 A 
ATOM     21  C   UNL     1       8.441   7.874  18.556  0.00  0.00    +0.000 A 
ATOM     22  C   UNL     1       7.805   8.329  17.425  0.00  0.00    +0.000 A 
ATOM     23  S   UNL     1       6.514   7.308  16.964  0.00  0.00    +0.000 S 
ENDBRANCH   5  19
TORSDOF 3
ENDMDL
MODEL 7
REMARK VINA RESULT:      -6.1      2.032      5.632
REMARK  Name = 
REMARK  4 active torsions:
REMARK  status: ('A' for Active; 'I' for Inactive)
REMARK    1  A    between atoms: C_1  and  C_2
REMARK    2  A    between atoms: C_5  and  N_6
REMARK    3  A    between atoms: C_7  and  C_8
REMARK    4  A    between atoms: C_16  and  C_17
REMARK                            x       y       z     vdW  Elec       q    Type
REMARK                         _______ _______ _______ _____ _____    ______ ____
ROOT
ATOM      1  N   UNL     1       2.690   6.932  18.426  0.00  0.00    +0.000 N 
ATOM      2  C   UNL     1       3.656   6.933  17.412  0.00  0.00    +0.000 A 
ATOM      3  N   UNL     1       3.776   8.163  16.950  0.00  0.00    +0.000 NA
ATOM      4  N   UNL     1       2.880   8.969  17.589  0.00  0.00    +0.000 NA
ATOM      5  C   UNL     1       2.241   8.250  18.492  0.00  0.00    +0.000 A 
ENDROOT
BRANCH   1  10
ATOM      6  C   UNL     1       1.422   2.333  21.597  0.00  0.00    +0.000 C 
ATOM      7  C   UNL     1       1.677   3.575  20.796  0.00  0.00    +0.000 A 
ATOM      8  C   UNL     1       1.072   3.767  19.549  0.00  0.00    +0.000 A 
ATOM      9  C   UNL     1       1.383   4.887  18.772  0.00  0.00    +0.000 A 
ATOM     10  C   UNL     1       2.284   5.845  19.252  0.00  0.00    +0.000 A 
ATOM     11  C   UNL     1       2.836   5.689  20.532  0.00  0.00    +0.000 A 
ATOM     12  C   UNL     1       2.557   4.546  21.283  0.00  0.00    +0.000 A 
ENDBRANCH   1  10
BRANCH   2  13
ATOM     13  C   UNL     1       4.411   5.796  16.859  0.00  0.00    +0.000 A 
ATOM     14  C   UNL     1       4.294   4.492  17.346  0.00  0.00    +0.000 A 
ATOM     15  C   UNL     1       5.080   3.497  16.785  0.00  0.00    +0.000 A 
ATOM     16  N   UNL     1       5.928   3.699  15.757  0.00  0.00    +0.000 NA
ATOM     17  C   UNL     1       5.982   4.949  15.254  0.00  0.00    +0.000 A 
ATOM     18  C   UNL     1       5.256   6.013  15.763  0.00  0.00    +0.000 A 
ENDBRANCH   2  13
BRANCH   5  19
ATOM     19  C   UNL     1       1.298   8.827  19.420  0.00  0.00    +0.000 A 
ATOM     20  C   UNL     1       1.105   8.531  20.759  0.00  0.00    +0.000 A 
ATOM     21  C   UNL     1      -0.034   9.186  21.309  0.00  0.00    +0.000 A 
ATOM     22  C   UNL     1      -0.599  10.065  20.414  0.00  0.00    +0.000 A 
ATOM     23  S   UNL     1       0.213  10.056  18.910  0.00  0.00    +0.000 S 
ENDBRANCH   5  19
TORSDOF 3
ENDMDL
MODEL 8
REMARK VINA RESULT:      -6.1      0.490      1.097
REMARK  Name = 
REMARK  4 active torsions:
REMARK  status: ('A' for Active; 'I' for Inactive)
REMARK    1  A    between atoms: C_1  and  C_2
REMARK    2  A    between atoms: C_5  and  N_6
REMARK    3  A    between atoms: C_7  and  C_8
REMARK    4  A    between atoms: C_16  and  C_17
REMARK                            x       y       z     vdW  Elec       q    Type
REMARK                         _______ _______ _______ _____ _____    ______ ____
ROOT
ATOM      1  N   UNL     1       2.764   6.945  18.417  0.00  0.00    +0.000 N 
ATOM      2  C   UNL     1       2.260   8.250  18.354  0.00  0.00    +0.000 A 
ATOM      3  N   UNL     1       2.913   8.906  17.412  0.00  0.00    +0.000 NA
ATOM      4  N   UNL     1       3.873   8.091  16.886  0.00  0.00    +0.000 NA
ATOM      5  C   UNL     1       3.779   6.907  17.462  0.00  0.00    +0.000 A 
ENDROOT
BRANCH   1  10
ATOM      6  C   UNL     1       1.329   2.388  21.577  0.00  0.00    +0.000 C 
ATOM      7  C   UNL     1       1.626   3.619  20.774  0.00  0.00    +0.000 A 
ATOM      8  C   UNL     1       1.100   3.786  19.488  0.00  0.00    +0.000 A 
ATOM      9  C   UNL     1       1.452   4.896  18.713  0.00  0.00    +0.000 A 
ATOM     10  C   UNL     1       2.314   5.868  19.234  0.00  0.00    +0.000 A 
ATOM     11  C   UNL     1       2.785   5.737  20.548  0.00  0.00    +0.000 A 
ATOM     12  C   UNL     1       2.467   4.604  21.299  0.00  0.00    +0.000 A 
ENDBRANCH   1  10
BRANCH   2  13
ATOM     13  C   UNL     1       1.224   8.878  19.190  0.00  0.00    +0.000 A 
ATOM     14  C   UNL     1       1.152   8.707  20.574  0.00  0.00    +0.000 A 
ATOM     15  C   UNL     1       0.112   9.307  21.268  0.00  0.00    +0.000 A 
ATOM     16  N   UNL     1      -0.820  10.093  20.694  0.00  0.00    +0.000 NA
ATOM     17  C   UNL     1      -0.700  10.303  19.367  0.00  0.00    +0.000 A 
ATOM     18  C   UNL     1       0.288   9.726  18.585  0.00  0.00    +0.000 A 
ENDBRANCH   2  13
BRANCH   5  19
ATOM     19  C   UNL     1       4.580   5.778  17.053  0.00  0.00    +0.000 A 
ATOM     20  C   UNL     1       4.174   4.489  16.755  0.00  0.00    +0.000 A 
ATOM     21  C   UNL     1       5.271   3.600  16.555  0.00  0.00    +0.000 A 
ATOM     22  C   UNL     1       6.475   4.263  16.575  0.00  0.00    +0.000 A 
ATOM     23  S   UNL     1       6.281   5.933  16.883  0.00  0.00    +0.000 S 
ENDBRANCH   5  19
TORSDOF 3
ENDMDL
MODEL 9
REMARK VINA RESULT:      -6.1      4.246      8.705
REMARK  Name = 
REMARK  4 active torsions:
REMARK  status: ('A' for Active; 'I' for Inactive)
REMARK    1  A    between atoms: C_1  and  C_2
REMARK    2  A    between atoms: C_5  and  N_6
REMARK    3  A    between atoms: C_7  and  C_8
REMARK    4  A    between atoms: C_16  and  C_17
REMARK                            x       y       z     vdW  Elec       q    Type
REMARK                         _______ _______ _______ _____ _____    ______ ____
ROOT
ATOM      1  N   UNL     1      -0.745  11.262  20.066  0.00  0.00    +0.000 N 
ATOM      2  C   UNL     1       0.368  10.534  20.505  0.00  0.00    +0.000 A 
ATOM      3  N   UNL     1       0.726  10.993  21.690  0.00  0.00    +0.000 NA
ATOM      4  N   UNL     1      -0.081  12.041  22.025  0.00  0.00    +0.000 NA
ATOM      5  C   UNL     1      -0.981  12.197  21.073  0.00  0.00    +0.000 A 
ENDROOT
BRANCH   1  10
ATOM      6  C   UNL     1      -3.474  10.233  15.136  0.00  0.00    +0.000 C 
ATOM      7  C   UNL     1      -2.829  10.555  16.451  0.00  0.00    +0.000 A 
ATOM      8  C   UNL     1      -2.107  11.740  16.629  0.00  0.00    +0.000 A 
ATOM      9  C   UNL     1      -1.437  11.992  17.830  0.00  0.00    +0.000 A 
ATOM     10  C   UNL     1      -1.510  11.068  18.879  0.00  0.00    +0.000 A 
ATOM     11  C   UNL     1      -2.291   9.914  18.727  0.00  0.00    +0.000 A 
ATOM     12  C   UNL     1      -2.919   9.647  17.510  0.00  0.00    +0.000 A 
ENDBRANCH   1  10
BRANCH   2  13
ATOM     13  C   UNL     1       1.103   9.466  19.808  0.00  0.00    +0.000 A 
ATOM     14  C   UNL     1       1.441   8.252  20.410  0.00  0.00    +0.000 A 
ATOM     15  C   UNL     1       2.172   7.326  19.682  0.00  0.00    +0.000 A 
ATOM     16  N   UNL     1       2.544   7.504  18.400  0.00  0.00    +0.000 NA
ATOM     17  C   UNL     1       2.155   8.652  17.810  0.00  0.00    +0.000 A 
ATOM     18  C   UNL     1       1.446   9.648  18.463  0.00  0.00    +0.000 A 
ENDBRANCH   2  13
BRANCH   5  19
ATOM     19  C   UNL     1      -2.058  13.153  21.171  0.00  0.00    +0.000 A 
ATOM     20  C   UNL     1      -2.109  14.455  20.702  0.00  0.00    +0.000 A 
ATOM     21  C   UNL     1      -3.276  15.149  21.135  0.00  0.00    +0.000 A 
ATOM     22  C   UNL     1      -4.143  14.321  21.808  0.00  0.00    +0.000 A 
ATOM     23  S   UNL     1      -3.526  12.734  21.956  0.00  0.00    +0.000 S 
ENDBRANCH   5  19
TORSDOF 3
ENDMDL
