MODEL 1
REMARK VINA RESULT:      -7.1      0.000      0.000
REMARK  Name = 
REMARK  12 active torsions:
REMARK  status: ('A' for Active; 'I' for Inactive)
REMARK    1  A    between atoms: N_1  and  CA_2
REMARK    2  A    between atoms: CA_2  and  CB_3
REMARK    3  A    between atoms: CA_2  and  C_11
REMARK    4  A    between atoms: CB_3  and  CG_4
REMARK    5  A    between atoms: CZ_7  and  OH_8
REMARK    6  A    between atoms: N_13  and  C_14
REMARK    7  A    between atoms: C_14  and  C_15
REMARK    8  A    between atoms: C_14  and  C_18
REMARK    9  A    between atoms: C_15  and  O_17
REMARK   10  A    between atoms: C_21  and  O_22
REMARK   11  A    between atoms: C_23  and  O_24
REMARK   12  A    between atoms: C_25  and  O_26
REMARK                            x       y       z     vdW  Elec       q    Type
REMARK                         _______ _______ _______ _____ _____    ______ ____
ROOT
ATOM      1  C   TYR A   1       2.442   5.898  18.634  0.00  0.00    +0.000 C 
ATOM      2  O   TYR A   1       2.124   5.418  17.563  0.00  0.00    +0.000 OA
ATOM      3  N   UNK A   2       3.335   5.253  19.499  0.00  0.00    +0.000 N 
ATOM      4  H   UNK A   2       3.539   5.694  20.391  0.00  0.00    +0.000 HD
ENDROOT
BRANCH   1   5
ATOM      5  CA  TYR A   1       1.818   7.200  19.191  0.00  0.00    +0.000 C 
BRANCH   5   6
ATOM      6  N   TYR A   1       2.275   7.399  20.585  0.00  0.00    +0.000 NA
ATOM      7  H1  TYR A   1       1.637   8.062  21.029  0.00  0.00    +0.000 HD
ATOM      8  H2  TYR A   1       3.167   7.894  20.543  0.00  0.00    +0.000 HD
ENDBRANCH   5   6
BRANCH   5   9
ATOM      9  CB  TYR A   1       2.149   8.412  18.279  0.00  0.00    +0.000 C 
BRANCH   9  10
ATOM     10  CG  TYR A   1       1.128   9.533  18.368  0.00  0.00    +0.000 A 
ATOM     11  CD1 TYR A   1       1.485  10.779  18.908  0.00  0.00    +0.000 A 
ATOM     12  CE1 TYR A   1       0.561  11.825  18.957  0.00  0.00    +0.000 A 
ATOM     13  CZ  TYR A   1      -0.729  11.621  18.483  0.00  0.00    +0.000 A 
ATOM     14  CE2 TYR A   1      -1.108  10.391  17.960  0.00  0.00    +0.000 A 
ATOM     15  CD2 TYR A   1      -0.181   9.348  17.899  0.00  0.00    +0.000 A 
BRANCH  13  16
ATOM     16  OH  TYR A   1      -1.660  12.617  18.515  0.00  0.00    +0.000 OA
ATOM     17  HH  TYR A   1      -1.232  13.444  18.239  0.00  0.00    +0.000 HD
ENDBRANCH  13  16
ENDBRANCH   9  10
ENDBRANCH   5   9
ENDBRANCH   1   5
BRANCH   3  18
ATOM     18  C   UNK A   2       4.081   4.056  19.064  0.00  0.00    +0.000 C 
BRANCH  18  19
ATOM     19  C   UNK A   2       5.585   4.316  18.753  0.00  0.00    +0.000 C 
ATOM     20  O   UNK A   2       6.049   5.435  19.536  0.00  0.00    +0.000 OA
ATOM     21  C   UNK A   2       7.453   5.707  19.367  0.00  0.00    +0.000 C 
ATOM     22  C   UNK A   2       7.700   6.129  17.921  0.00  0.00    +0.000 C 
ATOM     23  C   UNK A   2       7.283   4.984  16.991  0.00  0.00    +0.000 C 
ATOM     24  C   UNK A   2       5.817   4.569  17.250  0.00  0.00    +0.000 C 
BRANCH  22  25
ATOM     25  O   UNK A   2       6.900   7.284  17.608  0.00  0.00    +0.000 OA
ATOM     26  H   UNK A   2       6.280   7.014  16.901  0.00  0.00    +0.000 HD
ENDBRANCH  22  25
BRANCH  23  27
ATOM     27  O   UNK A   2       7.445   5.383  15.627  0.00  0.00    +0.000 OA
ATOM     28  H   UNK A   2       6.822   4.837  15.107  0.00  0.00    +0.000 HD
ENDBRANCH  23  27
BRANCH  24  29
ATOM     29  O   UNK A   2       5.461   3.407  16.498  0.00  0.00    +0.000 OA
ATOM     30  H   UNK A   2       5.152   3.681  15.617  0.00  0.00    +0.000 HD
ENDBRANCH  24  29
ENDBRANCH  18  19
BRANCH  18  31
ATOM     31  C   UNK A   2       4.006   2.901  20.075  0.00  0.00    +0.000 C 
ATOM     32  O   UNK A   2       3.092   2.764  20.870  0.00  0.00    +0.000 OA
BRANCH  31  33
ATOM     33  O   UNK A   2       5.036   2.020  20.026  0.00  0.00    +0.000 OA
ATOM     34  H   UNK A   2       4.740   1.120  19.792  0.00  0.00    +0.000 HD
ENDBRANCH  31  33
ENDBRANCH  18  31
ENDBRANCH   3  18
TORSDOF 12
ENDMDL
MODEL 2
REMARK VINA RESULT:      -7.0      1.503      1.968
REMARK  Name = 
REMARK  12 active torsions:
REMARK  status: ('A' for Active; 'I' for Inactive)
REMARK    1  A    between atoms: N_1  and  CA_2
REMARK    2  A    between atoms: CA_2  and  CB_3
REMARK    3  A    between atoms: CA_2  and  C_11
REMARK    4  A    between atoms: CB_3  and  CG_4
REMARK    5  A    between atoms: CZ_7  and  OH_8
REMARK    6  A    between atoms: N_13  and  C_14
REMARK    7  A    between atoms: C_14  and  C_15
REMARK    8  A    between atoms: C_14  and  C_18
REMARK    9  A    between atoms: C_15  and  O_17
REMARK   10  A    between atoms: C_21  and  O_22
REMARK   11  A    between atoms: C_23  and  O_24
REMARK   12  A    between atoms: C_25  and  O_26
REMARK                            x       y       z     vdW  Elec       q    Type
REMARK                         _______ _______ _______ _____ _____    ______ ____
ROOT
ATOM      1  C   TYR A   1       2.139   4.238  18.853  0.00  0.00    +0.000 C 
ATOM      2  O   TYR A   1       1.701   3.590  17.922  0.00  0.00    +0.000 OA
ATOM      3  N   UNK A   2       3.441   4.055  19.335  0.00  0.00    +0.000 N 
ATOM      4  H   UNK A   2       3.738   4.609  20.133  0.00  0.00    +0.000 HD
ENDROOT
BRANCH   1   5
ATOM      5  CA  TYR A   1       1.278   5.241  19.659  0.00  0.00    +0.000 C 
BRANCH   5   6
ATOM      6  N   TYR A   1       0.509   4.503  20.687  0.00  0.00    +0.000 NA
ATOM      7  H1  TYR A   1      -0.056   3.801  20.206  0.00  0.00    +0.000 HD
ATOM      8  H2  TYR A   1      -0.173   5.154  21.079  0.00  0.00    +0.000 HD
ENDBRANCH   5   6
BRANCH   5   9
ATOM      9  CB  TYR A   1       2.157   6.366  20.269  0.00  0.00    +0.000 C 
BRANCH   9  10
ATOM     10  CG  TYR A   1       1.861   7.742  19.699  0.00  0.00    +0.000 A 
ATOM     11  CD1 TYR A   1       2.275   8.079  18.401  0.00  0.00    +0.000 A 
ATOM     12  CE1 TYR A   1       1.972   9.329  17.858  0.00  0.00    +0.000 A 
ATOM     13  CZ  TYR A   1       1.270  10.255  18.621  0.00  0.00    +0.000 A 
ATOM     14  CE2 TYR A   1       0.865   9.948  19.915  0.00  0.00    +0.000 A 
ATOM     15  CD2 TYR A   1       1.157   8.693  20.453  0.00  0.00    +0.000 A 
BRANCH  13  16
ATOM     16  OH  TYR A   1       0.957  11.486  18.128  0.00  0.00    +0.000 OA
ATOM     17  HH  TYR A   1       0.239  11.383  17.482  0.00  0.00    +0.000 HD
ENDBRANCH  13  16
ENDBRANCH   9  10
ENDBRANCH   5   9
ENDBRANCH   1   5
BRANCH   3  18
ATOM     18  C   UNK A   2       4.406   3.206  18.611  0.00  0.00    +0.000 C 
BRANCH  18  19
ATOM     19  C   UNK A   2       5.794   3.871  18.373  0.00  0.00    +0.000 C 
ATOM     20  O   UNK A   2       5.952   4.984  19.276  0.00  0.00    +0.000 OA
ATOM     21  C   UNK A   2       7.240   5.621  19.177  0.00  0.00    +0.000 C 
ATOM     22  C   UNK A   2       7.375   6.240  17.789  0.00  0.00    +0.000 C 
ATOM     23  C   UNK A   2       7.270   5.128  16.737  0.00  0.00    +0.000 C 
ATOM     24  C   UNK A   2       5.959   4.329  16.909  0.00  0.00    +0.000 C 
BRANCH  22  25
ATOM     25  O   UNK A   2       6.307   7.178  17.566  0.00  0.00    +0.000 OA
ATOM     26  H   UNK A   2       5.474   6.715  17.786  0.00  0.00    +0.000 HD
ENDBRANCH  22  25
BRANCH  23  27
ATOM     27  O   UNK A   2       7.329   5.695  15.425  0.00  0.00    +0.000 OA
ATOM     28  H   UNK A   2       7.387   6.663  15.549  0.00  0.00    +0.000 HD
ENDBRANCH  23  27
BRANCH  24  29
ATOM     29  O   UNK A   2       5.917   3.198  16.035  0.00  0.00    +0.000 OA
ATOM     30  H   UNK A   2       5.232   3.345  15.359  0.00  0.00    +0.000 HD
ENDBRANCH  24  29
ENDBRANCH  18  19
BRANCH  18  31
ATOM     31  C   UNK A   2       4.648   1.851  19.295  0.00  0.00    +0.000 C 
ATOM     32  O   UNK A   2       5.086   1.742  20.428  0.00  0.00    +0.000 OA
BRANCH  31  33
ATOM     33  O   UNK A   2       4.336   0.761  18.551  0.00  0.00    +0.000 OA
ATOM     34  H   UNK A   2       4.029   1.003  17.656  0.00  0.00    +0.000 HD
ENDBRANCH  31  33
ENDBRANCH  18  31
ENDBRANCH   3  18
TORSDOF 12
ENDMDL
MODEL 3
REMARK VINA RESULT:      -7.0      1.778      2.037
REMARK  Name = 
REMARK  12 active torsions:
REMARK  status: ('A' for Active; 'I' for Inactive)
REMARK    1  A    between atoms: N_1  and  CA_2
REMARK    2  A    between atoms: CA_2  and  CB_3
REMARK    3  A    between atoms: CA_2  and  C_11
REMARK    4  A    between atoms: CB_3  and  CG_4
REMARK    5  A    between atoms: CZ_7  and  OH_8
REMARK    6  A    between atoms: N_13  and  C_14
REMARK    7  A    between atoms: C_14  and  C_15
REMARK    8  A    between atoms: C_14  and  C_18
REMARK    9  A    between atoms: C_15  and  O_17
REMARK   10  A    between atoms: C_21  and  O_22
REMARK   11  A    between atoms: C_23  and  O_24
REMARK   12  A    between atoms: C_25  and  O_26
REMARK                            x       y       z     vdW  Elec       q    Type
REMARK                         _______ _______ _______ _____ _____    ______ ____
ROOT
ATOM      1  C   TYR A   1       2.511   5.308  19.006  0.00  0.00    +0.000 C 
ATOM      2  O   TYR A   1       2.249   5.293  17.819  0.00  0.00    +0.000 OA
ATOM      3  N   UNK A   2       3.433   4.419  19.572  0.00  0.00    +0.000 N 
ATOM      4  H   UNK A   2       3.589   4.465  20.574  0.00  0.00    +0.000 HD
ENDROOT
BRANCH   1   5
ATOM      5  CA  TYR A   1       1.782   6.226  20.017  0.00  0.00    +0.000 C 
BRANCH   5   6
ATOM      6  N   TYR A   1       2.074   5.758  21.392  0.00  0.00    +0.000 NA
ATOM      7  H1  TYR A   1       1.391   6.191  22.017  0.00  0.00    +0.000 HD
ATOM      8  H2  TYR A   1       2.967   6.169  21.668  0.00  0.00    +0.000 HD
ENDBRANCH   5   6
BRANCH   5   9
ATOM      9  CB  TYR A   1       2.170   7.713  19.801  0.00  0.00    +0.000 C 
BRANCH   9  10
ATOM     10  CG  TYR A   1       1.257   8.688  20.524  0.00  0.00    +0.000 A 
ATOM     11  CD1 TYR A   1       0.480   9.606  19.800  0.00  0.00    +0.000 A 
ATOM     12  CE1 TYR A   1      -0.389  10.479  20.458  0.00  0.00    +0.000 A 
ATOM     13  CZ  TYR A   1      -0.469  10.449  21.845  0.00  0.00    +0.000 A 
ATOM     14  CE2 TYR A   1       0.304   9.559  22.582  0.00  0.00    +0.000 A 
ATOM     15  CD2 TYR A   1       1.164   8.678  21.924  0.00  0.00    +0.000 A 
BRANCH  13  16
ATOM     16  OH  TYR A   1      -1.304  11.285  22.523  0.00  0.00    +0.000 OA
ATOM     17  HH  TYR A   1      -0.856  12.140  22.635  0.00  0.00    +0.000 HD
ENDBRANCH  13  16
ENDBRANCH   9  10
ENDBRANCH   5   9
ENDBRANCH   1   5
BRANCH   3  18
ATOM     18  C   UNK A   2       4.274   3.554  18.721  0.00  0.00    +0.000 C 
BRANCH  18  19
ATOM     19  C   UNK A   2       5.701   4.116  18.446  0.00  0.00    +0.000 C 
ATOM     20  O   UNK A   2       5.917   5.289  19.256  0.00  0.00    +0.000 OA
ATOM     21  C   UNK A   2       7.240   5.841  19.122  0.00  0.00    +0.000 C 
ATOM     22  C   UNK A   2       7.423   6.332  17.688  0.00  0.00    +0.000 C 
ATOM     23  C   UNK A   2       7.261   5.144  16.732  0.00  0.00    +0.000 C 
ATOM     24  C   UNK A   2       5.904   4.439  16.952  0.00  0.00    +0.000 C 
BRANCH  22  25
ATOM     25  O   UNK A   2       6.414   7.309  17.375  0.00  0.00    +0.000 OA
ATOM     26  H   UNK A   2       6.820   8.188  17.508  0.00  0.00    +0.000 HD
ENDBRANCH  22  25
BRANCH  23  27
ATOM     27  O   UNK A   2       7.365   5.595  15.377  0.00  0.00    +0.000 OA
ATOM     28  H   UNK A   2       8.285   5.414  15.100  0.00  0.00    +0.000 HD
ENDBRANCH  23  27
BRANCH  24  29
ATOM     29  O   UNK A   2       5.802   3.244  16.175  0.00  0.00    +0.000 OA
ATOM     30  H   UNK A   2       6.679   2.825  16.120  0.00  0.00    +0.000 HD
ENDBRANCH  24  29
ENDBRANCH  18  19
BRANCH  18  31
ATOM     31  C   UNK A   2       4.431   2.131  19.279  0.00  0.00    +0.000 C 
ATOM     32  O   UNK A   2       4.948   1.887  20.356  0.00  0.00    +0.000 OA
BRANCH  31  33
ATOM     33  O   UNK A   2       3.948   1.141  18.487  0.00  0.00    +0.000 OA
ATOM     34  H   UNK A   2       3.523   1.490  17.681  0.00  0.00    +0.000 HD
ENDBRANCH  31  33
ENDBRANCH  18  31
ENDBRANCH   3  18
TORSDOF 12
ENDMDL
MODEL 4
REMARK VINA RESULT:      -6.9      1.111      1.294
REMARK  Name = 
REMARK  12 active torsions:
REMARK  status: ('A' for Active; 'I' for Inactive)
REMARK    1  A    between atoms: N_1  and  CA_2
REMARK    2  A    between atoms: CA_2  and  CB_3
REMARK    3  A    between atoms: CA_2  and  C_11
REMARK    4  A    between atoms: CB_3  and  CG_4
REMARK    5  A    between atoms: CZ_7  and  OH_8
REMARK    6  A    between atoms: N_13  and  C_14
REMARK    7  A    between atoms: C_14  and  C_15
REMARK    8  A    between atoms: C_14  and  C_18
REMARK    9  A    between atoms: C_15  and  O_17
REMARK   10  A    between atoms: C_21  and  O_22
REMARK   11  A    between atoms: C_23  and  O_24
REMARK   12  A    between atoms: C_25  and  O_26
REMARK                            x       y       z     vdW  Elec       q    Type
REMARK                         _______ _______ _______ _____ _____    ______ ____
ROOT
ATOM      1  C   TYR A   1       2.335   5.452  18.840  0.00  0.00    +0.000 C 
ATOM      2  O   TYR A   1       1.849   5.167  17.763  0.00  0.00    +0.000 OA
ATOM      3  N   UNK A   2       3.449   4.776  19.353  0.00  0.00    +0.000 N 
ATOM      4  H   UNK A   2       3.791   5.044  20.271  0.00  0.00    +0.000 HD
ENDROOT
BRANCH   1   5
ATOM      5  CA  TYR A   1       1.715   6.505  19.791  0.00  0.00    +0.000 C 
BRANCH   5   6
ATOM      6  N   TYR A   1       2.005   6.123  21.192  0.00  0.00    +0.000 NA
ATOM      7  H1  TYR A   1       1.385   5.348  21.436  0.00  0.00    +0.000 HD
ATOM      8  H2  TYR A   1       1.695   6.893  21.786  0.00  0.00    +0.000 HD
ENDBRANCH   5   6
BRANCH   5   9
ATOM      9  CB  TYR A   1       2.220   7.932  19.449  0.00  0.00    +0.000 C 
BRANCH   9  10
ATOM     10  CG  TYR A   1       1.132   8.990  19.510  0.00  0.00    +0.000 A 
ATOM     11  CD1 TYR A   1       0.670   9.604  18.335  0.00  0.00    +0.000 A 
ATOM     12  CE1 TYR A   1      -0.357  10.550  18.381  0.00  0.00    +0.000 A 
ATOM     13  CZ  TYR A   1      -0.911  10.899  19.607  0.00  0.00    +0.000 A 
ATOM     14  CE2 TYR A   1      -0.457  10.315  20.784  0.00  0.00    +0.000 A 
ATOM     15  CD2 TYR A   1       0.561   9.360  20.736  0.00  0.00    +0.000 A 
BRANCH  13  16
ATOM     16  OH  TYR A   1      -1.913  11.818  19.693  0.00  0.00    +0.000 OA
ATOM     17  HH  TYR A   1      -2.228  12.013  18.796  0.00  0.00    +0.000 HD
ENDBRANCH  13  16
ENDBRANCH   9  10
ENDBRANCH   5   9
ENDBRANCH   1   5
BRANCH   3  18
ATOM     18  C   UNK A   2       4.203   3.817  18.522  0.00  0.00    +0.000 C 
BRANCH  18  19
ATOM     19  C   UNK A   2       5.680   4.229  18.248  0.00  0.00    +0.000 C 
ATOM     20  O   UNK A   2       5.994   5.415  19.006  0.00  0.00    +0.000 OA
ATOM     21  C   UNK A   2       7.366   5.833  18.871  0.00  0.00    +0.000 C 
ATOM     22  C   UNK A   2       7.615   6.235  17.420  0.00  0.00    +0.000 C 
ATOM     23  C   UNK A   2       7.355   5.023  16.517  0.00  0.00    +0.000 C 
ATOM     24  C   UNK A   2       5.934   4.460  16.745  0.00  0.00    +0.000 C 
BRANCH  22  25
ATOM     25  O   UNK A   2       6.706   7.286  17.043  0.00  0.00    +0.000 OA
ATOM     26  H   UNK A   2       5.808   6.982  17.282  0.00  0.00    +0.000 HD
ENDBRANCH  22  25
BRANCH  23  27
ATOM     27  O   UNK A   2       7.520   5.396  15.145  0.00  0.00    +0.000 OA
ATOM     28  H   UNK A   2       7.663   4.563  14.652  0.00  0.00    +0.000 HD
ENDBRANCH  23  27
BRANCH  24  29
ATOM     29  O   UNK A   2       5.731   3.243  16.022  0.00  0.00    +0.000 OA
ATOM     30  H   UNK A   2       6.109   2.505  16.531  0.00  0.00    +0.000 HD
ENDBRANCH  24  29
ENDBRANCH  18  19
BRANCH  18  31
ATOM     31  C   UNK A   2       4.214   2.395  19.104  0.00  0.00    +0.000 C 
ATOM     32  O   UNK A   2       3.486   1.502  18.705  0.00  0.00    +0.000 OA
BRANCH  31  33
ATOM     33  O   UNK A   2       5.103   2.186  20.107  0.00  0.00    +0.000 OA
ATOM     34  H   UNK A   2       5.650   2.975  20.284  0.00  0.00    +0.000 HD
ENDBRANCH  31  33
ENDBRANCH  18  31
ENDBRANCH   3  18
TORSDOF 12
ENDMDL
MODEL 5
REMARK VINA RESULT:      -6.9      0.111      1.139
REMARK  Name = 
REMARK  12 active torsions:
REMARK  status: ('A' for Active; 'I' for Inactive)
REMARK    1  A    between atoms: N_1  and  CA_2
REMARK    2  A    between atoms: CA_2  and  CB_3
REMARK    3  A    between atoms: CA_2  and  C_11
REMARK    4  A    between atoms: CB_3  and  CG_4
REMARK    5  A    between atoms: CZ_7  and  OH_8
REMARK    6  A    between atoms: N_13  and  C_14
REMARK    7  A    between atoms: C_14  and  C_15
REMARK    8  A    between atoms: C_14  and  C_18
REMARK    9  A    between atoms: C_15  and  O_17
REMARK   10  A    between atoms: C_21  and  O_22
REMARK   11  A    between atoms: C_23  and  O_24
REMARK   12  A    between atoms: C_25  and  O_26
REMARK                            x       y       z     vdW  Elec       q    Type
REMARK                         _______ _______ _______ _____ _____    ______ ____
ROOT
ATOM      1  C   TYR A   1       2.442   5.940  18.682  0.00  0.00    +0.000 C 
ATOM      2  O   TYR A   1       2.112   5.439  17.625  0.00  0.00    +0.000 OA
ATOM      3  N   UNK A   2       3.344   5.313  19.550  0.00  0.00    +0.000 N 
ATOM      4  H   UNK A   2       3.559   5.771  20.431  0.00  0.00    +0.000 HD
ENDROOT
BRANCH   1   5
ATOM      5  CA  TYR A   1       1.826   7.255  19.219  0.00  0.00    +0.000 C 
BRANCH   5   6
ATOM      6  N   TYR A   1       2.248   7.449  20.626  0.00  0.00    +0.000 NA
ATOM      7  H1  TYR A   1       1.791   6.730  21.189  0.00  0.00    +0.000 HD
ATOM      8  H2  TYR A   1       1.835   8.326  20.947  0.00  0.00    +0.000 HD
ENDBRANCH   5   6
BRANCH   5   9
ATOM      9  CB  TYR A   1       2.202   8.459  18.315  0.00  0.00    +0.000 C 
BRANCH   9  10
ATOM     10  CG  TYR A   1       1.193   9.593  18.365  0.00  0.00    +0.000 A 
ATOM     11  CD1 TYR A   1      -0.120   9.397  17.909  0.00  0.00    +0.000 A 
ATOM     12  CE1 TYR A   1      -1.062  10.425  17.988  0.00  0.00    +0.000 A 
ATOM     13  CZ  TYR A   1      -0.687  11.659  18.505  0.00  0.00    +0.000 A 
ATOM     14  CE2 TYR A   1       0.613  11.879  18.946  0.00  0.00    +0.000 A 
ATOM     15  CD2 TYR A   1       1.552  10.847  18.879  0.00  0.00    +0.000 A 
BRANCH  13  16
ATOM     16  OH  TYR A   1      -1.576  12.687  18.597  0.00  0.00    +0.000 OA
ATOM     17  HH  TYR A   1      -1.357  13.212  19.384  0.00  0.00    +0.000 HD
ENDBRANCH  13  16
ENDBRANCH   9  10
ENDBRANCH   5   9
ENDBRANCH   1   5
BRANCH   3  18
ATOM     18  C   UNK A   2       4.084   4.106  19.132  0.00  0.00    +0.000 C 
BRANCH  18  19
ATOM     19  C   UNK A   2       5.583   4.359  18.793  0.00  0.00    +0.000 C 
ATOM     20  O   UNK A   2       6.067   5.475  19.567  0.00  0.00    +0.000 OA
ATOM     21  C   UNK A   2       7.469   5.741  19.371  0.00  0.00    +0.000 C 
ATOM     22  C   UNK A   2       7.691   6.161  17.921  0.00  0.00    +0.000 C 
ATOM     23  C   UNK A   2       7.250   5.017  16.999  0.00  0.00    +0.000 C 
ATOM     24  C   UNK A   2       5.788   4.610  17.286  0.00  0.00    +0.000 C 
BRANCH  22  25
ATOM     25  O   UNK A   2       6.890   7.320  17.622  0.00  0.00    +0.000 OA
ATOM     26  H   UNK A   2       7.021   7.516  16.673  0.00  0.00    +0.000 HD
ENDBRANCH  22  25
BRANCH  23  27
ATOM     27  O   UNK A   2       7.389   5.416  15.632  0.00  0.00    +0.000 OA
ATOM     28  H   UNK A   2       8.017   6.166  15.629  0.00  0.00    +0.000 HD
ENDBRANCH  23  27
BRANCH  24  29
ATOM     29  O   UNK A   2       5.413   3.449  16.540  0.00  0.00    +0.000 OA
ATOM     30  H   UNK A   2       5.883   3.453  15.688  0.00  0.00    +0.000 HD
ENDBRANCH  24  29
ENDBRANCH  18  19
BRANCH  18  31
ATOM     31  C   UNK A   2       4.024   2.973  20.169  0.00  0.00    +0.000 C 
ATOM     32  O   UNK A   2       4.910   2.149  20.314  0.00  0.00    +0.000 OA
BRANCH  31  33
ATOM     33  O   UNK A   2       2.903   2.946  20.933  0.00  0.00    +0.000 OA
ATOM     34  H   UNK A   2       3.057   3.314  21.824  0.00  0.00    +0.000 HD
ENDBRANCH  31  33
ENDBRANCH  18  31
ENDBRANCH   3  18
TORSDOF 12
ENDMDL
MODEL 6
REMARK VINA RESULT:      -6.8      4.205      7.010
REMARK  Name = 
REMARK  12 active torsions:
REMARK  status: ('A' for Active; 'I' for Inactive)
REMARK    1  A    between atoms: N_1  and  CA_2
REMARK    2  A    between atoms: CA_2  and  CB_3
REMARK    3  A    between atoms: CA_2  and  C_11
REMARK    4  A    between atoms: CB_3  and  CG_4
REMARK    5  A    between atoms: CZ_7  and  OH_8
REMARK    6  A    between atoms: N_13  and  C_14
REMARK    7  A    between atoms: C_14  and  C_15
REMARK    8  A    between atoms: C_14  and  C_18
REMARK    9  A    between atoms: C_15  and  O_17
REMARK   10  A    between atoms: C_21  and  O_22
REMARK   11  A    between atoms: C_23  and  O_24
REMARK   12  A    between atoms: C_25  and  O_26
REMARK                            x       y       z     vdW  Elec       q    Type
REMARK                         _______ _______ _______ _____ _____    ______ ____
ROOT
ATOM      1  C   TYR A   1       6.629   4.870  18.983  0.00  0.00    +0.000 C 
ATOM      2  O   TYR A   1       6.962   5.283  20.077  0.00  0.00    +0.000 OA
ATOM      3  N   UNK A   2       5.659   3.872  18.832  0.00  0.00    +0.000 N 
ATOM      4  H   UNK A   2       5.444   3.552  17.893  0.00  0.00    +0.000 HD
ENDROOT
BRANCH   1   5
ATOM      5  CA  TYR A   1       7.310   5.323  17.669  0.00  0.00    +0.000 C 
BRANCH   5   6
ATOM      6  N   TYR A   1       8.098   4.196  17.119  0.00  0.00    +0.000 NA
ATOM      7  H1  TYR A   1       7.905   4.143  16.117  0.00  0.00    +0.000 HD
ATOM      8  H2  TYR A   1       7.703   3.336  17.501  0.00  0.00    +0.000 HD
ENDBRANCH   5   6
BRANCH   5   9
ATOM      9  CB  TYR A   1       6.266   5.867  16.657  0.00  0.00    +0.000 C 
BRANCH   9  10
ATOM     10  CG  TYR A   1       6.285   5.145  15.321  0.00  0.00    +0.000 A 
ATOM     11  CD1 TYR A   1       7.293   5.413  14.382  0.00  0.00    +0.000 A 
ATOM     12  CE1 TYR A   1       7.337   4.725  13.168  0.00  0.00    +0.000 A 
ATOM     13  CZ  TYR A   1       6.360   3.779  12.881  0.00  0.00    +0.000 A 
ATOM     14  CE2 TYR A   1       5.343   3.510  13.790  0.00  0.00    +0.000 A 
ATOM     15  CD2 TYR A   1       5.307   4.190  15.010  0.00  0.00    +0.000 A 
BRANCH  13  16
ATOM     16  OH  TYR A   1       6.368   3.088  11.707  0.00  0.00    +0.000 OA
ATOM     17  HH  TYR A   1       7.216   3.248  11.263  0.00  0.00    +0.000 HD
ENDBRANCH  13  16
ENDBRANCH   9  10
ENDBRANCH   5   9
ENDBRANCH   1   5
BRANCH   3  18
ATOM     18  C   UNK A   2       4.856   3.413  19.983  0.00  0.00    +0.000 C 
BRANCH  18  19
ATOM     19  C   UNK A   2       3.354   3.819  19.920  0.00  0.00    +0.000 C 
ATOM     20  O   UNK A   2       2.561   2.829  20.606  0.00  0.00    +0.000 OA
ATOM     21  C   UNK A   2       1.160   3.156  20.661  0.00  0.00    +0.000 C 
ATOM     22  C   UNK A   2       0.603   3.167  19.240  0.00  0.00    +0.000 C 
ATOM     23  C   UNK A   2       1.349   4.230  18.423  0.00  0.00    +0.000 C 
ATOM     24  C   UNK A   2       2.874   3.989  18.464  0.00  0.00    +0.000 C 
BRANCH  22  25
ATOM     25  O   UNK A   2       0.820   1.885  18.622  0.00  0.00    +0.000 OA
ATOM     26  H   UNK A   2       1.782   1.804  18.468  0.00  0.00    +0.000 HD
ENDBRANCH  22  25
BRANCH  23  27
ATOM     27  O   UNK A   2       0.887   4.212  17.068  0.00  0.00    +0.000 OA
ATOM     28  H   UNK A   2       0.644   5.135  16.851  0.00  0.00    +0.000 HD
ENDBRANCH  23  27
BRANCH  24  29
ATOM     29  O   UNK A   2       3.590   5.054  17.834  0.00  0.00    +0.000 OA
ATOM     30  H   UNK A   2       3.709   4.842  16.892  0.00  0.00    +0.000 HD
ENDBRANCH  24  29
ENDBRANCH  18  19
BRANCH  18  31
ATOM     31  C   UNK A   2       4.921   1.893  20.195  0.00  0.00    +0.000 C 
ATOM     32  O   UNK A   2       4.660   1.083  19.322  0.00  0.00    +0.000 OA
BRANCH  31  33
ATOM     33  O   UNK A   2       5.298   1.496  21.436  0.00  0.00    +0.000 OA
ATOM     34  H   UNK A   2       5.091   2.166  22.115  0.00  0.00    +0.000 HD
ENDBRANCH  31  33
ENDBRANCH  18  31
ENDBRANCH   3  18
TORSDOF 12
ENDMDL
MODEL 7
REMARK VINA RESULT:      -6.7      3.886      8.551
REMARK  Name = 
REMARK  12 active torsions:
REMARK  status: ('A' for Active; 'I' for Inactive)
REMARK    1  A    between atoms: N_1  and  CA_2
REMARK    2  A    between atoms: CA_2  and  CB_3
REMARK    3  A    between atoms: CA_2  and  C_11
REMARK    4  A    between atoms: CB_3  and  CG_4
REMARK    5  A    between atoms: CZ_7  and  OH_8
REMARK    6  A    between atoms: N_13  and  C_14
REMARK    7  A    between atoms: C_14  and  C_15
REMARK    8  A    between atoms: C_14  and  C_18
REMARK    9  A    between atoms: C_15  and  O_17
REMARK   10  A    between atoms: C_21  and  O_22
REMARK   11  A    between atoms: C_23  and  O_24
REMARK   12  A    between atoms: C_25  and  O_26
REMARK                            x       y       z     vdW  Elec       q    Type
REMARK                         _______ _______ _______ _____ _____    ______ ____
ROOT
ATOM      1  C   TYR A   1       1.154   9.464  19.477  0.00  0.00    +0.000 C 
ATOM      2  O   TYR A   1       1.026   9.429  20.685  0.00  0.00    +0.000 OA
ATOM      3  N   UNK A   2       0.785  10.586  18.725  0.00  0.00    +0.000 N 
ATOM      4  H   UNK A   2       0.892  10.542  17.716  0.00  0.00    +0.000 HD
ENDROOT
BRANCH   1   5
ATOM      5  CA  TYR A   1       1.629   8.248  18.646  0.00  0.00    +0.000 C 
BRANCH   5   6
ATOM      6  N   TYR A   1       2.397   8.731  17.475  0.00  0.00    +0.000 NA
ATOM      7  H1  TYR A   1       2.373   9.752  17.489  0.00  0.00    +0.000 HD
ATOM      8  H2  TYR A   1       1.869   8.475  16.640  0.00  0.00    +0.000 HD
ENDBRANCH   5   6
BRANCH   5   9
ATOM      9  CB  TYR A   1       2.443   7.257  19.521  0.00  0.00    +0.000 C 
BRANCH   9  10
ATOM     10  CG  TYR A   1       2.059   5.803  19.306  0.00  0.00    +0.000 A 
ATOM     11  CD1 TYR A   1       1.557   5.035  20.369  0.00  0.00    +0.000 A 
ATOM     12  CE1 TYR A   1       1.168   3.709  20.168  0.00  0.00    +0.000 A 
ATOM     13  CZ  TYR A   1       1.298   3.142  18.906  0.00  0.00    +0.000 A 
ATOM     14  CE2 TYR A   1       1.808   3.879  17.844  0.00  0.00    +0.000 A 
ATOM     15  CD2 TYR A   1       2.186   5.209  18.042  0.00  0.00    +0.000 A 
BRANCH  13  16
ATOM     16  OH  TYR A   1       0.930   1.851  18.670  0.00  0.00    +0.000 OA
ATOM     17  HH  TYR A   1       1.298   1.579  17.814  0.00  0.00    +0.000 HD
ENDBRANCH  13  16
ENDBRANCH   9  10
ENDBRANCH   5   9
ENDBRANCH   1   5
BRANCH   3  18
ATOM     18  C   UNK A   2       0.407  11.851  19.385  0.00  0.00    +0.000 C 
BRANCH  18  19
ATOM     19  C   UNK A   2       1.577  12.866  19.544  0.00  0.00    +0.000 C 
ATOM     20  O   UNK A   2       1.144  13.972  20.361  0.00  0.00    +0.000 OA
ATOM     21  C   UNK A   2       2.185  14.931  20.623  0.00  0.00    +0.000 C 
ATOM     22  C   UNK A   2       2.601  15.576  19.304  0.00  0.00    +0.000 C 
ATOM     23  C   UNK A   2       3.130  14.486  18.363  0.00  0.00    +0.000 C 
ATOM     24  C   UNK A   2       2.085  13.364  18.176  0.00  0.00    +0.000 C 
BRANCH  22  25
ATOM     25  O   UNK A   2       1.459  16.196  18.684  0.00  0.00    +0.000 OA
ATOM     26  H   UNK A   2       0.848  15.476  18.433  0.00  0.00    +0.000 HD
ENDBRANCH  22  25
BRANCH  23  27
ATOM     27  O   UNK A   2       3.465  15.060  17.096  0.00  0.00    +0.000 OA
ATOM     28  H   UNK A   2       2.616  15.221  16.637  0.00  0.00    +0.000 HD
ENDBRANCH  23  27
BRANCH  24  29
ATOM     29  O   UNK A   2       2.619  12.272  17.424  0.00  0.00    +0.000 OA
ATOM     30  H   UNK A   2       1.885  11.749  17.058  0.00  0.00    +0.000 HD
ENDBRANCH  24  29
ENDBRANCH  18  19
BRANCH  18  31
ATOM     31  C   UNK A   2      -0.749  12.576  18.678  0.00  0.00    +0.000 C 
ATOM     32  O   UNK A   2      -1.128  12.297  17.553  0.00  0.00    +0.000 OA
BRANCH  31  33
ATOM     33  O   UNK A   2      -1.337  13.566  19.395  0.00  0.00    +0.000 OA
ATOM     34  H   UNK A   2      -1.347  14.414  18.912  0.00  0.00    +0.000 HD
ENDBRANCH  31  33
ENDBRANCH  18  31
ENDBRANCH   3  18
TORSDOF 12
ENDMDL
MODEL 8
REMARK VINA RESULT:      -6.7      4.175      7.145
REMARK  Name = 
REMARK  12 active torsions:
REMARK  status: ('A' for Active; 'I' for Inactive)
REMARK    1  A    between atoms: N_1  and  CA_2
REMARK    2  A    between atoms: CA_2  and  CB_3
REMARK    3  A    between atoms: CA_2  and  C_11
REMARK    4  A    between atoms: CB_3  and  CG_4
REMARK    5  A    between atoms: CZ_7  and  OH_8
REMARK    6  A    between atoms: N_13  and  C_14
REMARK    7  A    between atoms: C_14  and  C_15
REMARK    8  A    between atoms: C_14  and  C_18
REMARK    9  A    between atoms: C_15  and  O_17
REMARK   10  A    between atoms: C_21  and  O_22
REMARK   11  A    between atoms: C_23  and  O_24
REMARK   12  A    between atoms: C_25  and  O_26
REMARK                            x       y       z     vdW  Elec       q    Type
REMARK                         _______ _______ _______ _____ _____    ______ ____
ROOT
ATOM      1  C   TYR A   1       7.841   7.381  17.875  0.00  0.00    +0.000 C 
ATOM      2  O   TYR A   1       8.080   6.628  18.798  0.00  0.00    +0.000 OA
ATOM      3  N   UNK A   2       7.209   6.942  16.705  0.00  0.00    +0.000 N 
ATOM      4  H   UNK A   2       7.061   7.615  15.959  0.00  0.00    +0.000 HD
ENDROOT
BRANCH   1   5
ATOM      5  CA  TYR A   1       8.301   8.859  17.854  0.00  0.00    +0.000 C 
BRANCH   5   6
ATOM      6  N   TYR A   1       7.141   9.723  17.533  0.00  0.00    +0.000 NA
ATOM      7  H1  TYR A   1       7.488  10.521  16.997  0.00  0.00    +0.000 HD
ATOM      8  H2  TYR A   1       6.815  10.128  18.411  0.00  0.00    +0.000 HD
ENDBRANCH   5   6
BRANCH   5   9
ATOM      9  CB  TYR A   1       8.981   9.251  19.193  0.00  0.00    +0.000 C 
BRANCH   9  10
ATOM     10  CG  TYR A   1       9.643  10.618  19.158  0.00  0.00    +0.000 A 
ATOM     11  CD1 TYR A   1       9.672  11.423  20.308  0.00  0.00    +0.000 A 
ATOM     12  CE1 TYR A   1      10.313  12.664  20.292  0.00  0.00    +0.000 A 
ATOM     13  CZ  TYR A   1      10.909  13.111  19.119  0.00  0.00    +0.000 A 
ATOM     14  CE2 TYR A   1      10.877  12.337  17.965  0.00  0.00    +0.000 A 
ATOM     15  CD2 TYR A   1      10.247  11.091  17.985  0.00  0.00    +0.000 A 
BRANCH  13  16
ATOM     16  OH  TYR A   1      11.542  14.317  19.063  0.00  0.00    +0.000 OA
ATOM     17  HH  TYR A   1      12.485  14.160  18.891  0.00  0.00    +0.000 HD
ENDBRANCH  13  16
ENDBRANCH   9  10
ENDBRANCH   5   9
ENDBRANCH   1   5
BRANCH   3  18
ATOM     18  C   UNK A   2       6.628   5.587  16.619  0.00  0.00    +0.000 C 
BRANCH  18  19
ATOM     19  C   UNK A   2       5.098   5.526  16.904  0.00  0.00    +0.000 C 
ATOM     20  O   UNK A   2       4.666   6.779  17.471  0.00  0.00    +0.000 OA
ATOM     21  C   UNK A   2       3.247   6.841  17.704  0.00  0.00    +0.000 C 
ATOM     22  C   UNK A   2       2.876   5.802  18.758  0.00  0.00    +0.000 C 
ATOM     23  C   UNK A   2       3.251   4.409  18.235  0.00  0.00    +0.000 C 
ATOM     24  C   UNK A   2       4.743   4.352  17.838  0.00  0.00    +0.000 C 
BRANCH  22  25
ATOM     25  O   UNK A   2       3.618   6.048  19.967  0.00  0.00    +0.000 OA
ATOM     26  H   UNK A   2       3.921   5.178  20.294  0.00  0.00    +0.000 HD
ENDBRANCH  22  25
BRANCH  23  27
ATOM     27  O   UNK A   2       2.972   3.424  19.235  0.00  0.00    +0.000 OA
ATOM     28  H   UNK A   2       2.114   3.023  18.990  0.00  0.00    +0.000 HD
ENDBRANCH  23  27
BRANCH  24  29
ATOM     29  O   UNK A   2       5.071   3.110  17.211  0.00  0.00    +0.000 OA
ATOM     30  H   UNK A   2       4.315   2.817  16.673  0.00  0.00    +0.000 HD
ENDBRANCH  24  29
ENDBRANCH  18  19
BRANCH  18  31
ATOM     31  C   UNK A   2       6.879   4.910  15.262  0.00  0.00    +0.000 C 
ATOM     32  O   UNK A   2       6.286   3.912  14.891  0.00  0.00    +0.000 OA
BRANCH  31  33
ATOM     33  O   UNK A   2       7.818   5.504  14.483  0.00  0.00    +0.000 OA
ATOM     34  H   UNK A   2       8.702   5.488  14.896  0.00  0.00    +0.000 HD
ENDBRANCH  31  33
ENDBRANCH  18  31
ENDBRANCH   3  18
TORSDOF 12
ENDMDL
MODEL 9
REMARK VINA RESULT:      -6.7      3.162      7.106
REMARK  Name = 
REMARK  12 active torsions:
REMARK  status: ('A' for Active; 'I' for Inactive)
REMARK    1  A    between atoms: N_1  and  CA_2
REMARK    2  A    between atoms: CA_2  and  CB_3
REMARK    3  A    between atoms: CA_2  and  C_11
REMARK    4  A    between atoms: CB_3  and  CG_4
REMARK    5  A    between atoms: CZ_7  and  OH_8
REMARK    6  A    between atoms: N_13  and  C_14
REMARK    7  A    between atoms: C_14  and  C_15
REMARK    8  A    between atoms: C_14  and  C_18
REMARK    9  A    between atoms: C_15  and  O_17
REMARK   10  A    between atoms: C_21  and  O_22
REMARK   11  A    between atoms: C_23  and  O_24
REMARK   12  A    between atoms: C_25  and  O_26
REMARK                            x       y       z     vdW  Elec       q    Type
REMARK                         _______ _______ _______ _____ _____    ______ ____
ROOT
ATOM      1  C   TYR A   1       5.455   6.439  17.021  0.00  0.00    +0.000 C 
ATOM      2  O   TYR A   1       4.802   7.064  16.208  0.00  0.00    +0.000 OA
ATOM      3  N   UNK A   2       4.854   5.763  18.090  0.00  0.00    +0.000 N 
ATOM      4  H   UNK A   2       5.457   5.280  18.750  0.00  0.00    +0.000 HD
ENDROOT
BRANCH   1   5
ATOM      5  CA  TYR A   1       7.002   6.415  17.019  0.00  0.00    +0.000 C 
BRANCH   5   6
ATOM      6  N   TYR A   1       7.494   6.812  18.358  0.00  0.00    +0.000 NA
ATOM      7  H1  TYR A   1       7.171   7.765  18.538  0.00  0.00    +0.000 HD
ATOM      8  H2  TYR A   1       8.510   6.896  18.295  0.00  0.00    +0.000 HD
ENDBRANCH   5   6
BRANCH   5   9
ATOM      9  CB  TYR A   1       7.539   5.028  16.577  0.00  0.00    +0.000 C 
BRANCH   9  10
ATOM     10  CG  TYR A   1       6.960   4.547  15.258  0.00  0.00    +0.000 A 
ATOM     11  CD1 TYR A   1       5.839   3.702  15.239  0.00  0.00    +0.000 A 
ATOM     12  CE1 TYR A   1       5.280   3.287  14.028  0.00  0.00    +0.000 A 
ATOM     13  CZ  TYR A   1       5.854   3.701  12.832  0.00  0.00    +0.000 A 
ATOM     14  CE2 TYR A   1       6.974   4.524  12.828  0.00  0.00    +0.000 A 
ATOM     15  CD2 TYR A   1       7.526   4.949  14.039  0.00  0.00    +0.000 A 
BRANCH  13  16
ATOM     16  OH  TYR A   1       5.339   3.317  11.630  0.00  0.00    +0.000 OA
ATOM     17  HH  TYR A   1       5.693   3.905  10.943  0.00  0.00    +0.000 HD
ENDBRANCH  13  16
ENDBRANCH   9  10
ENDBRANCH   5   9
ENDBRANCH   1   5
BRANCH   3  18
ATOM     18  C   UNK A   2       3.388   5.616  18.168  0.00  0.00    +0.000 C 
BRANCH  18  19
ATOM     19  C   UNK A   2       2.909   4.246  18.734  0.00  0.00    +0.000 C 
ATOM     20  O   UNK A   2       1.655   4.424  19.423  0.00  0.00    +0.000 OA
ATOM     21  C   UNK A   2       1.097   3.194  19.921  0.00  0.00    +0.000 C 
ATOM     22  C   UNK A   2       2.034   2.626  20.984  0.00  0.00    +0.000 C 
ATOM     23  C   UNK A   2       3.401   2.349  20.344  0.00  0.00    +0.000 C 
ATOM     24  C   UNK A   2       3.962   3.622  19.671  0.00  0.00    +0.000 C 
BRANCH  22  25
ATOM     25  O   UNK A   2       2.214   3.587  22.040  0.00  0.00    +0.000 OA
ATOM     26  H   UNK A   2       2.795   4.289  21.687  0.00  0.00    +0.000 HD
ENDBRANCH  22  25
BRANCH  23  27
ATOM     27  O   UNK A   2       4.315   1.877  21.338  0.00  0.00    +0.000 OA
ATOM     28  H   UNK A   2       3.767   1.486  22.048  0.00  0.00    +0.000 HD
ENDBRANCH  23  27
BRANCH  24  29
ATOM     29  O   UNK A   2       5.161   3.343  18.944  0.00  0.00    +0.000 OA
ATOM     30  H   UNK A   2       5.692   4.156  18.882  0.00  0.00    +0.000 HD
ENDBRANCH  24  29
ENDBRANCH  18  19
BRANCH  18  31
ATOM     31  C   UNK A   2       2.715   6.724  18.994  0.00  0.00    +0.000 C 
ATOM     32  O   UNK A   2       2.065   7.629  18.499  0.00  0.00    +0.000 OA
BRANCH  31  33
ATOM     33  O   UNK A   2       2.888   6.632  20.337  0.00  0.00    +0.000 OA
ATOM     34  H   UNK A   2       2.172   7.073  20.831  0.00  0.00    +0.000 HD
ENDBRANCH  31  33
ENDBRANCH  18  31
ENDBRANCH   3  18
TORSDOF 12
ENDMDL
