MODEL 1
REMARK VINA RESULT:      -6.7      0.000      0.000
REMARK  Name = 
REMARK  3 active torsions:
REMARK  status: ('A' for Active; 'I' for Inactive)
REMARK    1  A    between atoms: C_1  and  C_2
REMARK    2  A    between atoms: C_7  and  C_9
REMARK    3  A    between atoms: C_9  and  N_10
REMARK                            x       y       z     vdW  Elec       q    Type
REMARK                         _______ _______ _______ _____ _____    ______ ____
ROOT
ATOM      1  C   UNL     1       1.198   2.507  19.874  0.00  0.00    +0.000 C 
ATOM      2  C   UNL     1       2.111   3.131  18.886  0.00  0.00    +0.000 A 
ATOM      3  C   UNL     1       1.945   4.315  18.196  0.00  0.00    +0.000 A 
ATOM      4  N   UNL     1       2.991   4.675  17.383  0.00  0.00    +0.000 NA
ATOM      5  C   UNL     1       3.940   3.778  17.456  0.00  0.00    +0.000 A 
ATOM      6  N   UNL     1       5.171   3.801  16.847  0.00  0.00    +0.000 N 
ATOM      7  C   UNL     1       5.592   4.956  16.214  0.00  0.00    +0.000 C 
ATOM      8  O   UNL     1       4.980   6.022  16.216  0.00  0.00    +0.000 OA
ATOM      9  S   UNL     1       3.615   2.423  18.443  0.00  0.00    +0.000 S 
ATOM     10  H   UNL     1       5.761   2.991  16.944  0.00  0.00    +0.000 HD
ENDROOT
BRANCH   7  11
ATOM     11  C   UNL     1       6.985   4.851  15.578  0.00  0.00    +0.000 C 
BRANCH  11  12
ATOM     12  N   UNL     1       6.976   4.457  14.171  0.00  0.00    +0.000 N 
ATOM     13  C   UNL     1       5.880   3.741  13.553  0.00  0.00    +0.000 C 
ATOM     14  C   UNL     1       6.400   3.446  12.160  0.00  0.00    +0.000 C 
ATOM     15  C   UNL     1       7.297   4.634  11.853  0.00  0.00    +0.000 C 
ATOM     16  C   UNL     1       7.772   5.070  13.218  0.00  0.00    +0.000 C 
ATOM     17  O   UNL     1       8.659   5.882  13.431  0.00  0.00    +0.000 OA
ENDBRANCH  11  12
ENDBRANCH   7  11
TORSDOF 2
ENDMDL
MODEL 2
REMARK VINA RESULT:      -6.6      4.148      7.038
REMARK  Name = 
REMARK  3 active torsions:
REMARK  status: ('A' for Active; 'I' for Inactive)
REMARK    1  A    between atoms: C_1  and  C_2
REMARK    2  A    between atoms: C_7  and  C_9
REMARK    3  A    between atoms: C_9  and  N_10
REMARK                            x       y       z     vdW  Elec       q    Type
REMARK                         _______ _______ _______ _____ _____    ______ ____
ROOT
ATOM      1  C   UNL     1       8.060   8.597  17.701  0.00  0.00    +0.000 C 
ATOM      2  C   UNL     1       7.467   7.263  17.955  0.00  0.00    +0.000 A 
ATOM      3  C   UNL     1       7.900   6.285  18.828  0.00  0.00    +0.000 A 
ATOM      4  N   UNL     1       7.113   5.163  18.895  0.00  0.00    +0.000 NA
ATOM      5  C   UNL     1       6.093   5.287  18.086  0.00  0.00    +0.000 A 
ATOM      6  N   UNL     1       5.046   4.415  17.910  0.00  0.00    +0.000 N 
ATOM      7  C   UNL     1       4.896   3.351  18.779  0.00  0.00    +0.000 C 
ATOM      8  O   UNL     1       5.589   3.154  19.776  0.00  0.00    +0.000 OA
ATOM      9  S   UNL     1       6.047   6.715  17.151  0.00  0.00    +0.000 S 
ATOM     10  H   UNL     1       4.376   4.622  17.187  0.00  0.00    +0.000 HD
ENDROOT
BRANCH   7  11
ATOM     11  C   UNL     1       3.687   2.456  18.474  0.00  0.00    +0.000 C 
BRANCH  11  12
ATOM     12  N   UNL     1       2.571   2.612  19.404  0.00  0.00    +0.000 N 
ATOM     13  C   UNL     1       2.739   2.686  20.840  0.00  0.00    +0.000 C 
ATOM     14  C   UNL     1       1.314   2.697  21.356  0.00  0.00    +0.000 C 
ATOM     15  C   UNL     1       0.543   3.420  20.263  0.00  0.00    +0.000 C 
ATOM     16  C   UNL     1       1.342   3.117  19.018  0.00  0.00    +0.000 C 
ATOM     17  O   UNL     1       0.982   3.351  17.875  0.00  0.00    +0.000 OA
ENDBRANCH  11  12
ENDBRANCH   7  11
TORSDOF 2
ENDMDL
MODEL 3
REMARK VINA RESULT:      -6.5      3.598      6.932
REMARK  Name = 
REMARK  3 active torsions:
REMARK  status: ('A' for Active; 'I' for Inactive)
REMARK    1  A    between atoms: C_1  and  C_2
REMARK    2  A    between atoms: C_7  and  C_9
REMARK    3  A    between atoms: C_9  and  N_10
REMARK                            x       y       z     vdW  Elec       q    Type
REMARK                         _______ _______ _______ _____ _____    ______ ____
ROOT
ATOM      1  C   UNL     1       7.970   7.955  17.454  0.00  0.00    +0.000 C 
ATOM      2  C   UNL     1       6.890   6.940  17.497  0.00  0.00    +0.000 A 
ATOM      3  C   UNL     1       5.831   6.779  16.627  0.00  0.00    +0.000 A 
ATOM      4  N   UNL     1       5.014   5.707  16.885  0.00  0.00    +0.000 NA
ATOM      5  C   UNL     1       5.446   5.060  17.936  0.00  0.00    +0.000 A 
ATOM      6  N   UNL     1       4.947   3.901  18.478  0.00  0.00    +0.000 N 
ATOM      7  C   UNL     1       3.989   3.186  17.784  0.00  0.00    +0.000 C 
ATOM      8  O   UNL     1       3.590   3.459  16.653  0.00  0.00    +0.000 OA
ATOM      9  S   UNL     1       6.811   5.727  18.716  0.00  0.00    +0.000 S 
ATOM     10  H   UNL     1       5.350   3.571  19.340  0.00  0.00    +0.000 HD
ENDROOT
BRANCH   7  11
ATOM     11  C   UNL     1       3.517   1.912  18.498  0.00  0.00    +0.000 C 
BRANCH  11  12
ATOM     12  N   UNL     1       2.603   2.148  19.612  0.00  0.00    +0.000 N 
ATOM     13  C   UNL     1       3.049   2.473  20.951  0.00  0.00    +0.000 C 
ATOM     14  C   UNL     1       1.764   2.477  21.754  0.00  0.00    +0.000 C 
ATOM     15  C   UNL     1       0.720   2.957  20.757  0.00  0.00    +0.000 C 
ATOM     16  C   UNL     1       1.277   2.502  19.429  0.00  0.00    +0.000 C 
ATOM     17  O   UNL     1       0.672   2.517  18.368  0.00  0.00    +0.000 OA
ENDBRANCH  11  12
ENDBRANCH   7  11
TORSDOF 2
ENDMDL
MODEL 4
REMARK VINA RESULT:      -6.4      2.710      6.889
REMARK  Name = 
REMARK  3 active torsions:
REMARK  status: ('A' for Active; 'I' for Inactive)
REMARK    1  A    between atoms: C_1  and  C_2
REMARK    2  A    between atoms: C_7  and  C_9
REMARK    3  A    between atoms: C_9  and  N_10
REMARK                            x       y       z     vdW  Elec       q    Type
REMARK                         _______ _______ _______ _____ _____    ______ ____
ROOT
ATOM      1  C   UNL     1       7.529   4.950  13.583  0.00  0.00    +0.000 C 
ATOM      2  C   UNL     1       6.906   4.894  14.927  0.00  0.00    +0.000 A 
ATOM      3  C   UNL     1       7.501   4.588  16.135  0.00  0.00    +0.000 A 
ATOM      4  N   UNL     1       6.682   4.672  17.233  0.00  0.00    +0.000 NA
ATOM      5  C   UNL     1       5.482   5.038  16.867  0.00  0.00    +0.000 A 
ATOM      6  N   UNL     1       4.397   5.294  17.669  0.00  0.00    +0.000 N 
ATOM      7  C   UNL     1       4.568   5.367  19.038  0.00  0.00    +0.000 C 
ATOM      8  O   UNL     1       5.651   5.300  19.616  0.00  0.00    +0.000 OA
ATOM      9  S   UNL     1       5.240   5.239  15.188  0.00  0.00    +0.000 S 
ATOM     10  H   UNL     1       3.516   5.493  17.222  0.00  0.00    +0.000 HD
ENDROOT
BRANCH   7  11
ATOM     11  C   UNL     1       3.279   5.662  19.818  0.00  0.00    +0.000 C 
BRANCH  11  12
ATOM     12  N   UNL     1       2.459   4.484  20.095  0.00  0.00    +0.000 N 
ATOM     13  C   UNL     1       2.157   4.024  21.434  0.00  0.00    +0.000 C 
ATOM     14  C   UNL     1       1.420   2.722  21.194  0.00  0.00    +0.000 C 
ATOM     15  C   UNL     1       0.688   2.960  19.883  0.00  0.00    +0.000 C 
ATOM     16  C   UNL     1       1.567   3.962  19.174  0.00  0.00    +0.000 C 
ATOM     17  O   UNL     1       1.454   4.299  18.006  0.00  0.00    +0.000 OA
ENDBRANCH  11  12
ENDBRANCH   7  11
TORSDOF 2
ENDMDL
MODEL 5
REMARK VINA RESULT:      -6.4      1.108      1.144
REMARK  Name = 
REMARK  3 active torsions:
REMARK  status: ('A' for Active; 'I' for Inactive)
REMARK    1  A    between atoms: C_1  and  C_2
REMARK    2  A    between atoms: C_7  and  C_9
REMARK    3  A    between atoms: C_9  and  N_10
REMARK                            x       y       z     vdW  Elec       q    Type
REMARK                         _______ _______ _______ _____ _____    ______ ____
ROOT
ATOM      1  C   UNL     1       1.474   4.596  20.479  0.00  0.00    +0.000 C 
ATOM      2  C   UNL     1       2.429   4.896  19.386  0.00  0.00    +0.000 A 
ATOM      3  C   UNL     1       2.474   6.009  18.570  0.00  0.00    +0.000 A 
ATOM      4  N   UNL     1       3.515   6.041  17.675  0.00  0.00    +0.000 NA
ATOM      5  C   UNL     1       4.252   4.970  17.810  0.00  0.00    +0.000 A 
ATOM      6  N   UNL     1       5.414   4.658  17.149  0.00  0.00    +0.000 N 
ATOM      7  C   UNL     1       6.029   5.618  16.367  0.00  0.00    +0.000 C 
ATOM      8  O   UNL     1       5.660   6.787  16.271  0.00  0.00    +0.000 OA
ATOM      9  S   UNL     1       3.713   3.831  18.963  0.00  0.00    +0.000 S 
ATOM     10  H   UNL     1       5.823   3.752  17.314  0.00  0.00    +0.000 HD
ENDROOT
BRANCH   7  11
ATOM     11  C   UNL     1       7.320   5.142  15.687  0.00  0.00    +0.000 C 
BRANCH  11  12
ATOM     12  N   UNL     1       7.138   4.663  14.318  0.00  0.00    +0.000 N 
ATOM     13  C   UNL     1       5.955   3.959  13.873  0.00  0.00    +0.000 C 
ATOM     14  C   UNL     1       6.303   3.557  12.454  0.00  0.00    +0.000 C 
ATOM     15  C   UNL     1       7.202   4.685  11.972  0.00  0.00    +0.000 C 
ATOM     16  C   UNL     1       7.843   5.183  13.245  0.00  0.00    +0.000 C 
ATOM     17  O   UNL     1       8.777   5.968  13.306  0.00  0.00    +0.000 OA
ENDBRANCH  11  12
ENDBRANCH   7  11
TORSDOF 2
ENDMDL
MODEL 6
REMARK VINA RESULT:      -6.3      3.024      3.871
REMARK  Name = 
REMARK  3 active torsions:
REMARK  status: ('A' for Active; 'I' for Inactive)
REMARK    1  A    between atoms: C_1  and  C_2
REMARK    2  A    between atoms: C_7  and  C_9
REMARK    3  A    between atoms: C_9  and  N_10
REMARK                            x       y       z     vdW  Elec       q    Type
REMARK                         _______ _______ _______ _____ _____    ______ ____
ROOT
ATOM      1  C   UNL     1       1.251   2.412  22.093  0.00  0.00    +0.000 C 
ATOM      2  C   UNL     1       1.779   3.112  20.898  0.00  0.00    +0.000 A 
ATOM      3  C   UNL     1       1.199   4.140  20.182  0.00  0.00    +0.000 A 
ATOM      4  N   UNL     1       1.951   4.635  19.146  0.00  0.00    +0.000 NA
ATOM      5  C   UNL     1       3.088   3.994  19.076  0.00  0.00    +0.000 A 
ATOM      6  N   UNL     1       4.138   4.230  18.223  0.00  0.00    +0.000 N 
ATOM      7  C   UNL     1       4.134   5.370  17.441  0.00  0.00    +0.000 C 
ATOM      8  O   UNL     1       3.288   6.260  17.502  0.00  0.00    +0.000 OA
ATOM      9  S   UNL     1       3.301   2.722  20.196  0.00  0.00    +0.000 S 
ATOM     10  H   UNL     1       4.918   3.592  18.246  0.00  0.00    +0.000 HD
ENDROOT
BRANCH   7  11
ATOM     11  C   UNL     1       5.364   5.515  16.535  0.00  0.00    +0.000 C 
BRANCH  11  12
ATOM     12  N   UNL     1       6.483   6.229  17.147  0.00  0.00    +0.000 N 
ATOM     13  C   UNL     1       6.559   7.672  17.221  0.00  0.00    +0.000 C 
ATOM     14  C   UNL     1       7.939   7.918  17.796  0.00  0.00    +0.000 C 
ATOM     15  C   UNL     1       8.167   6.720  18.705  0.00  0.00    +0.000 C 
ATOM     16  C   UNL     1       7.336   5.636  18.062  0.00  0.00    +0.000 C 
ATOM     17  O   UNL     1       7.368   4.452  18.359  0.00  0.00    +0.000 OA
ENDBRANCH  11  12
ENDBRANCH   7  11
TORSDOF 2
ENDMDL
MODEL 7
REMARK VINA RESULT:      -6.3      2.706      3.506
REMARK  Name = 
REMARK  3 active torsions:
REMARK  status: ('A' for Active; 'I' for Inactive)
REMARK    1  A    between atoms: C_1  and  C_2
REMARK    2  A    between atoms: C_7  and  C_9
REMARK    3  A    between atoms: C_9  and  N_10
REMARK                            x       y       z     vdW  Elec       q    Type
REMARK                         _______ _______ _______ _____ _____    ______ ____
ROOT
ATOM      1  C   UNL     1       1.287   2.442  22.006  0.00  0.00    +0.000 C 
ATOM      2  C   UNL     1       1.964   2.631  20.700  0.00  0.00    +0.000 A 
ATOM      3  C   UNL     1       1.399   2.677  19.442  0.00  0.00    +0.000 A 
ATOM      4  N   UNL     1       2.273   2.923  18.412  0.00  0.00    +0.000 NA
ATOM      5  C   UNL     1       3.485   3.064  18.881  0.00  0.00    +0.000 A 
ATOM      6  N   UNL     1       4.626   3.381  18.186  0.00  0.00    +0.000 N 
ATOM      7  C   UNL     1       4.527   3.785  16.868  0.00  0.00    +0.000 C 
ATOM      8  O   UNL     1       3.471   3.969  16.267  0.00  0.00    +0.000 OA
ATOM      9  S   UNL     1       3.666   2.846  20.565  0.00  0.00    +0.000 S 
ATOM     10  H   UNL     1       5.500   3.376  18.687  0.00  0.00    +0.000 HD
ENDROOT
BRANCH   7  11
ATOM     11  C   UNL     1       5.874   4.112  16.209  0.00  0.00    +0.000 C 
BRANCH  11  12
ATOM     12  N   UNL     1       6.559   5.270  16.779  0.00  0.00    +0.000 N 
ATOM     13  C   UNL     1       5.947   6.576  16.896  0.00  0.00    +0.000 C 
ATOM     14  C   UNL     1       7.081   7.447  17.398  0.00  0.00    +0.000 C 
ATOM     15  C   UNL     1       7.909   6.499  18.253  0.00  0.00    +0.000 C 
ATOM     16  C   UNL     1       7.649   5.152  17.623  0.00  0.00    +0.000 C 
ATOM     17  O   UNL     1       8.258   4.124  17.879  0.00  0.00    +0.000 OA
ENDBRANCH  11  12
ENDBRANCH   7  11
TORSDOF 2
ENDMDL
MODEL 8
REMARK VINA RESULT:      -6.2      1.275      1.400
REMARK  Name = 
REMARK  3 active torsions:
REMARK  status: ('A' for Active; 'I' for Inactive)
REMARK    1  A    between atoms: C_1  and  C_2
REMARK    2  A    between atoms: C_7  and  C_9
REMARK    3  A    between atoms: C_9  and  N_10
REMARK                            x       y       z     vdW  Elec       q    Type
REMARK                         _______ _______ _______ _____ _____    ______ ____
ROOT
ATOM      1  C   UNL     1       1.201   2.382  19.462  0.00  0.00    +0.000 C 
ATOM      2  C   UNL     1       2.460   3.026  19.018  0.00  0.00    +0.000 A 
ATOM      3  C   UNL     1       3.684   3.044  19.655  0.00  0.00    +0.000 A 
ATOM      4  N   UNL     1       4.695   3.675  18.974  0.00  0.00    +0.000 NA
ATOM      5  C   UNL     1       4.247   4.129  17.833  0.00  0.00    +0.000 A 
ATOM      6  N   UNL     1       4.954   4.760  16.840  0.00  0.00    +0.000 N 
ATOM      7  C   UNL     1       6.334   4.796  16.909  0.00  0.00    +0.000 C 
ATOM      8  O   UNL     1       7.011   4.226  17.763  0.00  0.00    +0.000 OA
ATOM      9  S   UNL     1       2.582   3.890  17.535  0.00  0.00    +0.000 S 
ATOM     10  H   UNL     1       4.442   5.120  16.050  0.00  0.00    +0.000 HD
ENDROOT
BRANCH   7  11
ATOM     11  C   UNL     1       7.003   5.528  15.737  0.00  0.00    +0.000 C 
BRANCH  11  12
ATOM     12  N   UNL     1       6.915   4.826  14.459  0.00  0.00    +0.000 N 
ATOM     13  C   UNL     1       5.745   4.086  14.037  0.00  0.00    +0.000 C 
ATOM     14  C   UNL     1       6.192   3.438  12.743  0.00  0.00    +0.000 C 
ATOM     15  C   UNL     1       7.171   4.443  12.157  0.00  0.00    +0.000 C 
ATOM     16  C   UNL     1       7.725   5.136  13.379  0.00  0.00    +0.000 C 
ATOM     17  O   UNL     1       8.682   5.895  13.387  0.00  0.00    +0.000 OA
ENDBRANCH  11  12
ENDBRANCH   7  11
TORSDOF 2
ENDMDL
MODEL 9
REMARK VINA RESULT:      -6.1      1.603      1.783
REMARK  Name = 
REMARK  3 active torsions:
REMARK  status: ('A' for Active; 'I' for Inactive)
REMARK    1  A    between atoms: C_1  and  C_2
REMARK    2  A    between atoms: C_7  and  C_9
REMARK    3  A    between atoms: C_9  and  N_10
REMARK                            x       y       z     vdW  Elec       q    Type
REMARK                         _______ _______ _______ _____ _____    ______ ____
ROOT
ATOM      1  C   UNL     1       1.747   3.181  21.573  0.00  0.00    +0.000 C 
ATOM      2  C   UNL     1       2.682   3.431  20.450  0.00  0.00    +0.000 A 
ATOM      3  C   UNL     1       3.786   2.693  20.075  0.00  0.00    +0.000 A 
ATOM      4  N   UNL     1       4.436   3.135  18.949  0.00  0.00    +0.000 NA
ATOM      5  C   UNL     1       3.832   4.192  18.474  0.00  0.00    +0.000 A 
ATOM      6  N   UNL     1       4.131   4.891  17.330  0.00  0.00    +0.000 N 
ATOM      7  C   UNL     1       5.050   4.371  16.438  0.00  0.00    +0.000 C 
ATOM      8  O   UNL     1       5.580   3.266  16.540  0.00  0.00    +0.000 OA
ATOM      9  S   UNL     1       2.498   4.762  19.375  0.00  0.00    +0.000 S 
ATOM     10  H   UNL     1       3.614   5.735  17.143  0.00  0.00    +0.000 HD
ENDROOT
BRANCH   7  11
ATOM     11  C   UNL     1       5.292   5.247  15.201  0.00  0.00    +0.000 C 
BRANCH  11  12
ATOM     12  N   UNL     1       5.824   4.527  14.047  0.00  0.00    +0.000 N 
ATOM     13  C   UNL     1       4.989   3.827  13.094  0.00  0.00    +0.000 C 
ATOM     14  C   UNL     1       5.993   3.138  12.193  0.00  0.00    +0.000 C 
ATOM     15  C   UNL     1       7.177   4.093  12.179  0.00  0.00    +0.000 C 
ATOM     16  C   UNL     1       7.077   4.785  13.518  0.00  0.00    +0.000 C 
ATOM     17  O   UNL     1       7.934   5.506  14.006  0.00  0.00    +0.000 OA
ENDBRANCH  11  12
ENDBRANCH   7  11
TORSDOF 2
ENDMDL
