MODEL 1
REMARK VINA RESULT:      -7.9      0.000      0.000
REMARK  Name = 
REMARK  8 active torsions:
REMARK  status: ('A' for Active; 'I' for Inactive)
REMARK    1  A    between atoms: C_4  and  C_5
REMARK    2  A    between atoms: C_8  and  O_9
REMARK    3  A    between atoms: C_10  and  O_11
REMARK    4  A    between atoms: C_14  and  O_15
REMARK    5  A    between atoms: C_22  and  O_23
REMARK    6  A    between atoms: C_24  and  C_25
REMARK    7  A    between atoms: C_28  and  O_29
REMARK    8  A    between atoms: C_30  and  O_31
REMARK                            x       y       z     vdW  Elec       q    Type
REMARK                         _______ _______ _______ _____ _____    ______ ____
ROOT
ATOM      1  O   UNL     1       0.782   3.140  20.989  0.00  0.00    +0.000 OA
ATOM      2  C   UNL     1       1.471   4.082  20.613  0.00  0.00    +0.000 C 
ATOM      3  C   UNL     1       2.833   3.922  20.025  0.00  0.00    +0.000 C 
ATOM      4  C   UNL     1       3.023   4.781  18.775  0.00  0.00    +0.000 C 
ATOM      5  C   UNL     1       2.470   6.181  18.969  0.00  0.00    +0.000 A 
ATOM      6  C   UNL     1       2.727   7.258  18.109  0.00  0.00    +0.000 A 
ATOM      7  C   UNL     1       2.307   8.550  18.425  0.00  0.00    +0.000 A 
ATOM      8  C   UNL     1       1.581   8.793  19.587  0.00  0.00    +0.000 A 
ATOM      9  C   UNL     1       1.223   7.737  20.421  0.00  0.00    +0.000 A 
ATOM     10  C   UNL     1       1.644   6.442  20.073  0.00  0.00    +0.000 A 
ATOM     11  O   UNL     1       1.110   5.393  20.851  0.00  0.00    +0.000 OA
ATOM     12  C   UNL     1       0.392   7.981  21.653  0.00  0.00    +0.000 C 
ATOM     13  C   UNL     1       0.488   9.439  22.094  0.00  0.00    +0.000 C 
ATOM     14  C   UNL     1       0.316  10.357  20.864  0.00  0.00    +0.000 C 
ATOM     15  O   UNL     1       1.296  10.103  19.843  0.00  0.00    +0.000 OA
ENDROOT
BRANCH   4  16
ATOM     16  C   UNL     1       4.519   4.720  18.438  0.00  0.00    +0.000 A 
ATOM     17  C   UNL     1       4.971   4.291  17.172  0.00  0.00    +0.000 A 
ATOM     18  C   UNL     1       6.334   4.234  16.867  0.00  0.00    +0.000 A 
ATOM     19  C   UNL     1       7.255   4.651  17.814  0.00  0.00    +0.000 A 
ATOM     20  C   UNL     1       6.823   5.117  19.054  0.00  0.00    +0.000 A 
ATOM     21  C   UNL     1       5.470   5.147  19.379  0.00  0.00    +0.000 A 
BRANCH  19  22
ATOM     22  O   UNL     1       8.599   4.623  17.573  0.00  0.00    +0.000 OA
ATOM     23  H   UNL     1       8.807   5.322  16.929  0.00  0.00    +0.000 HD
ENDBRANCH  19  22
BRANCH  20  24
ATOM     24  O   UNL     1       7.737   5.559  19.967  0.00  0.00    +0.000 OA
ATOM     25  H   UNL     1       7.323   6.350  20.367  0.00  0.00    +0.000 HD
ENDBRANCH  20  24
ENDBRANCH   4  16
BRANCH  14  26
ATOM     26  C   UNL     1       0.414  11.820  21.269  0.00  0.00    +0.000 A 
ATOM     27  C   UNL     1      -0.524  12.387  22.152  0.00  0.00    +0.000 A 
ATOM     28  C   UNL     1      -0.517  13.755  22.437  0.00  0.00    +0.000 A 
ATOM     29  C   UNL     1       0.444  14.560  21.843  0.00  0.00    +0.000 A 
ATOM     30  C   UNL     1       1.399  14.005  20.996  0.00  0.00    +0.000 A 
ATOM     31  C   UNL     1       1.397  12.648  20.702  0.00  0.00    +0.000 A 
BRANCH  29  32
ATOM     32  O   UNL     1       0.476  15.911  22.050  0.00  0.00    +0.000 OA
ATOM     33  H   UNL     1       1.283  16.114  22.555  0.00  0.00    +0.000 HD
ENDBRANCH  29  32
BRANCH  30  34
ATOM     34  O   UNL     1       2.345  14.810  20.424  0.00  0.00    +0.000 OA
ATOM     35  H   UNL     1       2.593  14.344  19.602  0.00  0.00    +0.000 HD
ENDBRANCH  30  34
ENDBRANCH  14  26
BRANCH   6  36
ATOM     36  O   UNL     1       3.398   7.148  16.923  0.00  0.00    +0.000 OA
ATOM     37  H   UNL     1       2.867   7.497  16.189  0.00  0.00    +0.000 HD
ENDBRANCH   6  36
BRANCH  13  38
ATOM     38  O   UNL     1       1.751   9.626  22.759  0.00  0.00    +0.000 OA
ATOM     39  H   UNL     1       1.557   9.857  23.684  0.00  0.00    +0.000 HD
ENDBRANCH  13  38
TORSDOF 8
ENDMDL
MODEL 2
REMARK VINA RESULT:      -7.9      0.519      1.191
REMARK  Name = 
REMARK  8 active torsions:
REMARK  status: ('A' for Active; 'I' for Inactive)
REMARK    1  A    between atoms: C_4  and  C_5
REMARK    2  A    between atoms: C_8  and  O_9
REMARK    3  A    between atoms: C_10  and  O_11
REMARK    4  A    between atoms: C_14  and  O_15
REMARK    5  A    between atoms: C_22  and  O_23
REMARK    6  A    between atoms: C_24  and  C_25
REMARK    7  A    between atoms: C_28  and  O_29
REMARK    8  A    between atoms: C_30  and  O_31
REMARK                            x       y       z     vdW  Elec       q    Type
REMARK                         _______ _______ _______ _____ _____    ______ ____
ROOT
ATOM      1  O   UNL     1       0.827   3.095  21.024  0.00  0.00    +0.000 OA
ATOM      2  C   UNL     1       1.505   4.040  20.636  0.00  0.00    +0.000 C 
ATOM      3  C   UNL     1       2.869   3.887  20.050  0.00  0.00    +0.000 C 
ATOM      4  C   UNL     1       3.050   4.732  18.790  0.00  0.00    +0.000 C 
ATOM      5  C   UNL     1       2.481   6.129  18.965  0.00  0.00    +0.000 A 
ATOM      6  C   UNL     1       2.727   7.197  18.091  0.00  0.00    +0.000 A 
ATOM      7  C   UNL     1       2.293   8.488  18.390  0.00  0.00    +0.000 A 
ATOM      8  C   UNL     1       1.563   8.738  19.549  0.00  0.00    +0.000 A 
ATOM      9  C   UNL     1       1.217   7.689  20.396  0.00  0.00    +0.000 A 
ATOM     10  C   UNL     1       1.652   6.395  20.065  0.00  0.00    +0.000 A 
ATOM     11  O   UNL     1       1.129   5.350  20.857  0.00  0.00    +0.000 OA
ATOM     12  C   UNL     1       0.383   7.939  21.626  0.00  0.00    +0.000 C 
ATOM     13  C   UNL     1       0.461   9.404  22.047  0.00  0.00    +0.000 C 
ATOM     14  C   UNL     1       0.280  10.304  20.805  0.00  0.00    +0.000 C 
ATOM     15  O   UNL     1       1.264  10.048  19.788  0.00  0.00    +0.000 OA
ENDROOT
BRANCH   4  16
ATOM     16  C   UNL     1       4.547   4.684  18.454  0.00  0.00    +0.000 A 
ATOM     17  C   UNL     1       5.002   4.281  17.180  0.00  0.00    +0.000 A 
ATOM     18  C   UNL     1       6.366   4.236  16.876  0.00  0.00    +0.000 A 
ATOM     19  C   UNL     1       7.284   4.637  17.833  0.00  0.00    +0.000 A 
ATOM     20  C   UNL     1       6.849   5.076  19.082  0.00  0.00    +0.000 A 
ATOM     21  C   UNL     1       5.495   5.095  19.405  0.00  0.00    +0.000 A 
BRANCH  19  22
ATOM     22  O   UNL     1       8.628   4.619  17.593  0.00  0.00    +0.000 OA
ATOM     23  H   UNL     1       8.824   5.281  16.908  0.00  0.00    +0.000 HD
ENDBRANCH  19  22
BRANCH  20  24
ATOM     24  O   UNL     1       7.760   5.503  20.005  0.00  0.00    +0.000 OA
ATOM     25  H   UNL     1       7.226   5.967  20.682  0.00  0.00    +0.000 HD
ENDBRANCH  20  24
ENDBRANCH   4  16
BRANCH  14  26
ATOM     26  C   UNL     1       0.362  11.773  21.192  0.00  0.00    +0.000 A 
ATOM     27  C   UNL     1       1.398  12.591  20.702  0.00  0.00    +0.000 A 
ATOM     28  C   UNL     1       1.553  13.907  21.144  0.00  0.00    +0.000 A 
ATOM     29  C   UNL     1       0.657  14.413  22.074  0.00  0.00    +0.000 A 
ATOM     30  C   UNL     1      -0.393  13.627  22.540  0.00  0.00    +0.000 A 
ATOM     31  C   UNL     1      -0.552  12.315  22.111  0.00  0.00    +0.000 A 
BRANCH  29  32
ATOM     32  O   UNL     1       0.782  15.680  22.575  0.00  0.00    +0.000 OA
ATOM     33  H   UNL     1       0.099  16.232  22.157  0.00  0.00    +0.000 HD
ENDBRANCH  29  32
BRANCH  30  34
ATOM     34  O   UNL     1      -1.273  14.142  23.450  0.00  0.00    +0.000 OA
ATOM     35  H   UNL     1      -1.409  13.417  24.090  0.00  0.00    +0.000 HD
ENDBRANCH  30  34
ENDBRANCH  14  26
BRANCH   6  36
ATOM     36  O   UNL     1       3.399   7.079  16.908  0.00  0.00    +0.000 OA
ATOM     37  H   UNL     1       3.642   6.155  16.736  0.00  0.00    +0.000 HD
ENDBRANCH   6  36
BRANCH  13  38
ATOM     38  O   UNL     1       1.722   9.613  22.710  0.00  0.00    +0.000 OA
ATOM     39  H   UNL     1       2.400   9.701  22.016  0.00  0.00    +0.000 HD
ENDBRANCH  13  38
TORSDOF 8
ENDMDL
MODEL 3
REMARK VINA RESULT:      -7.8      0.577      1.226
REMARK  Name = 
REMARK  8 active torsions:
REMARK  status: ('A' for Active; 'I' for Inactive)
REMARK    1  A    between atoms: C_4  and  C_5
REMARK    2  A    between atoms: C_8  and  O_9
REMARK    3  A    between atoms: C_10  and  O_11
REMARK    4  A    between atoms: C_14  and  O_15
REMARK    5  A    between atoms: C_22  and  O_23
REMARK    6  A    between atoms: C_24  and  C_25
REMARK    7  A    between atoms: C_28  and  O_29
REMARK    8  A    between atoms: C_30  and  O_31
REMARK                            x       y       z     vdW  Elec       q    Type
REMARK                         _______ _______ _______ _____ _____    ______ ____
ROOT
ATOM      1  O   UNL     1       0.745   3.163  21.008  0.00  0.00    +0.000 OA
ATOM      2  C   UNL     1       1.430   4.095  20.602  0.00  0.00    +0.000 C 
ATOM      3  C   UNL     1       2.766   3.916  19.962  0.00  0.00    +0.000 C 
ATOM      4  C   UNL     1       2.918   4.767  18.702  0.00  0.00    +0.000 C 
ATOM      5  C   UNL     1       2.390   6.175  18.911  0.00  0.00    +0.000 A 
ATOM      6  C   UNL     1       2.627   7.245  18.036  0.00  0.00    +0.000 A 
ATOM      7  C   UNL     1       2.235   8.544  18.362  0.00  0.00    +0.000 A 
ATOM      8  C   UNL     1       1.557   8.800  19.550  0.00  0.00    +0.000 A 
ATOM      9  C   UNL     1       1.220   7.752  20.402  0.00  0.00    +0.000 A 
ATOM     10  C   UNL     1       1.611   6.451  20.044  0.00  0.00    +0.000 A 
ATOM     11  O   UNL     1       1.095   5.412  20.847  0.00  0.00    +0.000 OA
ATOM     12  C   UNL     1       0.440   8.011  21.665  0.00  0.00    +0.000 C 
ATOM     13  C   UNL     1       0.570   9.470  22.095  0.00  0.00    +0.000 C 
ATOM     14  C   UNL     1       0.363  10.385  20.868  0.00  0.00    +0.000 C 
ATOM     15  O   UNL     1       1.299  10.115  19.811  0.00  0.00    +0.000 OA
ENDROOT
BRANCH   4  16
ATOM     16  C   UNL     1       4.399   4.687  18.307  0.00  0.00    +0.000 A 
ATOM     17  C   UNL     1       5.414   5.173  19.159  0.00  0.00    +0.000 A 
ATOM     18  C   UNL     1       6.763   5.102  18.798  0.00  0.00    +0.000 A 
ATOM     19  C   UNL     1       7.108   4.501  17.599  0.00  0.00    +0.000 A 
ATOM     20  C   UNL     1       6.121   3.978  16.765  0.00  0.00    +0.000 A 
ATOM     21  C   UNL     1       4.774   4.074  17.101  0.00  0.00    +0.000 A 
BRANCH  19  22
ATOM     22  O   UNL     1       8.409   4.397  17.194  0.00  0.00    +0.000 OA
ATOM     23  H   UNL     1       8.769   3.561  17.537  0.00  0.00    +0.000 HD
ENDBRANCH  19  22
BRANCH  20  24
ATOM     24  O   UNL     1       6.476   3.357  15.603  0.00  0.00    +0.000 OA
ATOM     25  H   UNL     1       7.210   2.761  15.856  0.00  0.00    +0.000 HD
ENDBRANCH  20  24
ENDBRANCH   4  16
BRANCH  14  26
ATOM     26  C   UNL     1       0.494  11.848  21.263  0.00  0.00    +0.000 A 
ATOM     27  C   UNL     1      -0.454  12.454  22.109  0.00  0.00    +0.000 A 
ATOM     28  C   UNL     1      -0.412  13.824  22.381  0.00  0.00    +0.000 A 
ATOM     29  C   UNL     1       0.593  14.591  21.812  0.00  0.00    +0.000 A 
ATOM     30  C   UNL     1       1.557  13.998  21.002  0.00  0.00    +0.000 A 
ATOM     31  C   UNL     1       1.521  12.639  20.721  0.00  0.00    +0.000 A 
BRANCH  29  32
ATOM     32  O   UNL     1       0.662  15.943  22.007  0.00  0.00    +0.000 OA
ATOM     33  H   UNL     1      -0.239  16.263  22.189  0.00  0.00    +0.000 HD
ENDBRANCH  29  32
BRANCH  30  34
ATOM     34  O   UNL     1       2.547  14.766  20.453  0.00  0.00    +0.000 OA
ATOM     35  H   UNL     1       2.105  15.247  19.728  0.00  0.00    +0.000 HD
ENDBRANCH  30  34
ENDBRANCH  14  26
BRANCH   6  36
ATOM     36  O   UNL     1       3.249   7.121  16.826  0.00  0.00    +0.000 OA
ATOM     37  H   UNL     1       2.614   6.888  16.130  0.00  0.00    +0.000 HD
ENDBRANCH   6  36
BRANCH  13  38
ATOM     38  O   UNL     1       1.861   9.644  22.709  0.00  0.00    +0.000 OA
ATOM     39  H   UNL     1       2.380  10.225  22.126  0.00  0.00    +0.000 HD
ENDBRANCH  13  38
TORSDOF 8
ENDMDL
MODEL 4
REMARK VINA RESULT:      -7.8      0.743      1.693
REMARK  Name = 
REMARK  8 active torsions:
REMARK  status: ('A' for Active; 'I' for Inactive)
REMARK    1  A    between atoms: C_4  and  C_5
REMARK    2  A    between atoms: C_8  and  O_9
REMARK    3  A    between atoms: C_10  and  O_11
REMARK    4  A    between atoms: C_14  and  O_15
REMARK    5  A    between atoms: C_22  and  O_23
REMARK    6  A    between atoms: C_24  and  C_25
REMARK    7  A    between atoms: C_28  and  O_29
REMARK    8  A    between atoms: C_30  and  O_31
REMARK                            x       y       z     vdW  Elec       q    Type
REMARK                         _______ _______ _______ _____ _____    ______ ____
ROOT
ATOM      1  O   UNL     1       0.761   3.189  21.053  0.00  0.00    +0.000 OA
ATOM      2  C   UNL     1       1.431   4.132  20.648  0.00  0.00    +0.000 C 
ATOM      3  C   UNL     1       2.777   3.976  20.024  0.00  0.00    +0.000 C 
ATOM      4  C   UNL     1       2.926   4.823  18.761  0.00  0.00    +0.000 C 
ATOM      5  C   UNL     1       2.367   6.222  18.955  0.00  0.00    +0.000 A 
ATOM      6  C   UNL     1       2.591   7.291  18.077  0.00  0.00    +0.000 A 
ATOM      7  C   UNL     1       2.169   8.583  18.390  0.00  0.00    +0.000 A 
ATOM      8  C   UNL     1       1.473   8.833  19.569  0.00  0.00    +0.000 A 
ATOM      9  C   UNL     1       1.147   7.783  20.424  0.00  0.00    +0.000 A 
ATOM     10  C   UNL     1       1.569   6.488  20.078  0.00  0.00    +0.000 A 
ATOM     11  O   UNL     1       1.065   5.443  20.882  0.00  0.00    +0.000 OA
ATOM     12  C   UNL     1       0.349   8.033  21.676  0.00  0.00    +0.000 C 
ATOM     13  C   UNL     1       0.444   9.497  22.098  0.00  0.00    +0.000 C 
ATOM     14  C   UNL     1       0.231  10.400  20.864  0.00  0.00    +0.000 C 
ATOM     15  O   UNL     1       1.185  10.143  19.819  0.00  0.00    +0.000 OA
ENDROOT
BRANCH   4  16
ATOM     16  C   UNL     1       4.412   4.772  18.383  0.00  0.00    +0.000 A 
ATOM     17  C   UNL     1       5.409   5.269  19.251  0.00  0.00    +0.000 A 
ATOM     18  C   UNL     1       6.763   5.223  18.905  0.00  0.00    +0.000 A 
ATOM     19  C   UNL     1       7.133   4.637  17.705  0.00  0.00    +0.000 A 
ATOM     20  C   UNL     1       6.165   4.105  16.856  0.00  0.00    +0.000 A 
ATOM     21  C   UNL     1       4.812   4.174  17.177  0.00  0.00    +0.000 A 
BRANCH  19  22
ATOM     22  O   UNL     1       8.439   4.559  17.315  0.00  0.00    +0.000 OA
ATOM     23  H   UNL     1       8.977   5.067  17.948  0.00  0.00    +0.000 HD
ENDBRANCH  19  22
BRANCH  20  24
ATOM     24  O   UNL     1       6.543   3.499  15.693  0.00  0.00    +0.000 OA
ATOM     25  H   UNL     1       6.080   4.000  14.992  0.00  0.00    +0.000 HD
ENDBRANCH  20  24
ENDBRANCH   4  16
BRANCH  14  26
ATOM     26  C   UNL     1       0.328  11.868  21.251  0.00  0.00    +0.000 A 
ATOM     27  C   UNL     1       1.362  12.680  20.748  0.00  0.00    +0.000 A 
ATOM     28  C   UNL     1       1.532  13.994  21.189  0.00  0.00    +0.000 A 
ATOM     29  C   UNL     1       0.653  14.505  22.132  0.00  0.00    +0.000 A 
ATOM     30  C   UNL     1      -0.395  13.725  22.612  0.00  0.00    +0.000 A 
ATOM     31  C   UNL     1      -0.569  12.415  22.184  0.00  0.00    +0.000 A 
BRANCH  29  32
ATOM     32  O   UNL     1       0.794  15.770  22.633  0.00  0.00    +0.000 OA
ATOM     33  H   UNL     1       0.509  16.394  21.944  0.00  0.00    +0.000 HD
ENDBRANCH  29  32
BRANCH  30  34
ATOM     34  O   UNL     1      -1.258  14.245  23.536  0.00  0.00    +0.000 OA
ATOM     35  H   UNL     1      -2.122  14.255  23.080  0.00  0.00    +0.000 HD
ENDBRANCH  30  34
ENDBRANCH  14  26
BRANCH   6  36
ATOM     36  O   UNL     1       3.229   7.173  16.874  0.00  0.00    +0.000 OA
ATOM     37  H   UNL     1       2.678   6.699  16.232  0.00  0.00    +0.000 HD
ENDBRANCH   6  36
BRANCH  13  38
ATOM     38  O   UNL     1       1.723   9.701  22.726  0.00  0.00    +0.000 OA
ATOM     39  H   UNL     1       1.553   9.937  23.655  0.00  0.00    +0.000 HD
ENDBRANCH  13  38
TORSDOF 8
ENDMDL
MODEL 5
REMARK VINA RESULT:      -7.4      2.835      9.138
REMARK  Name = 
REMARK  8 active torsions:
REMARK  status: ('A' for Active; 'I' for Inactive)
REMARK    1  A    between atoms: C_4  and  C_5
REMARK    2  A    between atoms: C_8  and  O_9
REMARK    3  A    between atoms: C_10  and  O_11
REMARK    4  A    between atoms: C_14  and  O_15
REMARK    5  A    between atoms: C_22  and  O_23
REMARK    6  A    between atoms: C_24  and  C_25
REMARK    7  A    between atoms: C_28  and  O_29
REMARK    8  A    between atoms: C_30  and  O_31
REMARK                            x       y       z     vdW  Elec       q    Type
REMARK                         _______ _______ _______ _____ _____    ______ ____
ROOT
ATOM      1  O   UNL     1       0.083   9.258  23.703  0.00  0.00    +0.000 OA
ATOM      2  C   UNL     1       0.043   9.274  22.478  0.00  0.00    +0.000 C 
ATOM      3  C   UNL     1      -1.040   9.944  21.699  0.00  0.00    +0.000 C 
ATOM      4  C   UNL     1      -0.486  10.773  20.542  0.00  0.00    +0.000 C 
ATOM      5  C   UNL     1       0.603  10.029  19.790  0.00  0.00    +0.000 A 
ATOM      6  C   UNL     1       1.109  10.419  18.543  0.00  0.00    +0.000 A 
ATOM      7  C   UNL     1       2.004   9.610  17.842  0.00  0.00    +0.000 A 
ATOM      8  C   UNL     1       2.450   8.411  18.389  0.00  0.00    +0.000 A 
ATOM      9  C   UNL     1       2.045   8.032  19.666  0.00  0.00    +0.000 A 
ATOM     10  C   UNL     1       1.156   8.872  20.358  0.00  0.00    +0.000 A 
ATOM     11  O   UNL     1       0.916   8.533  21.707  0.00  0.00    +0.000 OA
ATOM     12  C   UNL     1       2.562   6.762  20.290  0.00  0.00    +0.000 C 
ATOM     13  C   UNL     1       3.071   5.799  19.221  0.00  0.00    +0.000 C 
ATOM     14  C   UNL     1       3.954   6.571  18.215  0.00  0.00    +0.000 C 
ATOM     15  O   UNL     1       3.254   7.657  17.584  0.00  0.00    +0.000 OA
ENDROOT
BRANCH   4  16
ATOM     16  C   UNL     1      -1.695  11.179  19.689  0.00  0.00    +0.000 A 
ATOM     17  C   UNL     1      -2.077  10.433  18.552  0.00  0.00    +0.000 A 
ATOM     18  C   UNL     1      -3.178  10.805  17.775  0.00  0.00    +0.000 A 
ATOM     19  C   UNL     1      -3.933  11.902  18.156  0.00  0.00    +0.000 A 
ATOM     20  C   UNL     1      -3.594  12.624  19.298  0.00  0.00    +0.000 A 
ATOM     21  C   UNL     1      -2.481  12.281  20.061  0.00  0.00    +0.000 A 
BRANCH  19  22
ATOM     22  O   UNL     1      -5.021  12.310  17.439  0.00  0.00    +0.000 OA
ATOM     23  H   UNL     1      -4.706  12.735  16.623  0.00  0.00    +0.000 HD
ENDBRANCH  19  22
BRANCH  20  24
ATOM     24  O   UNL     1      -4.366  13.682  19.684  0.00  0.00    +0.000 OA
ATOM     25  H   UNL     1      -4.699  13.434  20.570  0.00  0.00    +0.000 HD
ENDBRANCH  20  24
ENDBRANCH   4  16
BRANCH  14  26
ATOM     26  C   UNL     1       4.471   5.639  17.131  0.00  0.00    +0.000 A 
ATOM     27  C   UNL     1       4.282   4.247  17.226  0.00  0.00    +0.000 A 
ATOM     28  C   UNL     1       4.856   3.372  16.300  0.00  0.00    +0.000 A 
ATOM     29  C   UNL     1       5.615   3.894  15.264  0.00  0.00    +0.000 A 
ATOM     30  C   UNL     1       5.781   5.270  15.138  0.00  0.00    +0.000 A 
ATOM     31  C   UNL     1       5.219   6.148  16.056  0.00  0.00    +0.000 A 
BRANCH  29  32
ATOM     32  O   UNL     1       6.236   3.086  14.351  0.00  0.00    +0.000 OA
ATOM     33  H   UNL     1       7.193   3.126  14.524  0.00  0.00    +0.000 HD
ENDBRANCH  29  32
BRANCH  30  34
ATOM     34  O   UNL     1       6.526   5.771  14.106  0.00  0.00    +0.000 OA
ATOM     35  H   UNL     1       7.229   5.107  13.973  0.00  0.00    +0.000 HD
ENDBRANCH  30  34
ENDBRANCH  14  26
BRANCH   6  36
ATOM     36  O   UNL     1       0.779  11.586  17.913  0.00  0.00    +0.000 OA
ATOM     37  H   UNL     1       0.053  12.037  18.373  0.00  0.00    +0.000 HD
ENDBRANCH   6  36
BRANCH  13  38
ATOM     38  O   UNL     1       1.932   5.175  18.600  0.00  0.00    +0.000 OA
ATOM     39  H   UNL     1       1.313   5.886  18.355  0.00  0.00    +0.000 HD
ENDBRANCH  13  38
TORSDOF 8
ENDMDL
MODEL 6
REMARK VINA RESULT:      -7.3      2.787      9.062
REMARK  Name = 
REMARK  8 active torsions:
REMARK  status: ('A' for Active; 'I' for Inactive)
REMARK    1  A    between atoms: C_4  and  C_5
REMARK    2  A    between atoms: C_8  and  O_9
REMARK    3  A    between atoms: C_10  and  O_11
REMARK    4  A    between atoms: C_14  and  O_15
REMARK    5  A    between atoms: C_22  and  O_23
REMARK    6  A    between atoms: C_24  and  C_25
REMARK    7  A    between atoms: C_28  and  O_29
REMARK    8  A    between atoms: C_30  and  O_31
REMARK                            x       y       z     vdW  Elec       q    Type
REMARK                         _______ _______ _______ _____ _____    ______ ____
ROOT
ATOM      1  O   UNL     1       0.156   9.296  23.811  0.00  0.00    +0.000 OA
ATOM      2  C   UNL     1       0.097   9.309  22.587  0.00  0.00    +0.000 C 
ATOM      3  C   UNL     1      -0.999   9.976  21.824  0.00  0.00    +0.000 C 
ATOM      4  C   UNL     1      -0.464  10.803  20.655  0.00  0.00    +0.000 C 
ATOM      5  C   UNL     1       0.613  10.056  19.888  0.00  0.00    +0.000 A 
ATOM      6  C   UNL     1       1.099  10.443  18.632  0.00  0.00    +0.000 A 
ATOM      7  C   UNL     1       1.982   9.633  17.919  0.00  0.00    +0.000 A 
ATOM      8  C   UNL     1       2.438   8.435  18.462  0.00  0.00    +0.000 A 
ATOM      9  C   UNL     1       2.054   8.060  19.746  0.00  0.00    +0.000 A 
ATOM     10  C   UNL     1       1.175   8.901  20.451  0.00  0.00    +0.000 A 
ATOM     11  O   UNL     1       0.958   8.566  21.805  0.00  0.00    +0.000 OA
ATOM     12  C   UNL     1       2.582   6.792  20.366  0.00  0.00    +0.000 C 
ATOM     13  C   UNL     1       3.074   5.826  19.291  0.00  0.00    +0.000 C 
ATOM     14  C   UNL     1       3.940   6.596  18.270  0.00  0.00    +0.000 C 
ATOM     15  O   UNL     1       3.229   7.679  17.647  0.00  0.00    +0.000 OA
ENDROOT
BRANCH   4  16
ATOM     16  C   UNL     1      -1.687  11.205  19.821  0.00  0.00    +0.000 A 
ATOM     17  C   UNL     1      -2.439  12.360  20.127  0.00  0.00    +0.000 A 
ATOM     18  C   UNL     1      -3.555  12.724  19.367  0.00  0.00    +0.000 A 
ATOM     19  C   UNL     1      -3.900  11.958  18.266  0.00  0.00    +0.000 A 
ATOM     20  C   UNL     1      -3.144  10.837  17.926  0.00  0.00    +0.000 A 
ATOM     21  C   UNL     1      -2.051  10.448  18.695  0.00  0.00    +0.000 A 
BRANCH  19  22
ATOM     22  O   UNL     1      -4.976  12.266  17.484  0.00  0.00    +0.000 OA
ATOM     23  H   UNL     1      -5.785  12.073  17.988  0.00  0.00    +0.000 HD
ENDBRANCH  19  22
BRANCH  20  24
ATOM     24  O   UNL     1      -3.473  10.110  16.819  0.00  0.00    +0.000 OA
ATOM     25  H   UNL     1      -2.685  10.173  16.240  0.00  0.00    +0.000 HD
ENDBRANCH  20  24
ENDBRANCH   4  16
BRANCH  14  26
ATOM     26  C   UNL     1       4.440   5.661  17.180  0.00  0.00    +0.000 A 
ATOM     27  C   UNL     1       4.221   4.272  17.264  0.00  0.00    +0.000 A 
ATOM     28  C   UNL     1       4.779   3.392  16.333  0.00  0.00    +0.000 A 
ATOM     29  C   UNL     1       5.552   3.906  15.303  0.00  0.00    +0.000 A 
ATOM     30  C   UNL     1       5.747   5.279  15.187  0.00  0.00    +0.000 A 
ATOM     31  C   UNL     1       5.202   6.161  16.111  0.00  0.00    +0.000 A 
BRANCH  29  32
ATOM     32  O   UNL     1       6.158   3.092  14.386  0.00  0.00    +0.000 OA
ATOM     33  H   UNL     1       7.020   2.826  14.750  0.00  0.00    +0.000 HD
ENDBRANCH  29  32
BRANCH  30  34
ATOM     34  O   UNL     1       6.506   5.771  14.162  0.00  0.00    +0.000 OA
ATOM     35  H   UNL     1       6.088   6.626  13.942  0.00  0.00    +0.000 HD
ENDBRANCH  30  34
ENDBRANCH  14  26
BRANCH   6  36
ATOM     36  O   UNL     1       0.758  11.608  18.004  0.00  0.00    +0.000 OA
ATOM     37  H   UNL     1       1.503  12.231  17.997  0.00  0.00    +0.000 HD
ENDBRANCH   6  36
BRANCH  13  38
ATOM     38  O   UNL     1       1.925   5.200  18.691  0.00  0.00    +0.000 OA
ATOM     39  H   UNL     1       1.987   4.247  18.879  0.00  0.00    +0.000 HD
ENDBRANCH  13  38
TORSDOF 8
ENDMDL
MODEL 7
REMARK VINA RESULT:      -7.2      1.021      1.137
REMARK  Name = 
REMARK  8 active torsions:
REMARK  status: ('A' for Active; 'I' for Inactive)
REMARK    1  A    between atoms: C_4  and  C_5
REMARK    2  A    between atoms: C_8  and  O_9
REMARK    3  A    between atoms: C_10  and  O_11
REMARK    4  A    between atoms: C_14  and  O_15
REMARK    5  A    between atoms: C_22  and  O_23
REMARK    6  A    between atoms: C_24  and  C_25
REMARK    7  A    between atoms: C_28  and  O_29
REMARK    8  A    between atoms: C_30  and  O_31
REMARK                            x       y       z     vdW  Elec       q    Type
REMARK                         _______ _______ _______ _____ _____    ______ ____
ROOT
ATOM      1  O   UNL     1       0.815   3.456  20.740  0.00  0.00    +0.000 OA
ATOM      2  C   UNL     1       1.389   4.504  20.470  0.00  0.00    +0.000 C 
ATOM      3  C   UNL     1       2.746   4.563  19.851  0.00  0.00    +0.000 C 
ATOM      4  C   UNL     1       2.813   5.577  18.710  0.00  0.00    +0.000 C 
ATOM      5  C   UNL     1       2.118   6.877  19.074  0.00  0.00    +0.000 A 
ATOM      6  C   UNL     1       2.237   8.068  18.344  0.00  0.00    +0.000 A 
ATOM      7  C   UNL     1       1.689   9.261  18.815  0.00  0.00    +0.000 A 
ATOM      8  C   UNL     1       0.969   9.286  20.006  0.00  0.00    +0.000 A 
ATOM      9  C   UNL     1       0.747   8.108  20.714  0.00  0.00    +0.000 A 
ATOM     10  C   UNL     1       1.296   6.916  20.210  0.00  0.00    +0.000 A 
ATOM     11  O   UNL     1       0.896   5.732  20.865  0.00  0.00    +0.000 OA
ATOM     12  C   UNL     1      -0.075   8.115  21.976  0.00  0.00    +0.000 C 
ATOM     13  C   UNL     1      -0.126   9.513  22.584  0.00  0.00    +0.000 C 
ATOM     14  C   UNL     1      -0.424  10.544  21.474  0.00  0.00    +0.000 C 
ATOM     15  O   UNL     1       0.552  10.519  20.419  0.00  0.00    +0.000 OA
ENDROOT
BRANCH   4  16
ATOM     16  C   UNL     1       4.298   5.721  18.351  0.00  0.00    +0.000 A 
ATOM     17  C   UNL     1       4.709   6.065  17.045  0.00  0.00    +0.000 A 
ATOM     18  C   UNL     1       6.062   6.193  16.719  0.00  0.00    +0.000 A 
ATOM     19  C   UNL     1       7.014   6.021  17.710  0.00  0.00    +0.000 A 
ATOM     20  C   UNL     1       6.623   5.721  19.014  0.00  0.00    +0.000 A 
ATOM     21  C   UNL     1       5.280   5.560  19.341  0.00  0.00    +0.000 A 
BRANCH  19  22
ATOM     22  O   UNL     1       8.350   6.137  17.453  0.00  0.00    +0.000 OA
ATOM     23  H   UNL     1       8.809   5.397  17.886  0.00  0.00    +0.000 HD
ENDBRANCH  19  22
BRANCH  20  24
ATOM     24  O   UNL     1       7.568   5.588  19.990  0.00  0.00    +0.000 OA
ATOM     25  H   UNL     1       7.290   6.216  20.688  0.00  0.00    +0.000 HD
ENDBRANCH  20  24
ENDBRANCH   4  16
BRANCH  14  26
ATOM     26  C   UNL     1      -0.474  11.951  22.048  0.00  0.00    +0.000 A 
ATOM     27  C   UNL     1      -1.396  12.286  23.058  0.00  0.00    +0.000 A 
ATOM     28  C   UNL     1      -1.534  13.601  23.508  0.00  0.00    +0.000 A 
ATOM     29  C   UNL     1      -0.735  14.588  22.951  0.00  0.00    +0.000 A 
ATOM     30  C   UNL     1       0.205  14.266  21.976  0.00  0.00    +0.000 A 
ATOM     31  C   UNL     1       0.346  12.962  21.519  0.00  0.00    +0.000 A 
BRANCH  29  32
ATOM     32  O   UNL     1      -0.852  15.900  23.320  0.00  0.00    +0.000 OA
ATOM     33  H   UNL     1       0.045  16.269  23.393  0.00  0.00    +0.000 HD
ENDBRANCH  29  32
BRANCH  30  34
ATOM     34  O   UNL     1       0.992  15.248  21.442  0.00  0.00    +0.000 OA
ATOM     35  H   UNL     1       1.372  14.843  20.639  0.00  0.00    +0.000 HD
ENDBRANCH  30  34
ENDBRANCH  14  26
BRANCH   6  36
ATOM     36  O   UNL     1       2.886   8.170  17.146  0.00  0.00    +0.000 OA
ATOM     37  H   UNL     1       3.772   8.550  17.261  0.00  0.00    +0.000 HD
ENDBRANCH   6  36
BRANCH  13  38
ATOM     38  O   UNL     1       1.126   9.758  23.252  0.00  0.00    +0.000 OA
ATOM     39  H   UNL     1       1.283   9.007  23.851  0.00  0.00    +0.000 HD
ENDBRANCH  13  38
TORSDOF 8
ENDMDL
MODEL 8
REMARK VINA RESULT:      -7.2      3.550      9.506
REMARK  Name = 
REMARK  8 active torsions:
REMARK  status: ('A' for Active; 'I' for Inactive)
REMARK    1  A    between atoms: C_4  and  C_5
REMARK    2  A    between atoms: C_8  and  O_9
REMARK    3  A    between atoms: C_10  and  O_11
REMARK    4  A    between atoms: C_14  and  O_15
REMARK    5  A    between atoms: C_22  and  O_23
REMARK    6  A    between atoms: C_24  and  C_25
REMARK    7  A    between atoms: C_28  and  O_29
REMARK    8  A    between atoms: C_30  and  O_31
REMARK                            x       y       z     vdW  Elec       q    Type
REMARK                         _______ _______ _______ _____ _____    ______ ____
ROOT
ATOM      1  O   UNL     1      -0.738  12.533  23.444  0.00  0.00    +0.000 OA
ATOM      2  C   UNL     1      -0.966  11.923  22.406  0.00  0.00    +0.000 C 
ATOM      3  C   UNL     1      -2.217  12.091  21.610  0.00  0.00    +0.000 C 
ATOM      4  C   UNL     1      -1.934  12.220  20.114  0.00  0.00    +0.000 C 
ATOM      5  C   UNL     1      -0.903  11.206  19.650  0.00  0.00    +0.000 A 
ATOM      6  C   UNL     1      -0.635  10.911  18.307  0.00  0.00    +0.000 A 
ATOM      7  C   UNL     1       0.219   9.866  17.954  0.00  0.00    +0.000 A 
ATOM      8  C   UNL     1       0.863   9.118  18.935  0.00  0.00    +0.000 A 
ATOM      9  C   UNL     1       0.698   9.438  20.279  0.00  0.00    +0.000 A 
ATOM     10  C   UNL     1      -0.155  10.506  20.609  0.00  0.00    +0.000 A 
ATOM     11  O   UNL     1      -0.150  10.900  21.964  0.00  0.00    +0.000 OA
ATOM     12  C   UNL     1       1.431   8.669  21.347  0.00  0.00    +0.000 C 
ATOM     13  C   UNL     1       1.865   7.301  20.830  0.00  0.00    +0.000 C 
ATOM     14  C   UNL     1       2.501   7.460  19.432  0.00  0.00    +0.000 C 
ATOM     15  O   UNL     1       1.606   8.066  18.483  0.00  0.00    +0.000 OA
ENDROOT
BRANCH   4  16
ATOM     16  C   UNL     1      -3.294  12.123  19.411  0.00  0.00    +0.000 A 
ATOM     17  C   UNL     1      -4.461  12.669  19.988  0.00  0.00    +0.000 A 
ATOM     18  C   UNL     1      -5.700  12.578  19.347  0.00  0.00    +0.000 A 
ATOM     19  C   UNL     1      -5.772  11.977  18.101  0.00  0.00    +0.000 A 
ATOM     20  C   UNL     1      -4.622  11.469  17.499  0.00  0.00    +0.000 A 
ATOM     21  C   UNL     1      -3.389  11.527  18.143  0.00  0.00    +0.000 A 
BRANCH  19  22
ATOM     22  O   UNL     1      -6.953  11.863  17.424  0.00  0.00    +0.000 OA
ATOM     23  H   UNL     1      -7.241  10.934  17.469  0.00  0.00    +0.000 HD
ENDBRANCH  19  22
BRANCH  20  24
ATOM     24  O   UNL     1      -4.699  10.911  16.256  0.00  0.00    +0.000 OA
ATOM     25  H   UNL     1      -5.226  11.548  15.732  0.00  0.00    +0.000 HD
ENDBRANCH  20  24
ENDBRANCH   4  16
BRANCH  14  26
ATOM     26  C   UNL     1       2.938   6.110  18.885  0.00  0.00    +0.000 A 
ATOM     27  C   UNL     1       2.111   5.387  18.004  0.00  0.00    +0.000 A 
ATOM     28  C   UNL     1       2.446   4.095  17.591  0.00  0.00    +0.000 A 
ATOM     29  C   UNL     1       3.623   3.526  18.053  0.00  0.00    +0.000 A 
ATOM     30  C   UNL     1       4.467   4.244  18.896  0.00  0.00    +0.000 A 
ATOM     31  C   UNL     1       4.140   5.526  19.317  0.00  0.00    +0.000 A 
BRANCH  29  32
ATOM     32  O   UNL     1       3.984   2.250  17.717  0.00  0.00    +0.000 OA
ATOM     33  H   UNL     1       4.949   2.181  17.814  0.00  0.00    +0.000 HD
ENDBRANCH  29  32
BRANCH  30  34
ATOM     34  O   UNL     1       5.629   3.673  19.337  0.00  0.00    +0.000 OA
ATOM     35  H   UNL     1       6.325   4.297  19.058  0.00  0.00    +0.000 HD
ENDBRANCH  30  34
ENDBRANCH  14  26
BRANCH   6  36
ATOM     36  O   UNL     1      -1.173  11.591  17.251  0.00  0.00    +0.000 OA
ATOM     37  H   UNL     1      -0.510  11.741  16.559  0.00  0.00    +0.000 HD
ENDBRANCH   6  36
BRANCH  13  38
ATOM     38  O   UNL     1       0.713   6.436  20.825  0.00  0.00    +0.000 OA
ATOM     39  H   UNL     1       0.780   5.864  21.610  0.00  0.00    +0.000 HD
ENDBRANCH  13  38
TORSDOF 8
ENDMDL
MODEL 9
REMARK VINA RESULT:      -7.2      3.579      9.567
REMARK  Name = 
REMARK  8 active torsions:
REMARK  status: ('A' for Active; 'I' for Inactive)
REMARK    1  A    between atoms: C_4  and  C_5
REMARK    2  A    between atoms: C_8  and  O_9
REMARK    3  A    between atoms: C_10  and  O_11
REMARK    4  A    between atoms: C_14  and  O_15
REMARK    5  A    between atoms: C_22  and  O_23
REMARK    6  A    between atoms: C_24  and  C_25
REMARK    7  A    between atoms: C_28  and  O_29
REMARK    8  A    between atoms: C_30  and  O_31
REMARK                            x       y       z     vdW  Elec       q    Type
REMARK                         _______ _______ _______ _____ _____    ______ ____
ROOT
ATOM      1  O   UNL     1      -0.792  12.383  23.509  0.00  0.00    +0.000 OA
ATOM      2  C   UNL     1      -0.996  11.793  22.454  0.00  0.00    +0.000 C 
ATOM      3  C   UNL     1      -2.232  11.974  21.636  0.00  0.00    +0.000 C 
ATOM      4  C   UNL     1      -1.918  12.135  20.150  0.00  0.00    +0.000 C 
ATOM      5  C   UNL     1      -0.874  11.135  19.686  0.00  0.00    +0.000 A 
ATOM      6  C   UNL     1      -0.577  10.869  18.342  0.00  0.00    +0.000 A 
ATOM      7  C   UNL     1       0.289   9.835  17.985  0.00  0.00    +0.000 A 
ATOM      8  C   UNL     1       0.916   9.069  18.964  0.00  0.00    +0.000 A 
ATOM      9  C   UNL     1       0.722   9.361  20.311  0.00  0.00    +0.000 A 
ATOM     10  C   UNL     1      -0.143  10.418  20.645  0.00  0.00    +0.000 A 
ATOM     11  O   UNL     1      -0.167  10.783  22.008  0.00  0.00    +0.000 OA
ATOM     12  C   UNL     1       1.436   8.572  21.378  0.00  0.00    +0.000 C 
ATOM     13  C   UNL     1       1.886   7.217  20.841  0.00  0.00    +0.000 C 
ATOM     14  C   UNL     1       2.550   7.408  19.460  0.00  0.00    +0.000 C 
ATOM     15  O   UNL     1       1.673   8.030  18.506  0.00  0.00    +0.000 OA
ENDROOT
BRANCH   4  16
ATOM     16  C   UNL     1      -3.263  12.047  19.417  0.00  0.00    +0.000 A 
ATOM     17  C   UNL     1      -3.468  11.130  18.362  0.00  0.00    +0.000 A 
ATOM     18  C   UNL     1      -4.693  11.053  17.694  0.00  0.00    +0.000 A 
ATOM     19  C   UNL     1      -5.739  11.862  18.106  0.00  0.00    +0.000 A 
ATOM     20  C   UNL     1      -5.566  12.742  19.173  0.00  0.00    +0.000 A 
ATOM     21  C   UNL     1      -4.340  12.850  19.824  0.00  0.00    +0.000 A 
BRANCH  19  22
ATOM     22  O   UNL     1      -6.960  11.827  17.495  0.00  0.00    +0.000 OA
ATOM     23  H   UNL     1      -6.818  11.784  16.534  0.00  0.00    +0.000 HD
ENDBRANCH  19  22
BRANCH  20  24
ATOM     24  O   UNL     1      -6.614  13.509  19.594  0.00  0.00    +0.000 OA
ATOM     25  H   UNL     1      -6.458  13.635  20.552  0.00  0.00    +0.000 HD
ENDBRANCH  20  24
ENDBRANCH   4  16
BRANCH  14  26
ATOM     26  C   UNL     1       3.004   6.071  18.894  0.00  0.00    +0.000 A 
ATOM     27  C   UNL     1       2.172   5.333  18.031  0.00  0.00    +0.000 A 
ATOM     28  C   UNL     1       2.526   4.051  17.602  0.00  0.00    +0.000 A 
ATOM     29  C   UNL     1       3.728   3.509  18.030  0.00  0.00    +0.000 A 
ATOM     30  C   UNL     1       4.577   4.242  18.854  0.00  0.00    +0.000 A 
ATOM     31  C   UNL     1       4.231   5.514  19.291  0.00  0.00    +0.000 A 
BRANCH  29  32
ATOM     32  O   UNL     1       4.110   2.243  17.678  0.00  0.00    +0.000 OA
ATOM     33  H   UNL     1       4.927   2.316  17.154  0.00  0.00    +0.000 HD
ENDBRANCH  29  32
BRANCH  30  34
ATOM     34  O   UNL     1       5.763   3.696  19.262  0.00  0.00    +0.000 OA
ATOM     35  H   UNL     1       5.914   4.080  20.146  0.00  0.00    +0.000 HD
ENDBRANCH  30  34
ENDBRANCH  14  26
BRANCH   6  36
ATOM     36  O   UNL     1      -1.097  11.569  17.290  0.00  0.00    +0.000 OA
ATOM     37  H   UNL     1      -1.033  11.059  16.467  0.00  0.00    +0.000 HD
ENDBRANCH   6  36
BRANCH  13  38
ATOM     38  O   UNL     1       0.739   6.348  20.794  0.00  0.00    +0.000 OA
ATOM     39  H   UNL     1       0.674   6.007  19.885  0.00  0.00    +0.000 HD
ENDBRANCH  13  38
TORSDOF 8
ENDMDL
