MODEL 1
REMARK VINA RESULT:      -8.3      0.000      0.000
REMARK  Name = 
REMARK  3 active torsions:
REMARK  status: ('A' for Active; 'I' for Inactive)
REMARK    1  A    between atoms: C_2  and  C_3
REMARK    2  A    between atoms: C_2  and  C_20
REMARK    3  A    between atoms: C_9  and  C_11
REMARK                            x       y       z     vdW  Elec       q    Type
REMARK                         _______ _______ _______ _____ _____    ______ ____
ROOT
ATOM      1  C   UNL     1       0.181  10.287  20.127  0.00  0.00    +0.000 C 
ATOM      2  O   UNL     1      -0.352  10.492  21.211  0.00  0.00    +0.000 OA
ATOM      3  N   UNL     1       1.104   9.278  19.873  0.00  0.00    +0.000 N 
ATOM      4  C   UNL     1       1.482   8.350  20.938  0.00  0.00    +0.000 C 
ATOM      5  C   UNL     1       1.589   6.915  20.399  0.00  0.00    +0.000 C 
ATOM      6  N   UNL     1       2.471   6.836  19.222  0.00  0.00    +0.000 N 
ATOM      7  C   UNL     1       3.340   5.732  19.133  0.00  0.00    +0.000 C 
ATOM      8  O   UNL     1       3.388   4.888  20.028  0.00  0.00    +0.000 OA
ATOM      9  C   UNL     1       2.156   7.814  18.167  0.00  0.00    +0.000 C 
ATOM     10  C   UNL     1       1.960   9.240  18.692  0.00  0.00    +0.000 C 
ENDROOT
BRANCH   7  11
ATOM     11  C   UNL     1       4.236   5.544  17.950  0.00  0.00    +0.000 A 
ATOM     12  C   UNL     1       5.283   6.445  17.707  0.00  0.00    +0.000 A 
ATOM     13  C   UNL     1       6.207   6.221  16.682  0.00  0.00    +0.000 A 
ATOM     14  C   UNL     1       6.033   5.151  15.814  0.00  0.00    +0.000 A 
ATOM     15  C   UNL     1       4.926   4.317  15.963  0.00  0.00    +0.000 A 
ATOM     16  C   UNL     1       4.031   4.502  17.029  0.00  0.00    +0.000 A 
ATOM     17 CL   UNL     1       2.725   3.369  17.124  0.00  0.00    +0.000 Cl
ENDBRANCH   7  11
BRANCH   1  19
ATOM     18  O   UNL     1       0.505  11.976  18.490  0.00  0.00    +0.000 OA
ATOM     19  C   UNL     1      -0.272  11.119  18.912  0.00  0.00    +0.000 C 
BRANCH  19  20
ATOM     20  C   UNL     1      -1.536  10.773  18.270  0.00  0.00    +0.000 A 
ATOM     21  C   UNL     1      -1.684   9.884  17.219  0.00  0.00    +0.000 A 
ATOM     22  N   UNL     1      -3.004   9.835  16.874  0.00  0.00    +0.000 N 
ATOM     23  C   UNL     1      -3.737  10.693  17.665  0.00  0.00    +0.000 A 
ATOM     24  C   UNL     1      -5.103  10.978  17.651  0.00  0.00    +0.000 A 
ATOM     25  C   UNL     1      -5.584  11.898  18.590  0.00  0.00    +0.000 A 
ATOM     26  C   UNL     1      -4.721  12.502  19.500  0.00  0.00    +0.000 A 
ATOM     27  C   UNL     1      -3.356  12.207  19.499  0.00  0.00    +0.000 A 
ATOM     28  C   UNL     1      -2.842  11.283  18.564  0.00  0.00    +0.000 A 
ATOM     29  H   UNL     1      -3.401   9.256  16.147  0.00  0.00    +0.000 HD
ENDBRANCH  19  20
ENDBRANCH   1  19
TORSDOF 3
ENDMDL
MODEL 2
REMARK VINA RESULT:      -8.3      2.156      3.479
REMARK  Name = 
REMARK  3 active torsions:
REMARK  status: ('A' for Active; 'I' for Inactive)
REMARK    1  A    between atoms: C_2  and  C_3
REMARK    2  A    between atoms: C_2  and  C_20
REMARK    3  A    between atoms: C_9  and  C_11
REMARK                            x       y       z     vdW  Elec       q    Type
REMARK                         _______ _______ _______ _____ _____    ______ ____
ROOT
ATOM      1  C   UNL     1       0.108   9.874  20.155  0.00  0.00    +0.000 C 
ATOM      2  O   UNL     1      -0.425  10.042  21.245  0.00  0.00    +0.000 OA
ATOM      3  N   UNL     1       1.096   8.931  19.890  0.00  0.00    +0.000 N 
ATOM      4  C   UNL     1       1.549   8.031  20.950  0.00  0.00    +0.000 C 
ATOM      5  C   UNL     1       1.749   6.607  20.408  0.00  0.00    +0.000 C 
ATOM      6  N   UNL     1       2.620   6.589  19.220  0.00  0.00    +0.000 N 
ATOM      7  C   UNL     1       3.563   5.548  19.121  0.00  0.00    +0.000 C 
ATOM      8  O   UNL     1       3.680   4.709  20.014  0.00  0.00    +0.000 OA
ATOM      9  C   UNL     1       2.227   7.543  18.170  0.00  0.00    +0.000 C 
ATOM     10  C   UNL     1       1.939   8.952  18.698  0.00  0.00    +0.000 C 
ENDROOT
BRANCH   7  11
ATOM     11  C   UNL     1       4.457   5.422  17.927  0.00  0.00    +0.000 A 
ATOM     12  C   UNL     1       5.515   6.324  17.740  0.00  0.00    +0.000 A 
ATOM     13  C   UNL     1       6.435   6.152  16.702  0.00  0.00    +0.000 A 
ATOM     14  C   UNL     1       6.247   5.140  15.770  0.00  0.00    +0.000 A 
ATOM     15  C   UNL     1       5.130   4.313  15.867  0.00  0.00    +0.000 A 
ATOM     16  C   UNL     1       4.237   4.442  16.943  0.00  0.00    +0.000 A 
ATOM     17 CL   UNL     1       2.917   3.323  16.969  0.00  0.00    +0.000 Cl
ENDBRANCH   7  11
BRANCH   1  19
ATOM     18  O   UNL     1      -0.977  10.041  18.050  0.00  0.00    +0.000 OA
ATOM     19  C   UNL     1      -0.415  10.673  18.946  0.00  0.00    +0.000 C 
BRANCH  19  20
ATOM     20  C   UNL     1      -0.315  12.128  18.983  0.00  0.00    +0.000 A 
ATOM     21  C   UNL     1      -1.364  12.998  19.227  0.00  0.00    +0.000 A 
ATOM     22  N   UNL     1      -0.893  14.277  19.160  0.00  0.00    +0.000 N 
ATOM     23  C   UNL     1       0.451  14.276  18.856  0.00  0.00    +0.000 A 
ATOM     24  C   UNL     1       1.329  15.345  18.670  0.00  0.00    +0.000 A 
ATOM     25  C   UNL     1       2.664  15.044  18.375  0.00  0.00    +0.000 A 
ATOM     26  C   UNL     1       3.090  13.724  18.270  0.00  0.00    +0.000 A 
ATOM     27  C   UNL     1       2.198  12.666  18.457  0.00  0.00    +0.000 A 
ATOM     28  C   UNL     1       0.845  12.937  18.756  0.00  0.00    +0.000 A 
ATOM     29  H   UNL     1      -1.438  15.114  19.312  0.00  0.00    +0.000 HD
ENDBRANCH  19  20
ENDBRANCH   1  19
TORSDOF 3
ENDMDL
MODEL 3
REMARK VINA RESULT:      -8.1      1.738      2.366
REMARK  Name = 
REMARK  3 active torsions:
REMARK  status: ('A' for Active; 'I' for Inactive)
REMARK    1  A    between atoms: C_2  and  C_3
REMARK    2  A    between atoms: C_2  and  C_20
REMARK    3  A    between atoms: C_9  and  C_11
REMARK                            x       y       z     vdW  Elec       q    Type
REMARK                         _______ _______ _______ _____ _____    ______ ____
ROOT
ATOM      1  C   UNL     1       0.823   9.042  20.027  0.00  0.00    +0.000 C 
ATOM      2  O   UNL     1       0.147   9.110  21.046  0.00  0.00    +0.000 OA
ATOM      3  N   UNL     1       1.738   8.032  19.744  0.00  0.00    +0.000 N 
ATOM      4  C   UNL     1       1.925   6.932  20.690  0.00  0.00    +0.000 C 
ATOM      5  C   UNL     1       2.059   5.593  19.949  0.00  0.00    +0.000 C 
ATOM      6  N   UNL     1       3.097   5.644  18.905  0.00  0.00    +0.000 N 
ATOM      7  C   UNL     1       3.932   4.519  18.762  0.00  0.00    +0.000 C 
ATOM      8  O   UNL     1       3.821   3.547  19.509  0.00  0.00    +0.000 OA
ATOM      9  C   UNL     1       2.972   6.788  17.987  0.00  0.00    +0.000 C 
ATOM     10  C   UNL     1       2.753   8.126  18.700  0.00  0.00    +0.000 C 
ENDROOT
BRANCH   7  11
ATOM     11  C   UNL     1       4.982   4.462  17.697  0.00  0.00    +0.000 A 
ATOM     12  C   UNL     1       4.680   3.925  16.437  0.00  0.00    +0.000 A 
ATOM     13  C   UNL     1       5.605   3.976  15.391  0.00  0.00    +0.000 A 
ATOM     14  C   UNL     1       6.885   4.463  15.620  0.00  0.00    +0.000 A 
ATOM     15  C   UNL     1       7.243   4.884  16.900  0.00  0.00    +0.000 A 
ATOM     16  C   UNL     1       6.298   4.894  17.938  0.00  0.00    +0.000 A 
ATOM     17 CL   UNL     1       6.860   5.482  19.465  0.00  0.00    +0.000 Cl
ENDBRANCH   7  11
BRANCH   1  19
ATOM     18  O   UNL     1       1.445  10.185  18.041  0.00  0.00    +0.000 OA
ATOM     19  C   UNL     1       0.579  10.074  18.909  0.00  0.00    +0.000 C 
BRANCH  19  20
ATOM     20  C   UNL     1      -0.700  10.775  18.883  0.00  0.00    +0.000 A 
ATOM     21  C   UNL     1      -1.109  11.731  19.798  0.00  0.00    +0.000 A 
ATOM     22  N   UNL     1      -2.366  12.143  19.463  0.00  0.00    +0.000 N 
ATOM     23  C   UNL     1      -2.812  11.463  18.350  0.00  0.00    +0.000 A 
ATOM     24  C   UNL     1      -4.032  11.546  17.677  0.00  0.00    +0.000 A 
ATOM     25  C   UNL     1      -4.210  10.731  16.553  0.00  0.00    +0.000 A 
ATOM     26  C   UNL     1      -3.201   9.871  16.131  0.00  0.00    +0.000 A 
ATOM     27  C   UNL     1      -1.987   9.799  16.817  0.00  0.00    +0.000 A 
ATOM     28  C   UNL     1      -1.777  10.608  17.954  0.00  0.00    +0.000 A 
ATOM     29  H   UNL     1      -2.904  12.846  19.949  0.00  0.00    +0.000 HD
ENDBRANCH  19  20
ENDBRANCH   1  19
TORSDOF 3
ENDMDL
MODEL 4
REMARK VINA RESULT:      -8.1      2.394      3.703
REMARK  Name = 
REMARK  3 active torsions:
REMARK  status: ('A' for Active; 'I' for Inactive)
REMARK    1  A    between atoms: C_2  and  C_3
REMARK    2  A    between atoms: C_2  and  C_20
REMARK    3  A    between atoms: C_9  and  C_11
REMARK                            x       y       z     vdW  Elec       q    Type
REMARK                         _______ _______ _______ _____ _____    ______ ____
ROOT
ATOM      1  C   UNL     1       0.543   9.361  19.784  0.00  0.00    +0.000 C 
ATOM      2  O   UNL     1      -0.057   9.547  20.835  0.00  0.00    +0.000 OA
ATOM      3  N   UNL     1       1.515   8.386  19.583  0.00  0.00    +0.000 N 
ATOM      4  C   UNL     1       1.865   7.471  20.669  0.00  0.00    +0.000 C 
ATOM      5  C   UNL     1       2.054   6.042  20.138  0.00  0.00    +0.000 C 
ATOM      6  N   UNL     1       3.002   5.995  19.012  0.00  0.00    +0.000 N 
ATOM      7  C   UNL     1       3.915   4.923  18.974  0.00  0.00    +0.000 C 
ATOM      8  O   UNL     1       3.943   4.081  19.871  0.00  0.00    +0.000 OA
ATOM      9  C   UNL     1       2.712   6.962  17.940  0.00  0.00    +0.000 C 
ATOM     10  C   UNL     1       2.437   8.380  18.451  0.00  0.00    +0.000 C 
ENDROOT
BRANCH   7  11
ATOM     11  C   UNL     1       4.882   4.768  17.843  0.00  0.00    +0.000 A 
ATOM     12  C   UNL     1       4.447   4.268  16.606  0.00  0.00    +0.000 A 
ATOM     13  C   UNL     1       5.301   4.231  15.501  0.00  0.00    +0.000 A 
ATOM     14  C   UNL     1       6.635   4.589  15.644  0.00  0.00    +0.000 A 
ATOM     15  C   UNL     1       7.116   4.968  16.897  0.00  0.00    +0.000 A 
ATOM     16  C   UNL     1       6.247   5.066  17.995  0.00  0.00    +0.000 A 
ATOM     17 CL   UNL     1       6.963   5.591  19.481  0.00  0.00    +0.000 Cl
ENDBRANCH   7  11
BRANCH   1  19
ATOM     18  O   UNL     1      -0.147   9.552  17.520  0.00  0.00    +0.000 OA
ATOM     19  C   UNL     1       0.129  10.177  18.543  0.00  0.00    +0.000 C 
BRANCH  19  20
ATOM     20  C   UNL     1      -0.017  11.622  18.684  0.00  0.00    +0.000 A 
ATOM     21  C   UNL     1      -1.212  12.292  18.885  0.00  0.00    +0.000 A 
ATOM     22  N   UNL     1      -0.956  13.631  18.946  0.00  0.00    +0.000 N 
ATOM     23  C   UNL     1       0.390  13.868  18.769  0.00  0.00    +0.000 A 
ATOM     24  C   UNL     1       1.091  15.075  18.736  0.00  0.00    +0.000 A 
ATOM     25  C   UNL     1       2.477  15.016  18.548  0.00  0.00    +0.000 A 
ATOM     26  C   UNL     1       3.123  13.793  18.398  0.00  0.00    +0.000 A 
ATOM     27  C   UNL     1       2.406  12.595  18.431  0.00  0.00    +0.000 A 
ATOM     28  C   UNL     1       1.007  12.622  18.620  0.00  0.00    +0.000 A 
ATOM     29  H   UNL     1      -1.643  14.355  19.100  0.00  0.00    +0.000 HD
ENDBRANCH  19  20
ENDBRANCH   1  19
TORSDOF 3
ENDMDL
MODEL 5
REMARK VINA RESULT:      -8.0      2.748      3.526
REMARK  Name = 
REMARK  3 active torsions:
REMARK  status: ('A' for Active; 'I' for Inactive)
REMARK    1  A    between atoms: C_2  and  C_3
REMARK    2  A    between atoms: C_2  and  C_20
REMARK    3  A    between atoms: C_9  and  C_11
REMARK                            x       y       z     vdW  Elec       q    Type
REMARK                         _______ _______ _______ _____ _____    ______ ____
ROOT
ATOM      1  C   UNL     1       0.772   9.408  19.777  0.00  0.00    +0.000 C 
ATOM      2  O   UNL     1       0.142   9.593  20.811  0.00  0.00    +0.000 OA
ATOM      3  N   UNL     1       1.688   8.380  19.575  0.00  0.00    +0.000 N 
ATOM      4  C   UNL     1       1.934   7.405  20.637  0.00  0.00    +0.000 C 
ATOM      5  C   UNL     1       2.054   5.987  20.058  0.00  0.00    +0.000 C 
ATOM      6  N   UNL     1       3.043   5.921  18.968  0.00  0.00    +0.000 N 
ATOM      7  C   UNL     1       3.887   4.794  18.923  0.00  0.00    +0.000 C 
ATOM      8  O   UNL     1       3.824   3.919  19.786  0.00  0.00    +0.000 OA
ATOM      9  C   UNL     1       2.860   6.943  17.925  0.00  0.00    +0.000 C 
ATOM     10  C   UNL     1       2.653   8.356  18.481  0.00  0.00    +0.000 C 
ENDROOT
BRANCH   7  11
ATOM     11  C   UNL     1       4.888   4.619  17.825  0.00  0.00    +0.000 A 
ATOM     12  C   UNL     1       4.497   4.074  16.593  0.00  0.00    +0.000 A 
ATOM     13  C   UNL     1       5.383   4.016  15.515  0.00  0.00    +0.000 A 
ATOM     14  C   UNL     1       6.707   4.399  15.684  0.00  0.00    +0.000 A 
ATOM     15  C   UNL     1       7.146   4.824  16.937  0.00  0.00    +0.000 A 
ATOM     16  C   UNL     1       6.244   4.944  18.007  0.00  0.00    +0.000 A 
ATOM     17 CL   UNL     1       6.909   5.525  19.494  0.00  0.00    +0.000 Cl
ENDBRANCH   7  11
BRANCH   1  19
ATOM     18  O   UNL     1      -0.421   9.913  17.787  0.00  0.00    +0.000 OA
ATOM     19  C   UNL     1       0.463  10.295  18.555  0.00  0.00    +0.000 C 
BRANCH  19  20
ATOM     20  C   UNL     1       1.150  11.577  18.440  0.00  0.00    +0.000 A 
ATOM     21  C   UNL     1       2.436  11.757  17.958  0.00  0.00    +0.000 A 
ATOM     22  N   UNL     1       2.742  13.085  18.021  0.00  0.00    +0.000 N 
ATOM     23  C   UNL     1       1.688  13.794  18.557  0.00  0.00    +0.000 A 
ATOM     24  C   UNL     1       1.569  15.159  18.824  0.00  0.00    +0.000 A 
ATOM     25  C   UNL     1       0.361  15.610  19.369  0.00  0.00    +0.000 A 
ATOM     26  C   UNL     1      -0.676  14.721  19.635  0.00  0.00    +0.000 A 
ATOM     27  C   UNL     1      -0.539  13.358  19.364  0.00  0.00    +0.000 A 
ATOM     28  C   UNL     1       0.667  12.873  18.814  0.00  0.00    +0.000 A 
ATOM     29  H   UNL     1       3.611  13.504  17.721  0.00  0.00    +0.000 HD
ENDBRANCH  19  20
ENDBRANCH   1  19
TORSDOF 3
ENDMDL
MODEL 6
REMARK VINA RESULT:      -8.0      1.374      1.641
REMARK  Name = 
REMARK  3 active torsions:
REMARK  status: ('A' for Active; 'I' for Inactive)
REMARK    1  A    between atoms: C_2  and  C_3
REMARK    2  A    between atoms: C_2  and  C_20
REMARK    3  A    between atoms: C_9  and  C_11
REMARK                            x       y       z     vdW  Elec       q    Type
REMARK                         _______ _______ _______ _____ _____    ______ ____
ROOT
ATOM      1  C   UNL     1       0.689   9.370  19.922  0.00  0.00    +0.000 C 
ATOM      2  O   UNL     1       0.055   9.513  20.960  0.00  0.00    +0.000 OA
ATOM      3  N   UNL     1       1.600   8.347  19.680  0.00  0.00    +0.000 N 
ATOM      4  C   UNL     1       1.836   7.324  20.698  0.00  0.00    +0.000 C 
ATOM      5  C   UNL     1       1.951   5.932  20.058  0.00  0.00    +0.000 C 
ATOM      6  N   UNL     1       2.945   5.909  18.971  0.00  0.00    +0.000 N 
ATOM      7  C   UNL     1       3.783   4.781  18.880  0.00  0.00    +0.000 C 
ATOM      8  O   UNL     1       3.711   3.869  19.704  0.00  0.00    +0.000 OA
ATOM      9  C   UNL     1       2.772   6.978  17.973  0.00  0.00    +0.000 C 
ATOM     10  C   UNL     1       2.571   8.366  18.590  0.00  0.00    +0.000 C 
ENDROOT
BRANCH   7  11
ATOM     11  C   UNL     1       4.789   4.648  17.780  0.00  0.00    +0.000 A 
ATOM     12  C   UNL     1       4.403   4.145  16.528  0.00  0.00    +0.000 A 
ATOM     13  C   UNL     1       5.294   4.129  15.451  0.00  0.00    +0.000 A 
ATOM     14  C   UNL     1       6.615   4.512  15.639  0.00  0.00    +0.000 A 
ATOM     15  C   UNL     1       7.048   4.895  16.907  0.00  0.00    +0.000 A 
ATOM     16  C   UNL     1       6.142   4.973  17.977  0.00  0.00    +0.000 A 
ATOM     17 CL   UNL     1       6.800   5.505  19.487  0.00  0.00    +0.000 Cl
ENDBRANCH   7  11
BRANCH   1  19
ATOM     18  O   UNL     1       1.338  10.930  18.254  0.00  0.00    +0.000 OA
ATOM     19  C   UNL     1       0.390  10.312  18.739  0.00  0.00    +0.000 C 
BRANCH  19  20
ATOM     20  C   UNL     1      -0.965  10.332  18.197  0.00  0.00    +0.000 A 
ATOM     21  C   UNL     1      -1.393   9.631  17.082  0.00  0.00    +0.000 A 
ATOM     22  N   UNL     1      -2.710   9.915  16.869  0.00  0.00    +0.000 N 
ATOM     23  C   UNL     1      -3.165  10.810  17.814  0.00  0.00    +0.000 A 
ATOM     24  C   UNL     1      -4.426  11.388  17.967  0.00  0.00    +0.000 A 
ATOM     25  C   UNL     1      -4.610  12.270  19.039  0.00  0.00    +0.000 A 
ATOM     26  C   UNL     1      -3.565  12.555  19.913  0.00  0.00    +0.000 A 
ATOM     27  C   UNL     1      -2.309  11.970  19.743  0.00  0.00    +0.000 A 
ATOM     28  C   UNL     1      -2.092  11.076  18.672  0.00  0.00    +0.000 A 
ATOM     29  H   UNL     1      -3.284   9.530  16.133  0.00  0.00    +0.000 HD
ENDBRANCH  19  20
ENDBRANCH   1  19
TORSDOF 3
ENDMDL
MODEL 7
REMARK VINA RESULT:      -7.9      1.278      1.822
REMARK  Name = 
REMARK  3 active torsions:
REMARK  status: ('A' for Active; 'I' for Inactive)
REMARK    1  A    between atoms: C_2  and  C_3
REMARK    2  A    between atoms: C_2  and  C_20
REMARK    3  A    between atoms: C_9  and  C_11
REMARK                            x       y       z     vdW  Elec       q    Type
REMARK                         _______ _______ _______ _____ _____    ______ ____
ROOT
ATOM      1  C   UNL     1       0.391   9.578  20.292  0.00  0.00    +0.000 C 
ATOM      2  O   UNL     1      -0.318   9.736  21.278  0.00  0.00    +0.000 OA
ATOM      3  N   UNL     1       1.293   8.534  20.119  0.00  0.00    +0.000 N 
ATOM      4  C   UNL     1       1.426   7.506  21.151  0.00  0.00    +0.000 C 
ATOM      5  C   UNL     1       1.556   6.112  20.519  0.00  0.00    +0.000 C 
ATOM      6  N   UNL     1       2.631   6.064  19.512  0.00  0.00    +0.000 N 
ATOM      7  C   UNL     1       3.446   4.916  19.483  0.00  0.00    +0.000 C 
ATOM      8  O   UNL     1       3.290   4.007  20.298  0.00  0.00    +0.000 OA
ATOM      9  C   UNL     1       2.560   7.136  18.505  0.00  0.00    +0.000 C 
ATOM     10  C   UNL     1       2.345   8.529  19.106  0.00  0.00    +0.000 C 
ENDROOT
BRANCH   7  11
ATOM     11  C   UNL     1       4.530   4.760  18.464  0.00  0.00    +0.000 A 
ATOM     12  C   UNL     1       5.786   5.349  18.673  0.00  0.00    +0.000 A 
ATOM     13  C   UNL     1       6.849   5.113  17.797  0.00  0.00    +0.000 A 
ATOM     14  C   UNL     1       6.642   4.375  16.639  0.00  0.00    +0.000 A 
ATOM     15  C   UNL     1       5.368   3.889  16.351  0.00  0.00    +0.000 A 
ATOM     16  C   UNL     1       4.312   4.070  17.259  0.00  0.00    +0.000 A 
ATOM     17 CL   UNL     1       2.794   3.377  16.800  0.00  0.00    +0.000 Cl
ENDBRANCH   7  11
BRANCH   1  19
ATOM     18  O   UNL     1       1.167  10.678  18.335  0.00  0.00    +0.000 OA
ATOM     19  C   UNL     1       0.206  10.526  19.090  0.00  0.00    +0.000 C 
BRANCH  19  20
ATOM     20  C   UNL     1      -1.117  11.096  18.857  0.00  0.00    +0.000 A 
ATOM     21  C   UNL     1      -1.745  12.024  19.671  0.00  0.00    +0.000 A 
ATOM     22  N   UNL     1      -2.973  12.303  19.146  0.00  0.00    +0.000 N 
ATOM     23  C   UNL     1      -3.184  11.562  18.003  0.00  0.00    +0.000 A 
ATOM     24  C   UNL     1      -4.295  11.510  17.160  0.00  0.00    +0.000 A 
ATOM     25  C   UNL     1      -4.227  10.661  16.049  0.00  0.00    +0.000 A 
ATOM     26  C   UNL     1      -3.090   9.898  15.804  0.00  0.00    +0.000 A 
ATOM     27  C   UNL     1      -1.988   9.959  16.660  0.00  0.00    +0.000 A 
ATOM     28  C   UNL     1      -2.025  10.806  17.789  0.00  0.00    +0.000 A 
ATOM     29  H   UNL     1      -3.641  12.958  19.526  0.00  0.00    +0.000 HD
ENDBRANCH  19  20
ENDBRANCH   1  19
TORSDOF 3
ENDMDL
MODEL 8
REMARK VINA RESULT:      -7.9      2.465      3.691
REMARK  Name = 
REMARK  3 active torsions:
REMARK  status: ('A' for Active; 'I' for Inactive)
REMARK    1  A    between atoms: C_2  and  C_3
REMARK    2  A    between atoms: C_2  and  C_20
REMARK    3  A    between atoms: C_9  and  C_11
REMARK                            x       y       z     vdW  Elec       q    Type
REMARK                         _______ _______ _______ _____ _____    ______ ____
ROOT
ATOM      1  C   UNL     1       0.853  11.448  19.163  0.00  0.00    +0.000 C 
ATOM      2  O   UNL     1       1.151  12.329  18.365  0.00  0.00    +0.000 OA
ATOM      3  N   UNL     1       1.169  10.102  19.016  0.00  0.00    +0.000 N 
ATOM      4  C   UNL     1       1.933   9.654  17.853  0.00  0.00    +0.000 C 
ATOM      5  C   UNL     1       2.980   8.605  18.258  0.00  0.00    +0.000 C 
ATOM      6  N   UNL     1       2.379   7.496  19.019  0.00  0.00    +0.000 N 
ATOM      7  C   UNL     1       2.830   6.192  18.735  0.00  0.00    +0.000 C 
ATOM      8  O   UNL     1       3.667   5.988  17.855  0.00  0.00    +0.000 OA
ATOM      9  C   UNL     1       1.542   7.926  20.151  0.00  0.00    +0.000 C 
ATOM     10  C   UNL     1       0.546   9.033  19.792  0.00  0.00    +0.000 C 
ENDROOT
BRANCH   7  11
ATOM     11  C   UNL     1       2.312   5.010  19.491  0.00  0.00    +0.000 A 
ATOM     12  C   UNL     1       2.704   4.796  20.821  0.00  0.00    +0.000 A 
ATOM     13  C   UNL     1       2.138   3.772  21.585  0.00  0.00    +0.000 A 
ATOM     14  C   UNL     1       1.253   2.877  20.998  0.00  0.00    +0.000 A 
ATOM     15  C   UNL     1       0.950   2.998  19.643  0.00  0.00    +0.000 A 
ATOM     16  C   UNL     1       1.467   4.063  18.887  0.00  0.00    +0.000 A 
ATOM     17 CL   UNL     1       0.975   4.122  17.229  0.00  0.00    +0.000 Cl
ENDBRANCH   7  11
BRANCH   1  19
ATOM     18  O   UNL     1       0.904  11.946  21.484  0.00  0.00    +0.000 OA
ATOM     19  C   UNL     1       0.182  11.851  20.491  0.00  0.00    +0.000 C 
BRANCH  19  20
ATOM     20  C   UNL     1      -1.234  12.201  20.471  0.00  0.00    +0.000 A 
ATOM     21  C   UNL     1      -1.970  12.503  19.337  0.00  0.00    +0.000 A 
ATOM     22  N   UNL     1      -3.247  12.799  19.713  0.00  0.00    +0.000 N 
ATOM     23  C   UNL     1      -3.373  12.719  21.083  0.00  0.00    +0.000 A 
ATOM     24  C   UNL     1      -4.481  12.957  21.898  0.00  0.00    +0.000 A 
ATOM     25  C   UNL     1      -4.321  12.787  23.278  0.00  0.00    +0.000 A 
ATOM     26  C   UNL     1      -3.095  12.397  23.809  0.00  0.00    +0.000 A 
ATOM     27  C   UNL     1      -1.995  12.165  22.980  0.00  0.00    +0.000 A 
ATOM     28  C   UNL     1      -2.126  12.328  21.584  0.00  0.00    +0.000 A 
ATOM     29  H   UNL     1      -4.004  13.041  19.089  0.00  0.00    +0.000 HD
ENDBRANCH  19  20
ENDBRANCH   1  19
TORSDOF 3
ENDMDL
MODEL 9
REMARK VINA RESULT:      -7.7      2.860      3.946
REMARK  Name = 
REMARK  3 active torsions:
REMARK  status: ('A' for Active; 'I' for Inactive)
REMARK    1  A    between atoms: C_2  and  C_3
REMARK    2  A    between atoms: C_2  and  C_20
REMARK    3  A    between atoms: C_9  and  C_11
REMARK                            x       y       z     vdW  Elec       q    Type
REMARK                         _______ _______ _______ _____ _____    ______ ____
ROOT
ATOM      1  C   UNL     1       0.731  11.210  19.500  0.00  0.00    +0.000 C 
ATOM      2  O   UNL     1       0.546  12.011  18.592  0.00  0.00    +0.000 OA
ATOM      3  N   UNL     1       0.991   9.855  19.324  0.00  0.00    +0.000 N 
ATOM      4  C   UNL     1       1.087   9.300  17.974  0.00  0.00    +0.000 C 
ATOM      5  C   UNL     1       2.243   8.291  17.879  0.00  0.00    +0.000 C 
ATOM      6  N   UNL     1       2.157   7.259  18.926  0.00  0.00    +0.000 N 
ATOM      7  C   UNL     1       2.464   5.934  18.561  0.00  0.00    +0.000 C 
ATOM      8  O   UNL     1       2.754   5.647  17.399  0.00  0.00    +0.000 OA
ATOM      9  C   UNL     1       1.984   7.793  20.287  0.00  0.00    +0.000 C 
ATOM     10  C   UNL     1       0.893   8.864  20.391  0.00  0.00    +0.000 C 
ENDROOT
BRANCH   7  11
ATOM     11  C   UNL     1       2.451   4.828  19.568  0.00  0.00    +0.000 A 
ATOM     12  C   UNL     1       1.270   4.518  20.260  0.00  0.00    +0.000 A 
ATOM     13  C   UNL     1       1.202   3.412  21.112  0.00  0.00    +0.000 A 
ATOM     14  C   UNL     1       2.343   2.665  21.371  0.00  0.00    +0.000 A 
ATOM     15  C   UNL     1       3.555   3.036  20.791  0.00  0.00    +0.000 A 
ATOM     16  C   UNL     1       3.616   4.108  19.886  0.00  0.00    +0.000 A 
ATOM     17 CL   UNL     1       5.172   4.434  19.203  0.00  0.00    +0.000 Cl
ENDBRANCH   7  11
BRANCH   1  19
ATOM     18  O   UNL     1       1.868  12.220  21.323  0.00  0.00    +0.000 OA
ATOM     19  C   UNL     1       0.800  11.736  20.947  0.00  0.00    +0.000 C 
BRANCH  19  20
ATOM     20  C   UNL     1      -0.422  11.730  21.743  0.00  0.00    +0.000 A 
ATOM     21  C   UNL     1      -0.680  10.886  22.811  0.00  0.00    +0.000 A 
ATOM     22  N   UNL     1      -1.928  11.159  23.290  0.00  0.00    +0.000 N 
ATOM     23  C   UNL     1      -2.517  12.159  22.547  0.00  0.00    +0.000 A 
ATOM     24  C   UNL     1      -3.782  12.737  22.665  0.00  0.00    +0.000 A 
ATOM     25  C   UNL     1      -4.116  13.757  21.765  0.00  0.00    +0.000 A 
ATOM     26  C   UNL     1      -3.213  14.170  20.791  0.00  0.00    +0.000 A 
ATOM     27  C   UNL     1      -1.952  13.579  20.685  0.00  0.00    +0.000 A 
ATOM     28  C   UNL     1      -1.586  12.549  21.578  0.00  0.00    +0.000 A 
ATOM     29  H   UNL     1      -2.369  10.704  24.077  0.00  0.00    +0.000 HD
ENDBRANCH  19  20
ENDBRANCH   1  19
TORSDOF 3
ENDMDL
