MODEL 1
REMARK VINA RESULT:      -7.8      0.000      0.000
REMARK  Name = 
REMARK  8 active torsions:
REMARK  status: ('A' for Active; 'I' for Inactive)
REMARK    1  A    between atoms: C_1  and  O_2
REMARK    2  A    between atoms: O_2  and  C_3
REMARK    3  A    between atoms: C_5  and  C_6
REMARK    4  A    between atoms: C_6  and  N_8
REMARK    5  A    between atoms: C_16  and  O_17
REMARK    6  A    between atoms: O_17  and  C_18
REMARK    7  A    between atoms: C_18  and  C_19
REMARK    8  A    between atoms: N_21  and  C_22
REMARK                            x       y       z     vdW  Elec       q    Type
REMARK                         _______ _______ _______ _____ _____    ______ ____
ROOT
ATOM      1  C   UNL     1       6.198   5.447  16.310  0.00  0.00    +0.000 A 
ATOM      2  C   UNL     1       5.192   4.486  16.617  0.00  0.00    +0.000 A 
ATOM      3  C   UNL     1       4.862   4.153  17.943  0.00  0.00    +0.000 A 
ATOM      4  C   UNL     1       5.583   4.755  18.966  0.00  0.00    +0.000 A 
ATOM      5  C   UNL     1       6.563   5.696  18.681  0.00  0.00    +0.000 A 
ATOM      6  C   UNL     1       6.891   6.061  17.363  0.00  0.00    +0.000 A 
ENDROOT
BRANCH   1   8
ATOM      7  C   UNL     1       6.866   4.764  14.086  0.00  0.00    +0.000 C 
ATOM      8  O   UNL     1       6.281   5.711  14.967  0.00  0.00    +0.000 OA
ENDBRANCH   1   8
BRANCH   3   9
ATOM      9  C   UNL     1       3.666   3.290  18.289  0.00  0.00    +0.000 C 
ATOM     10  S   UNL     1       3.705   1.602  18.171  0.00  0.00    +0.000 S 
BRANCH   9  11
ATOM     11  N   UNL     1       2.540   3.955  18.774  0.00  0.00    +0.000 N 
ATOM     12  C   UNL     1       2.149   5.272  18.268  0.00  0.00    +0.000 C 
ATOM     13  C   UNL     1       2.350   6.387  19.291  0.00  0.00    +0.000 C 
ATOM     14  C   UNL     1       1.670   6.042  20.613  0.00  0.00    +0.000 C 
ATOM     15  C   UNL     1       2.140   4.678  21.121  0.00  0.00    +0.000 C 
ATOM     16  C   UNL     1       1.963   3.578  20.065  0.00  0.00    +0.000 C 
ENDBRANCH   9  11
ENDBRANCH   3   9
BRANCH   6  17
ATOM     17  O   UNL     1       7.842   7.035  17.144  0.00  0.00    +0.000 OA
BRANCH  17  18
ATOM     18  C   UNL     1       8.145   7.773  18.332  0.00  0.00    +0.000 C 
BRANCH  18  19
ATOM     19  C   UNL     1       8.362   9.246  18.143  0.00  0.00    +0.000 C 
ATOM     20  O   UNL     1       7.609   9.868  17.398  0.00  0.00    +0.000 OA
ATOM     21  N   UNL     1       9.445   9.742  18.830  0.00  0.00    +0.000 N 
ATOM     22  H   UNL     1      10.091   9.058  19.225  0.00  0.00    +0.000 HD
BRANCH  21  23
ATOM     23  C   UNL     1       9.771  11.099  18.934  0.00  0.00    +0.000 A 
ATOM     24  C   UNL     1      10.374  11.777  17.867  0.00  0.00    +0.000 A 
ATOM     25  C   UNL     1      10.694  13.114  17.948  0.00  0.00    +0.000 A 
ATOM     26  C   UNL     1      10.396  13.821  19.119  0.00  0.00    +0.000 A 
ATOM     27  C   UNL     1       9.793  13.166  20.197  0.00  0.00    +0.000 A 
ATOM     28  C   UNL     1       9.501  11.806  20.114  0.00  0.00    +0.000 A 
ATOM     29 CL   UNL     1       8.876  11.011  21.516  0.00  0.00    +0.000 Cl
ENDBRANCH  21  23
ENDBRANCH  18  19
ENDBRANCH  17  18
ENDBRANCH   6  17
TORSDOF 7
ENDMDL
MODEL 2
REMARK VINA RESULT:      -7.7      1.386      1.426
REMARK  Name = 
REMARK  8 active torsions:
REMARK  status: ('A' for Active; 'I' for Inactive)
REMARK    1  A    between atoms: C_1  and  O_2
REMARK    2  A    between atoms: O_2  and  C_3
REMARK    3  A    between atoms: C_5  and  C_6
REMARK    4  A    between atoms: C_6  and  N_8
REMARK    5  A    between atoms: C_16  and  O_17
REMARK    6  A    between atoms: O_17  and  C_18
REMARK    7  A    between atoms: C_18  and  C_19
REMARK    8  A    between atoms: N_21  and  C_22
REMARK                            x       y       z     vdW  Elec       q    Type
REMARK                         _______ _______ _______ _____ _____    ______ ____
ROOT
ATOM      1  C   UNL     1       6.715   5.440  16.825  0.00  0.00    +0.000 A 
ATOM      2  C   UNL     1       5.633   4.521  16.950  0.00  0.00    +0.000 A 
ATOM      3  C   UNL     1       5.036   4.238  18.191  0.00  0.00    +0.000 A 
ATOM      4  C   UNL     1       5.563   4.849  19.323  0.00  0.00    +0.000 A 
ATOM      5  C   UNL     1       6.613   5.750  19.215  0.00  0.00    +0.000 A 
ATOM      6  C   UNL     1       7.208   6.064  17.980  0.00  0.00    +0.000 A 
ENDROOT
BRANCH   1   8
ATOM      7  C   UNL     1       6.743   4.709  14.519  0.00  0.00    +0.000 C 
ATOM      8  O   UNL     1       7.070   5.661  15.520  0.00  0.00    +0.000 OA
ENDBRANCH   1   8
BRANCH   3   9
ATOM      9  C   UNL     1       3.765   3.425  18.313  0.00  0.00    +0.000 C 
ATOM     10  S   UNL     1       3.738   1.749  18.078  0.00  0.00    +0.000 S 
BRANCH   9  11
ATOM     11  N   UNL     1       2.617   4.118  18.694  0.00  0.00    +0.000 N 
ATOM     12  C   UNL     1       2.353   5.480  18.225  0.00  0.00    +0.000 C 
ATOM     13  C   UNL     1       2.470   6.525  19.332  0.00  0.00    +0.000 C 
ATOM     14  C   UNL     1       1.612   6.143  20.535  0.00  0.00    +0.000 C 
ATOM     15  C   UNL     1       1.952   4.730  21.013  0.00  0.00    +0.000 C 
ATOM     16  C   UNL     1       1.863   3.701  19.877  0.00  0.00    +0.000 C 
ENDBRANCH   9  11
ENDBRANCH   3   9
BRANCH   6  17
ATOM     17  O   UNL     1       8.219   7.001  17.931  0.00  0.00    +0.000 OA
BRANCH  17  18
ATOM     18  C   UNL     1       7.717   8.331  17.769  0.00  0.00    +0.000 C 
BRANCH  18  19
ATOM     19  C   UNL     1       8.552   9.418  18.381  0.00  0.00    +0.000 C 
ATOM     20  O   UNL     1       9.059   9.230  19.485  0.00  0.00    +0.000 OA
ATOM     21  N   UNL     1       8.629  10.558  17.617  0.00  0.00    +0.000 N 
ATOM     22  H   UNL     1       7.977  10.632  16.835  0.00  0.00    +0.000 HD
BRANCH  21  23
ATOM     23  C   UNL     1       9.456  11.652  17.895  0.00  0.00    +0.000 A 
ATOM     24  C   UNL     1      10.778  11.463  18.320  0.00  0.00    +0.000 A 
ATOM     25  C   UNL     1      11.610  12.527  18.591  0.00  0.00    +0.000 A 
ATOM     26  C   UNL     1      11.132  13.832  18.420  0.00  0.00    +0.000 A 
ATOM     27  C   UNL     1       9.818  14.045  17.995  0.00  0.00    +0.000 A 
ATOM     28  C   UNL     1       8.976  12.961  17.754  0.00  0.00    +0.000 A 
ATOM     29 CL   UNL     1       7.323  13.275  17.356  0.00  0.00    +0.000 Cl
ENDBRANCH  21  23
ENDBRANCH  18  19
ENDBRANCH  17  18
ENDBRANCH   6  17
TORSDOF 7
ENDMDL
MODEL 3
REMARK VINA RESULT:      -7.4      5.915      8.187
REMARK  Name = 
REMARK  8 active torsions:
REMARK  status: ('A' for Active; 'I' for Inactive)
REMARK    1  A    between atoms: C_1  and  O_2
REMARK    2  A    between atoms: O_2  and  C_3
REMARK    3  A    between atoms: C_5  and  C_6
REMARK    4  A    between atoms: C_6  and  N_8
REMARK    5  A    between atoms: C_16  and  O_17
REMARK    6  A    between atoms: O_17  and  C_18
REMARK    7  A    between atoms: C_18  and  C_19
REMARK    8  A    between atoms: N_21  and  C_22
REMARK                            x       y       z     vdW  Elec       q    Type
REMARK                         _______ _______ _______ _____ _____    ______ ____
ROOT
ATOM      1  C   UNL     1       1.562   8.448  20.048  0.00  0.00    +0.000 A 
ATOM      2  C   UNL     1       2.184   7.167  20.106  0.00  0.00    +0.000 A 
ATOM      3  C   UNL     1       2.836   6.606  18.994  0.00  0.00    +0.000 A 
ATOM      4  C   UNL     1       2.820   7.316  17.800  0.00  0.00    +0.000 A 
ATOM      5  C   UNL     1       2.221   8.567  17.730  0.00  0.00    +0.000 A 
ATOM      6  C   UNL     1       1.586   9.156  18.838  0.00  0.00    +0.000 A 
ENDROOT
BRANCH   1   8
ATOM      7  C   UNL     1      -0.124   8.332  21.780  0.00  0.00    +0.000 C 
ATOM      8  O   UNL     1       1.090   8.860  21.267  0.00  0.00    +0.000 OA
ENDBRANCH   1   8
BRANCH   3   9
ATOM      9  C   UNL     1       3.670   5.346  19.093  0.00  0.00    +0.000 C 
ATOM     10  S   UNL     1       5.362   5.379  19.081  0.00  0.00    +0.000 S 
BRANCH   9  11
ATOM     11  N   UNL     1       2.972   4.150  19.261  0.00  0.00    +0.000 N 
ATOM     12  C   UNL     1       1.534   4.059  19.002  0.00  0.00    +0.000 C 
ATOM     13  C   UNL     1       0.711   3.872  20.274  0.00  0.00    +0.000 C 
ATOM     14  C   UNL     1       1.234   2.696  21.094  0.00  0.00    +0.000 C 
ATOM     15  C   UNL     1       2.730   2.857  21.373  0.00  0.00    +0.000 C 
ATOM     16  C   UNL     1       3.534   3.079  20.085  0.00  0.00    +0.000 C 
ENDBRANCH   9  11
ENDBRANCH   3   9
BRANCH   6  17
ATOM     17  O   UNL     1       1.048  10.421  18.719  0.00  0.00    +0.000 OA
BRANCH  17  18
ATOM     18  C   UNL     1      -0.383  10.407  18.755  0.00  0.00    +0.000 C 
BRANCH  18  19
ATOM     19  C   UNL     1      -1.022  11.493  19.570  0.00  0.00    +0.000 C 
ATOM     20  O   UNL     1      -1.820  12.254  19.028  0.00  0.00    +0.000 OA
ATOM     21  N   UNL     1      -0.597  11.531  20.877  0.00  0.00    +0.000 N 
ATOM     22  H   UNL     1       0.224  10.972  21.110  0.00  0.00    +0.000 HD
BRANCH  21  23
ATOM     23  C   UNL     1      -1.144  12.351  21.871  0.00  0.00    +0.000 A 
ATOM     24  C   UNL     1      -2.358  12.021  22.487  0.00  0.00    +0.000 A 
ATOM     25  C   UNL     1      -2.908  12.810  23.472  0.00  0.00    +0.000 A 
ATOM     26  C   UNL     1      -2.229  13.964  23.885  0.00  0.00    +0.000 A 
ATOM     27  C   UNL     1      -1.016  14.312  23.286  0.00  0.00    +0.000 A 
ATOM     28  C   UNL     1      -0.485  13.522  22.269  0.00  0.00    +0.000 A 
ATOM     29 CL   UNL     1       0.951  14.062  21.471  0.00  0.00    +0.000 Cl
ENDBRANCH  21  23
ENDBRANCH  18  19
ENDBRANCH  17  18
ENDBRANCH   6  17
TORSDOF 7
ENDMDL
MODEL 4
REMARK VINA RESULT:      -7.4      6.683      9.998
REMARK  Name = 
REMARK  8 active torsions:
REMARK  status: ('A' for Active; 'I' for Inactive)
REMARK    1  A    between atoms: C_1  and  O_2
REMARK    2  A    between atoms: O_2  and  C_3
REMARK    3  A    between atoms: C_5  and  C_6
REMARK    4  A    between atoms: C_6  and  N_8
REMARK    5  A    between atoms: C_16  and  O_17
REMARK    6  A    between atoms: O_17  and  C_18
REMARK    7  A    between atoms: C_18  and  C_19
REMARK    8  A    between atoms: N_21  and  C_22
REMARK                            x       y       z     vdW  Elec       q    Type
REMARK                         _______ _______ _______ _____ _____    ______ ____
ROOT
ATOM      1  C   UNL     1       1.199   8.926  20.259  0.00  0.00    +0.000 A 
ATOM      2  C   UNL     1       1.921   7.757  19.880  0.00  0.00    +0.000 A 
ATOM      3  C   UNL     1       2.419   7.580  18.576  0.00  0.00    +0.000 A 
ATOM      4  C   UNL     1       2.146   8.565  17.634  0.00  0.00    +0.000 A 
ATOM      5  C   UNL     1       1.448   9.710  17.991  0.00  0.00    +0.000 A 
ATOM      6  C   UNL     1       0.964   9.917  19.295  0.00  0.00    +0.000 A 
ENDROOT
BRANCH   1   8
ATOM      7  C   UNL     1      -0.434   8.836  22.041  0.00  0.00    +0.000 C 
ATOM      8  O   UNL     1       0.909   8.954  21.598  0.00  0.00    +0.000 OA
ENDBRANCH   1   8
BRANCH   3   9
ATOM      9  C   UNL     1       3.354   6.447  18.212  0.00  0.00    +0.000 C 
ATOM     10  S   UNL     1       4.792   6.700  17.357  0.00  0.00    +0.000 S 
BRANCH   9  11
ATOM     11  N   UNL     1       3.003   5.178  18.674  0.00  0.00    +0.000 N 
ATOM     12  C   UNL     1       3.904   4.394  19.520  0.00  0.00    +0.000 C 
ATOM     13  C   UNL     1       4.482   3.175  18.803  0.00  0.00    +0.000 C 
ATOM     14  C   UNL     1       3.373   2.329  18.186  0.00  0.00    +0.000 C 
ATOM     15  C   UNL     1       2.483   3.183  17.281  0.00  0.00    +0.000 C 
ATOM     16  C   UNL     1       1.941   4.421  18.010  0.00  0.00    +0.000 C 
ENDBRANCH   9  11
ENDBRANCH   3   9
BRANCH   6  17
ATOM     17  O   UNL     1       0.316  11.096  19.601  0.00  0.00    +0.000 OA
BRANCH  17  18
ATOM     18  C   UNL     1      -0.505  11.558  18.523  0.00  0.00    +0.000 C 
BRANCH  18  19
ATOM     19  C   UNL     1      -1.943  11.133  18.577  0.00  0.00    +0.000 C 
ATOM     20  O   UNL     1      -2.214   9.936  18.516  0.00  0.00    +0.000 OA
ATOM     21  N   UNL     1      -2.830  12.181  18.658  0.00  0.00    +0.000 N 
ATOM     22  H   UNL     1      -2.457  13.114  18.479  0.00  0.00    +0.000 HD
BRANCH  21  23
ATOM     23  C   UNL     1      -4.208  12.047  18.865  0.00  0.00    +0.000 A 
ATOM     24  C   UNL     1      -4.775  12.312  20.118  0.00  0.00    +0.000 A 
ATOM     25  C   UNL     1      -6.129  12.194  20.339  0.00  0.00    +0.000 A 
ATOM     26  C   UNL     1      -6.966  11.817  19.280  0.00  0.00    +0.000 A 
ATOM     27  C   UNL     1      -6.423  11.549  18.021  0.00  0.00    +0.000 A 
ATOM     28  C   UNL     1      -5.048  11.642  17.818  0.00  0.00    +0.000 A 
ATOM     29 CL   UNL     1      -4.409  11.177  16.280  0.00  0.00    +0.000 Cl
ENDBRANCH  21  23
ENDBRANCH  18  19
ENDBRANCH  17  18
ENDBRANCH   6  17
TORSDOF 7
ENDMDL
MODEL 5
REMARK VINA RESULT:      -7.4      5.541      8.065
REMARK  Name = 
REMARK  8 active torsions:
REMARK  status: ('A' for Active; 'I' for Inactive)
REMARK    1  A    between atoms: C_1  and  O_2
REMARK    2  A    between atoms: O_2  and  C_3
REMARK    3  A    between atoms: C_5  and  C_6
REMARK    4  A    between atoms: C_6  and  N_8
REMARK    5  A    between atoms: C_16  and  O_17
REMARK    6  A    between atoms: O_17  and  C_18
REMARK    7  A    between atoms: C_18  and  C_19
REMARK    8  A    between atoms: N_21  and  C_22
REMARK                            x       y       z     vdW  Elec       q    Type
REMARK                         _______ _______ _______ _____ _____    ______ ____
ROOT
ATOM      1  C   UNL     1       2.178   8.674  18.374  0.00  0.00    +0.000 A 
ATOM      2  C   UNL     1       3.035   7.707  17.773  0.00  0.00    +0.000 A 
ATOM      3  C   UNL     1       3.361   6.499  18.415  0.00  0.00    +0.000 A 
ATOM      4  C   UNL     1       2.860   6.284  19.693  0.00  0.00    +0.000 A 
ATOM      5  C   UNL     1       2.020   7.216  20.289  0.00  0.00    +0.000 A 
ATOM      6  C   UNL     1       1.663   8.418  19.653  0.00  0.00    +0.000 A 
ENDROOT
BRANCH   1   8
ATOM      7  C   UNL     1       2.285  11.040  17.881  0.00  0.00    +0.000 C 
ATOM      8  O   UNL     1       1.894   9.720  17.535  0.00  0.00    +0.000 OA
ENDBRANCH   1   8
BRANCH   3   9
ATOM      9  C   UNL     1       4.101   5.381  17.713  0.00  0.00    +0.000 C 
ATOM     10  S   UNL     1       5.548   5.641  16.874  0.00  0.00    +0.000 S 
BRANCH   9  11
ATOM     11  N   UNL     1       3.563   4.101  17.843  0.00  0.00    +0.000 N 
ATOM     12  C   UNL     1       2.223   3.779  17.349  0.00  0.00    +0.000 C 
ATOM     13  C   UNL     1       1.219   3.525  18.471  0.00  0.00    +0.000 C 
ATOM     14  C   UNL     1       1.749   2.482  19.450  0.00  0.00    +0.000 C 
ATOM     15  C   UNL     1       3.131   2.882  19.969  0.00  0.00    +0.000 C 
ATOM     16  C   UNL     1       4.114   3.167  18.825  0.00  0.00    +0.000 C 
ENDBRANCH   9  11
ENDBRANCH   3   9
BRANCH   6  17
ATOM     17  O   UNL     1       0.789   9.283  20.277  0.00  0.00    +0.000 OA
BRANCH  17  18
ATOM     18  C   UNL     1       0.396   8.816  21.571  0.00  0.00    +0.000 C 
BRANCH  18  19
ATOM     19  C   UNL     1      -0.096   9.870  22.519  0.00  0.00    +0.000 C 
ATOM     20  O   UNL     1       0.274   9.837  23.690  0.00  0.00    +0.000 OA
ATOM     21  N   UNL     1      -0.965  10.770  21.950  0.00  0.00    +0.000 N 
ATOM     22  H   UNL     1      -1.336  10.531  21.029  0.00  0.00    +0.000 HD
BRANCH  21  23
ATOM     23  C   UNL     1      -1.447  11.923  22.579  0.00  0.00    +0.000 A 
ATOM     24  C   UNL     1      -2.638  11.896  23.316  0.00  0.00    +0.000 A 
ATOM     25  C   UNL     1      -3.123  13.018  23.949  0.00  0.00    +0.000 A 
ATOM     26  C   UNL     1      -2.401  14.216  23.870  0.00  0.00    +0.000 A 
ATOM     27  C   UNL     1      -1.210  14.267  23.142  0.00  0.00    +0.000 A 
ATOM     28  C   UNL     1      -0.744  13.133  22.481  0.00  0.00    +0.000 A 
ATOM     29 CL   UNL     1       0.664  13.277  21.488  0.00  0.00    +0.000 Cl
ENDBRANCH  21  23
ENDBRANCH  18  19
ENDBRANCH  17  18
ENDBRANCH   6  17
TORSDOF 7
ENDMDL
MODEL 6
REMARK VINA RESULT:      -7.4      5.806      8.159
REMARK  Name = 
REMARK  8 active torsions:
REMARK  status: ('A' for Active; 'I' for Inactive)
REMARK    1  A    between atoms: C_1  and  O_2
REMARK    2  A    between atoms: O_2  and  C_3
REMARK    3  A    between atoms: C_5  and  C_6
REMARK    4  A    between atoms: C_6  and  N_8
REMARK    5  A    between atoms: C_16  and  O_17
REMARK    6  A    between atoms: O_17  and  C_18
REMARK    7  A    between atoms: C_18  and  C_19
REMARK    8  A    between atoms: N_21  and  C_22
REMARK                            x       y       z     vdW  Elec       q    Type
REMARK                         _______ _______ _______ _____ _____    ______ ____
ROOT
ATOM      1  C   UNL     1       1.621   8.021  19.919  0.00  0.00    +0.000 A 
ATOM      2  C   UNL     1       2.293   6.764  19.945  0.00  0.00    +0.000 A 
ATOM      3  C   UNL     1       3.159   6.361  18.912  0.00  0.00    +0.000 A 
ATOM      4  C   UNL     1       3.311   7.208  17.821  0.00  0.00    +0.000 A 
ATOM      5  C   UNL     1       2.665   8.437  17.785  0.00  0.00    +0.000 A 
ATOM      6  C   UNL     1       1.816   8.868  18.819  0.00  0.00    +0.000 A 
ENDROOT
BRANCH   1   8
ATOM      7  C   UNL     1       1.478   9.102  22.079  0.00  0.00    +0.000 C 
ATOM      8  O   UNL     1       0.923   8.269  21.072  0.00  0.00    +0.000 OA
ENDBRANCH   1   8
BRANCH   3   9
ATOM      9  C   UNL     1       4.030   5.129  19.020  0.00  0.00    +0.000 C 
ATOM     10  S   UNL     1       5.713   5.222  19.181  0.00  0.00    +0.000 S 
BRANCH   9  11
ATOM     11  N   UNL     1       3.370   3.900  19.043  0.00  0.00    +0.000 N 
ATOM     12  C   UNL     1       2.575   3.436  17.904  0.00  0.00    +0.000 C 
ATOM     13  C   UNL     1       1.075   3.424  18.191  0.00  0.00    +0.000 C 
ATOM     14  C   UNL     1       0.772   2.652  19.472  0.00  0.00    +0.000 C 
ATOM     15  C   UNL     1       1.596   3.198  20.639  0.00  0.00    +0.000 C 
ATOM     16  C   UNL     1       3.096   3.235  20.317  0.00  0.00    +0.000 C 
ENDBRANCH   9  11
ENDBRANCH   3   9
BRANCH   6  17
ATOM     17  O   UNL     1       1.238  10.119  18.747  0.00  0.00    +0.000 OA
BRANCH  17  18
ATOM     18  C   UNL     1      -0.140  10.057  18.366  0.00  0.00    +0.000 C 
BRANCH  18  19
ATOM     19  C   UNL     1      -1.072  10.920  19.166  0.00  0.00    +0.000 C 
ATOM     20  O   UNL     1      -2.232  11.058  18.783  0.00  0.00    +0.000 OA
ATOM     21  N   UNL     1      -0.486  11.507  20.262  0.00  0.00    +0.000 N 
ATOM     22  H   UNL     1       0.533  11.465  20.316  0.00  0.00    +0.000 HD
BRANCH  21  23
ATOM     23  C   UNL     1      -1.171  12.234  21.241  0.00  0.00    +0.000 A 
ATOM     24  C   UNL     1      -1.704  11.596  22.369  0.00  0.00    +0.000 A 
ATOM     25  C   UNL     1      -2.374  12.296  23.347  0.00  0.00    +0.000 A 
ATOM     26  C   UNL     1      -2.513  13.685  23.224  0.00  0.00    +0.000 A 
ATOM     27  C   UNL     1      -1.989  14.343  22.109  0.00  0.00    +0.000 A 
ATOM     28  C   UNL     1      -1.339  13.620  21.111  0.00  0.00    +0.000 A 
ATOM     29 CL   UNL     1      -0.822  14.459  19.690  0.00  0.00    +0.000 Cl
ENDBRANCH  21  23
ENDBRANCH  18  19
ENDBRANCH  17  18
ENDBRANCH   6  17
TORSDOF 7
ENDMDL
MODEL 7
REMARK VINA RESULT:      -7.3      6.323      9.344
REMARK  Name = 
REMARK  8 active torsions:
REMARK  status: ('A' for Active; 'I' for Inactive)
REMARK    1  A    between atoms: C_1  and  O_2
REMARK    2  A    between atoms: O_2  and  C_3
REMARK    3  A    between atoms: C_5  and  C_6
REMARK    4  A    between atoms: C_6  and  N_8
REMARK    5  A    between atoms: C_16  and  O_17
REMARK    6  A    between atoms: O_17  and  C_18
REMARK    7  A    between atoms: C_18  and  C_19
REMARK    8  A    between atoms: N_21  and  C_22
REMARK                            x       y       z     vdW  Elec       q    Type
REMARK                         _______ _______ _______ _____ _____    ______ ____
ROOT
ATOM      1  C   UNL     1       1.535   8.202  20.435  0.00  0.00    +0.000 A 
ATOM      2  C   UNL     1       2.197   6.944  20.331  0.00  0.00    +0.000 A 
ATOM      3  C   UNL     1       2.813   6.525  19.139  0.00  0.00    +0.000 A 
ATOM      4  C   UNL     1       2.720   7.355  18.029  0.00  0.00    +0.000 A 
ATOM      5  C   UNL     1       2.082   8.585  18.118  0.00  0.00    +0.000 A 
ATOM      6  C   UNL     1       1.481   9.033  19.308  0.00  0.00    +0.000 A 
ENDROOT
BRANCH   1   8
ATOM      7  C   UNL     1      -0.274   8.650  21.979  0.00  0.00    +0.000 C 
ATOM      8  O   UNL     1       1.108   8.468  21.711  0.00  0.00    +0.000 OA
ENDBRANCH   1   8
BRANCH   3   9
ATOM      9  C   UNL     1       3.688   5.291  19.069  0.00  0.00    +0.000 C 
ATOM     10  S   UNL     1       5.358   5.380  18.808  0.00  0.00    +0.000 S 
BRANCH   9  11
ATOM     11  N   UNL     1       3.057   4.068  19.294  0.00  0.00    +0.000 N 
ATOM     12  C   UNL     1       1.675   3.828  18.871  0.00  0.00    +0.000 C 
ATOM     13  C   UNL     1       0.704   3.718  20.044  0.00  0.00    +0.000 C 
ATOM     14  C   UNL     1       1.193   2.690  21.061  0.00  0.00    +0.000 C 
ATOM     15  C   UNL     1       2.623   3.005  21.501  0.00  0.00    +0.000 C 
ATOM     16  C   UNL     1       3.575   3.147  20.305  0.00  0.00    +0.000 C 
ENDBRANCH   9  11
ENDBRANCH   3   9
BRANCH   6  17
ATOM     17  O   UNL     1       0.901  10.284  19.347  0.00  0.00    +0.000 OA
BRANCH  17  18
ATOM     18  C   UNL     1       0.139  10.564  18.168  0.00  0.00    +0.000 C 
BRANCH  18  19
ATOM     19  C   UNL     1      -1.351  10.469  18.323  0.00  0.00    +0.000 C 
ATOM     20  O   UNL     1      -1.849   9.391  18.639  0.00  0.00    +0.000 OA
ATOM     21  N   UNL     1      -2.016  11.640  18.049  0.00  0.00    +0.000 N 
ATOM     22  H   UNL     1      -1.478  12.378  17.592  0.00  0.00    +0.000 HD
BRANCH  21  23
ATOM     23  C   UNL     1      -3.383  11.851  18.258  0.00  0.00    +0.000 A 
ATOM     24  C   UNL     1      -3.856  12.341  19.483  0.00  0.00    +0.000 A 
ATOM     25  C   UNL     1      -5.197  12.562  19.705  0.00  0.00    +0.000 A 
ATOM     26  C   UNL     1      -6.113  12.310  18.675  0.00  0.00    +0.000 A 
ATOM     27  C   UNL     1      -5.665  11.823  17.445  0.00  0.00    +0.000 A 
ATOM     28  C   UNL     1      -4.309  11.574  17.243  0.00  0.00    +0.000 A 
ATOM     29 CL   UNL     1      -3.818  10.851  15.751  0.00  0.00    +0.000 Cl
ENDBRANCH  21  23
ENDBRANCH  18  19
ENDBRANCH  17  18
ENDBRANCH   6  17
TORSDOF 7
ENDMDL
MODEL 8
REMARK VINA RESULT:      -7.3      6.602      9.903
REMARK  Name = 
REMARK  8 active torsions:
REMARK  status: ('A' for Active; 'I' for Inactive)
REMARK    1  A    between atoms: C_1  and  O_2
REMARK    2  A    between atoms: O_2  and  C_3
REMARK    3  A    between atoms: C_5  and  C_6
REMARK    4  A    between atoms: C_6  and  N_8
REMARK    5  A    between atoms: C_16  and  O_17
REMARK    6  A    between atoms: O_17  and  C_18
REMARK    7  A    between atoms: C_18  and  C_19
REMARK    8  A    between atoms: N_21  and  C_22
REMARK                            x       y       z     vdW  Elec       q    Type
REMARK                         _______ _______ _______ _____ _____    ______ ____
ROOT
ATOM      1  C   UNL     1       1.019   8.862  20.230  0.00  0.00    +0.000 A 
ATOM      2  C   UNL     1       1.741   7.709  19.808  0.00  0.00    +0.000 A 
ATOM      3  C   UNL     1       2.353   7.634  18.544  0.00  0.00    +0.000 A 
ATOM      4  C   UNL     1       2.195   8.710  17.679  0.00  0.00    +0.000 A 
ATOM      5  C   UNL     1       1.497   9.842  18.079  0.00  0.00    +0.000 A 
ATOM      6  C   UNL     1       0.900   9.945  19.348  0.00  0.00    +0.000 A 
ENDROOT
BRANCH   1   8
ATOM      7  C   UNL     1       1.403   9.326  22.574  0.00  0.00    +0.000 C 
ATOM      8  O   UNL     1       0.606   8.777  21.535  0.00  0.00    +0.000 OA
ENDBRANCH   1   8
BRANCH   3   9
ATOM      9  C   UNL     1       3.287   6.507  18.160  0.00  0.00    +0.000 C 
ATOM     10  S   UNL     1       4.707   6.770  17.278  0.00  0.00    +0.000 S 
BRANCH   9  11
ATOM     11  N   UNL     1       2.951   5.236  18.625  0.00  0.00    +0.000 N 
ATOM     12  C   UNL     1       3.817   4.506  19.554  0.00  0.00    +0.000 C 
ATOM     13  C   UNL     1       4.494   3.297  18.912  0.00  0.00    +0.000 C 
ATOM     14  C   UNL     1       3.467   2.394  18.236  0.00  0.00    +0.000 C 
ATOM     15  C   UNL     1       2.615   3.192  17.247  0.00  0.00    +0.000 C 
ATOM     16  C   UNL     1       1.973   4.422  17.903  0.00  0.00    +0.000 C 
ENDBRANCH   9  11
ENDBRANCH   3   9
BRANCH   6  17
ATOM     17  O   UNL     1       0.258  11.113  19.704  0.00  0.00    +0.000 OA
BRANCH  17  18
ATOM     18  C   UNL     1      -0.505  11.662  18.625  0.00  0.00    +0.000 C 
BRANCH  18  19
ATOM     19  C   UNL     1      -1.937  11.217  18.553  0.00  0.00    +0.000 C 
ATOM     20  O   UNL     1      -2.184  10.045  18.278  0.00  0.00    +0.000 OA
ATOM     21  N   UNL     1      -2.845  12.223  18.782  0.00  0.00    +0.000 N 
ATOM     22  H   UNL     1      -2.483  13.178  18.781  0.00  0.00    +0.000 HD
BRANCH  21  23
ATOM     23  C   UNL     1      -4.226  12.039  18.914  0.00  0.00    +0.000 A 
ATOM     24  C   UNL     1      -5.012  11.680  17.811  0.00  0.00    +0.000 A 
ATOM     25  C   UNL     1      -6.370  11.486  17.922  0.00  0.00    +0.000 A 
ATOM     26  C   UNL     1      -6.983  11.632  19.173  0.00  0.00    +0.000 A 
ATOM     27  C   UNL     1      -6.220  11.988  20.288  0.00  0.00    +0.000 A 
ATOM     28  C   UNL     1      -4.851  12.211  20.157  0.00  0.00    +0.000 A 
ATOM     29 CL   UNL     1      -3.972  12.774  21.535  0.00  0.00    +0.000 Cl
ENDBRANCH  21  23
ENDBRANCH  18  19
ENDBRANCH  17  18
ENDBRANCH   6  17
TORSDOF 7
ENDMDL
MODEL 9
REMARK VINA RESULT:      -7.2      5.599      8.362
REMARK  Name = 
REMARK  8 active torsions:
REMARK  status: ('A' for Active; 'I' for Inactive)
REMARK    1  A    between atoms: C_1  and  O_2
REMARK    2  A    between atoms: O_2  and  C_3
REMARK    3  A    between atoms: C_5  and  C_6
REMARK    4  A    between atoms: C_6  and  N_8
REMARK    5  A    between atoms: C_16  and  O_17
REMARK    6  A    between atoms: O_17  and  C_18
REMARK    7  A    between atoms: C_18  and  C_19
REMARK    8  A    between atoms: N_21  and  C_22
REMARK                            x       y       z     vdW  Elec       q    Type
REMARK                         _______ _______ _______ _____ _____    ______ ____
ROOT
ATOM      1  C   UNL     1       2.049   8.383  18.549  0.00  0.00    +0.000 A 
ATOM      2  C   UNL     1       2.609   7.196  17.994  0.00  0.00    +0.000 A 
ATOM      3  C   UNL     1       2.732   6.011  18.742  0.00  0.00    +0.000 A 
ATOM      4  C   UNL     1       2.332   6.035  20.073  0.00  0.00    +0.000 A 
ATOM      5  C   UNL     1       1.780   7.184  20.624  0.00  0.00    +0.000 A 
ATOM      6  C   UNL     1       1.627   8.371  19.886  0.00  0.00    +0.000 A 
ENDROOT
BRANCH   1   8
ATOM      7  C   UNL     1       2.191  10.729  17.975  0.00  0.00    +0.000 C 
ATOM      8  O   UNL     1       1.912   9.384  17.621  0.00  0.00    +0.000 OA
ENDBRANCH   1   8
BRANCH   3   9
ATOM      9  C   UNL     1       3.135   4.694  18.114  0.00  0.00    +0.000 C 
ATOM     10  S   UNL     1       2.013   3.474  17.774  0.00  0.00    +0.000 S 
BRANCH   9  11
ATOM     11  N   UNL     1       4.479   4.556  17.768  0.00  0.00    +0.000 N 
ATOM     12  C   UNL     1       5.535   4.540  18.782  0.00  0.00    +0.000 C 
ATOM     13  C   UNL     1       6.408   5.792  18.752  0.00  0.00    +0.000 C 
ATOM     14  C   UNL     1       6.948   6.046  17.348  0.00  0.00    +0.000 C 
ATOM     15  C   UNL     1       5.807   6.095  16.332  0.00  0.00    +0.000 C 
ATOM     16  C   UNL     1       4.920   4.843  16.402  0.00  0.00    +0.000 C 
ENDBRANCH   9  11
ENDBRANCH   3   9
BRANCH   6  17
ATOM     17  O   UNL     1       1.030   9.466  20.476  0.00  0.00    +0.000 OA
BRANCH  17  18
ATOM     18  C   UNL     1      -0.041   9.094  21.348  0.00  0.00    +0.000 C 
BRANCH  18  19
ATOM     19  C   UNL     1      -0.413  10.111  22.388  0.00  0.00    +0.000 C 
ATOM     20  O   UNL     1       0.065  10.011  23.516  0.00  0.00    +0.000 OA
ATOM     21  N   UNL     1      -1.308  11.056  21.948  0.00  0.00    +0.000 N 
ATOM     22  H   UNL     1      -1.771  10.871  21.057  0.00  0.00    +0.000 HD
BRANCH  21  23
ATOM     23  C   UNL     1      -1.698  12.187  22.674  0.00  0.00    +0.000 A 
ATOM     24  C   UNL     1      -2.892  12.195  23.405  0.00  0.00    +0.000 A 
ATOM     25  C   UNL     1      -3.288  13.295  24.132  0.00  0.00    +0.000 A 
ATOM     26  C   UNL     1      -2.469  14.431  24.159  0.00  0.00    +0.000 A 
ATOM     27  C   UNL     1      -1.271  14.446  23.439  0.00  0.00    +0.000 A 
ATOM     28  C   UNL     1      -0.896  13.337  22.682  0.00  0.00    +0.000 A 
ATOM     29 CL   UNL     1       0.527  13.449  21.707  0.00  0.00    +0.000 Cl
ENDBRANCH  21  23
ENDBRANCH  18  19
ENDBRANCH  17  18
ENDBRANCH   6  17
TORSDOF 7
ENDMDL
