MODEL 1
REMARK VINA RESULT:      -8.3      0.000      0.000
REMARK  Name = 
REMARK  8 active torsions:
REMARK  status: ('A' for Active; 'I' for Inactive)
REMARK    1  A    between atoms: C_1  and  O_2
REMARK    2  A    between atoms: O_2  and  C_3
REMARK    3  A    between atoms: C_6  and  C_7
REMARK    4  A    between atoms: C_10  and  C_11
REMARK    5  A    between atoms: C_10  and  C_12
REMARK    6  A    between atoms: N_14  and  O_15
REMARK    7  A    between atoms: C_18  and  O_19
REMARK    8  A    between atoms: O_19  and  C_20
REMARK                            x       y       z     vdW  Elec       q    Type
REMARK                         _______ _______ _______ _____ _____    ______ ____
ROOT
ATOM      1  C   UNL     1       1.562   7.222  20.414  0.00  0.00    +0.000 A 
ATOM      2  C   UNL     1       1.831   8.192  19.429  0.00  0.00    +0.000 A 
ATOM      3  C   UNL     1       2.670   7.913  18.350  0.00  0.00    +0.000 A 
ATOM      4  C   UNL     1       3.282   6.667  18.256  0.00  0.00    +0.000 A 
ATOM      5  C   UNL     1       3.095   5.740  19.285  0.00  0.00    +0.000 A 
ATOM      6  C   UNL     1       2.254   6.005  20.371  0.00  0.00    +0.000 A 
ENDROOT
BRANCH   4   7
ATOM      7  C   UNL     1       4.101   6.360  17.063  0.00  0.00    +0.000 C 
ATOM      8  N   UNL     1       4.542   7.270  16.251  0.00  0.00    +0.000 NA
ATOM      9  O   UNL     1       5.255   6.607  15.229  0.00  0.00    +0.000 OA
ATOM     10  C   UNL     1       5.540   5.281  15.687  0.00  0.00    +0.000 C 
ATOM     11  C   UNL     1       5.532   4.337  14.490  0.00  0.00    +0.000 C 
ATOM     12  C   UNL     1       4.430   4.962  16.668  0.00  0.00    +0.000 C 
BRANCH  10  13
ATOM     13  C   UNL     1       6.922   5.236  16.358  0.00  0.00    +0.000 C 
ATOM     14  O   UNL     1       7.784   6.107  16.235  0.00  0.00    +0.000 OA
ATOM     15  N   UNL     1       7.107   4.156  17.198  0.00  0.00    +0.000 N 
ATOM     16  H   UNL     1       6.639   3.279  16.977  0.00  0.00    +0.000 HD
BRANCH  15  17
ATOM     17  O   UNL     1       8.419   4.042  17.725  0.00  0.00    +0.000 OA
ATOM     18  H   UNL     1       8.267   4.122  18.693  0.00  0.00    +0.000 HD
ENDBRANCH  15  17
ENDBRANCH  10  13
ENDBRANCH   4   7
BRANCH   1  20
ATOM     19  C   UNL     1       0.219   8.822  21.498  0.00  0.00    +0.000 C 
ATOM     20  O   UNL     1       0.655   7.462  21.412  0.00  0.00    +0.000 OA
ENDBRANCH   1  20
BRANCH   6  21
ATOM     21  O   UNL     1       2.276   4.982  21.273  0.00  0.00    +0.000 OA
BRANCH  21  22
ATOM     22  C   UNL     1       1.747   3.686  21.016  0.00  0.00    +0.000 C 
ATOM     23  C   UNL     1       0.675   3.733  19.933  0.00  0.00    +0.000 C 
ATOM     24  C   UNL     1       0.834   2.464  19.112  0.00  0.00    +0.000 C 
ATOM     25  C   UNL     1       2.267   1.994  19.300  0.00  0.00    +0.000 C 
ATOM     26  C   UNL     1       2.882   2.870  20.381  0.00  0.00    +0.000 C 
ENDBRANCH  21  22
ENDBRANCH   6  21
TORSDOF 6
ENDMDL
MODEL 2
REMARK VINA RESULT:      -8.0      2.799      6.830
REMARK  Name = 
REMARK  8 active torsions:
REMARK  status: ('A' for Active; 'I' for Inactive)
REMARK    1  A    between atoms: C_1  and  O_2
REMARK    2  A    between atoms: O_2  and  C_3
REMARK    3  A    between atoms: C_6  and  C_7
REMARK    4  A    between atoms: C_10  and  C_11
REMARK    5  A    between atoms: C_10  and  C_12
REMARK    6  A    between atoms: N_14  and  O_15
REMARK    7  A    between atoms: C_18  and  O_19
REMARK    8  A    between atoms: O_19  and  C_20
REMARK                            x       y       z     vdW  Elec       q    Type
REMARK                         _______ _______ _______ _____ _____    ______ ____
ROOT
ATOM      1  C   UNL     1       6.782   6.471  17.021  0.00  0.00    +0.000 A 
ATOM      2  C   UNL     1       6.252   6.442  18.326  0.00  0.00    +0.000 A 
ATOM      3  C   UNL     1       5.254   5.535  18.681  0.00  0.00    +0.000 A 
ATOM      4  C   UNL     1       4.744   4.662  17.726  0.00  0.00    +0.000 A 
ATOM      5  C   UNL     1       5.198   4.758  16.407  0.00  0.00    +0.000 A 
ATOM      6  C   UNL     1       6.201   5.661  16.038  0.00  0.00    +0.000 A 
ENDROOT
BRANCH   4   7
ATOM      7  C   UNL     1       3.747   3.651  18.140  0.00  0.00    +0.000 C 
ATOM      8  N   UNL     1       4.070   2.485  18.609  0.00  0.00    +0.000 NA
ATOM      9  O   UNL     1       2.867   1.793  18.869  0.00  0.00    +0.000 OA
ATOM     10  C   UNL     1       1.807   2.755  18.890  0.00  0.00    +0.000 C 
ATOM     11  C   UNL     1       0.538   2.096  18.360  0.00  0.00    +0.000 C 
ATOM     12  C   UNL     1       2.282   3.877  17.989  0.00  0.00    +0.000 C 
BRANCH  10  13
ATOM     13  C   UNL     1       1.562   3.244  20.326  0.00  0.00    +0.000 C 
ATOM     14  O   UNL     1       0.704   4.070  20.644  0.00  0.00    +0.000 OA
ATOM     15  N   UNL     1       2.342   2.617  21.277  0.00  0.00    +0.000 N 
ATOM     16  H   UNL     1       3.276   2.307  21.016  0.00  0.00    +0.000 HD
BRANCH  15  17
ATOM     17  O   UNL     1       2.210   3.147  22.586  0.00  0.00    +0.000 OA
ATOM     18  H   UNL     1       1.537   3.853  22.463  0.00  0.00    +0.000 HD
ENDBRANCH  15  17
ENDBRANCH  10  13
ENDBRANCH   4   7
BRANCH   1  20
ATOM     19  C   UNL     1       8.061   8.348  17.639  0.00  0.00    +0.000 C 
ATOM     20  O   UNL     1       7.834   7.289  16.705  0.00  0.00    +0.000 OA
ENDBRANCH   1  20
BRANCH   6  21
ATOM     21  O   UNL     1       6.434   5.616  14.695  0.00  0.00    +0.000 OA
BRANCH  21  22
ATOM     22  C   UNL     1       6.766   4.427  13.986  0.00  0.00    +0.000 C 
ATOM     23  C   UNL     1       5.522   3.766  13.405  0.00  0.00    +0.000 C 
ATOM     24  C   UNL     1       5.927   3.192  12.057  0.00  0.00    +0.000 C 
ATOM     25  C   UNL     1       7.143   3.976  11.592  0.00  0.00    +0.000 C 
ATOM     26  C   UNL     1       7.566   4.866  12.751  0.00  0.00    +0.000 C 
ENDBRANCH  21  22
ENDBRANCH   6  21
TORSDOF 6
ENDMDL
MODEL 3
REMARK VINA RESULT:      -7.9      2.920      6.953
REMARK  Name = 
REMARK  8 active torsions:
REMARK  status: ('A' for Active; 'I' for Inactive)
REMARK    1  A    between atoms: C_1  and  O_2
REMARK    2  A    between atoms: O_2  and  C_3
REMARK    3  A    between atoms: C_6  and  C_7
REMARK    4  A    between atoms: C_10  and  C_11
REMARK    5  A    between atoms: C_10  and  C_12
REMARK    6  A    between atoms: N_14  and  O_15
REMARK    7  A    between atoms: C_18  and  O_19
REMARK    8  A    between atoms: O_19  and  C_20
REMARK                            x       y       z     vdW  Elec       q    Type
REMARK                         _______ _______ _______ _____ _____    ______ ____
ROOT
ATOM      1  C   UNL     1       6.893   6.355  17.103  0.00  0.00    +0.000 A 
ATOM      2  C   UNL     1       5.966   6.585  18.138  0.00  0.00    +0.000 A 
ATOM      3  C   UNL     1       4.943   5.676  18.405  0.00  0.00    +0.000 A 
ATOM      4  C   UNL     1       4.809   4.536  17.620  0.00  0.00    +0.000 A 
ATOM      5  C   UNL     1       5.667   4.358  16.531  0.00  0.00    +0.000 A 
ATOM      6  C   UNL     1       6.700   5.259  16.253  0.00  0.00    +0.000 A 
ENDROOT
BRANCH   4   7
ATOM      7  C   UNL     1       3.771   3.542  17.971  0.00  0.00    +0.000 C 
ATOM      8  N   UNL     1       3.973   2.261  17.935  0.00  0.00    +0.000 NA
ATOM      9  O   UNL     1       2.762   1.638  18.306  0.00  0.00    +0.000 OA
ATOM     10  C   UNL     1       1.939   2.626  18.937  0.00  0.00    +0.000 C 
ATOM     11  C   UNL     1       0.479   2.319  18.625  0.00  0.00    +0.000 C 
ATOM     12  C   UNL     1       2.383   3.944  18.335  0.00  0.00    +0.000 C 
BRANCH  10  13
ATOM     13  C   UNL     1       2.149   2.598  20.460  0.00  0.00    +0.000 C 
ATOM     14  O   UNL     1       3.249   2.518  21.010  0.00  0.00    +0.000 OA
ATOM     15  N   UNL     1       0.989   2.751  21.192  0.00  0.00    +0.000 N 
ATOM     16  H   UNL     1       0.117   2.389  20.809  0.00  0.00    +0.000 HD
BRANCH  15  17
ATOM     17  O   UNL     1       1.157   2.605  22.593  0.00  0.00    +0.000 OA
ATOM     18  H   UNL     1       0.245   2.745  22.932  0.00  0.00    +0.000 HD
ENDBRANCH  15  17
ENDBRANCH  10  13
ENDBRANCH   4   7
BRANCH   1  20
ATOM     19  C   UNL     1       7.896   8.409  17.664  0.00  0.00    +0.000 C 
ATOM     20  O   UNL     1       7.959   7.195  16.912  0.00  0.00    +0.000 OA
ENDBRANCH   1  20
BRANCH   6  21
ATOM     21  O   UNL     1       7.364   4.913  15.113  0.00  0.00    +0.000 OA
BRANCH  21  22
ATOM     22  C   UNL     1       6.802   5.008  13.808  0.00  0.00    +0.000 C 
ATOM     23  C   UNL     1       7.891   5.095  12.745  0.00  0.00    +0.000 C 
ATOM     24  C   UNL     1       7.388   4.308  11.545  0.00  0.00    +0.000 C 
ATOM     25  C   UNL     1       6.359   3.319  12.068  0.00  0.00    +0.000 C 
ATOM     26  C   UNL     1       6.117   3.662  13.530  0.00  0.00    +0.000 C 
ENDBRANCH  21  22
ENDBRANCH   6  21
TORSDOF 6
ENDMDL
MODEL 4
REMARK VINA RESULT:      -7.8      2.938      6.738
REMARK  Name = 
REMARK  8 active torsions:
REMARK  status: ('A' for Active; 'I' for Inactive)
REMARK    1  A    between atoms: C_1  and  O_2
REMARK    2  A    between atoms: O_2  and  C_3
REMARK    3  A    between atoms: C_6  and  C_7
REMARK    4  A    between atoms: C_10  and  C_11
REMARK    5  A    between atoms: C_10  and  C_12
REMARK    6  A    between atoms: N_14  and  O_15
REMARK    7  A    between atoms: C_18  and  O_19
REMARK    8  A    between atoms: O_19  and  C_20
REMARK                            x       y       z     vdW  Elec       q    Type
REMARK                         _______ _______ _______ _____ _____    ______ ____
ROOT
ATOM      1  C   UNL     1       6.894   6.564  17.051  0.00  0.00    +0.000 A 
ATOM      2  C   UNL     1       6.479   6.546  18.397  0.00  0.00    +0.000 A 
ATOM      3  C   UNL     1       5.510   5.647  18.842  0.00  0.00    +0.000 A 
ATOM      4  C   UNL     1       4.915   4.770  17.941  0.00  0.00    +0.000 A 
ATOM      5  C   UNL     1       5.254   4.856  16.587  0.00  0.00    +0.000 A 
ATOM      6  C   UNL     1       6.226   5.751  16.127  0.00  0.00    +0.000 A 
ENDROOT
BRANCH   4   7
ATOM      7  C   UNL     1       3.953   3.768  18.446  0.00  0.00    +0.000 C 
ATOM      8  N   UNL     1       3.867   2.563  17.973  0.00  0.00    +0.000 NA
ATOM      9  O   UNL     1       2.832   1.911  18.677  0.00  0.00    +0.000 OA
ATOM     10  C   UNL     1       2.563   2.671  19.860  0.00  0.00    +0.000 C 
ATOM     11  C   UNL     1       1.080   2.556  20.189  0.00  0.00    +0.000 C 
ATOM     12  C   UNL     1       2.957   4.092  19.506  0.00  0.00    +0.000 C 
BRANCH  10  13
ATOM     13  C   UNL     1       3.388   2.130  21.038  0.00  0.00    +0.000 C 
ATOM     14  O   UNL     1       2.976   2.046  22.196  0.00  0.00    +0.000 OA
ATOM     15  N   UNL     1       4.636   1.658  20.684  0.00  0.00    +0.000 N 
ATOM     16  H   UNL     1       5.122   2.097  19.904  0.00  0.00    +0.000 HD
BRANCH  15  17
ATOM     17  O   UNL     1       5.449   1.270  21.780  0.00  0.00    +0.000 OA
ATOM     18  H   UNL     1       6.040   2.046  21.891  0.00  0.00    +0.000 HD
ENDBRANCH  15  17
ENDBRANCH  10  13
ENDBRANCH   4   7
BRANCH   1  20
ATOM     19  C   UNL     1       8.180   8.482  17.506  0.00  0.00    +0.000 C 
ATOM     20  O   UNL     1       7.919   7.374  16.640  0.00  0.00    +0.000 OA
ENDBRANCH   1  20
BRANCH   6  21
ATOM     21  O   UNL     1       6.342   5.697  14.769  0.00  0.00    +0.000 OA
BRANCH  21  22
ATOM     22  C   UNL     1       6.817   4.559  14.058  0.00  0.00    +0.000 C 
ATOM     23  C   UNL     1       5.667   3.787  13.422  0.00  0.00    +0.000 C 
ATOM     24  C   UNL     1       6.176   3.278  12.083  0.00  0.00    +0.000 C 
ATOM     25  C   UNL     1       7.323   4.187  11.674  0.00  0.00    +0.000 C 
ATOM     26  C   UNL     1       7.612   5.096  12.859  0.00  0.00    +0.000 C 
ENDBRANCH  21  22
ENDBRANCH   6  21
TORSDOF 6
ENDMDL
MODEL 5
REMARK VINA RESULT:      -7.8      3.311      6.546
REMARK  Name = 
REMARK  8 active torsions:
REMARK  status: ('A' for Active; 'I' for Inactive)
REMARK    1  A    between atoms: C_1  and  O_2
REMARK    2  A    between atoms: O_2  and  C_3
REMARK    3  A    between atoms: C_6  and  C_7
REMARK    4  A    between atoms: C_10  and  C_11
REMARK    5  A    between atoms: C_10  and  C_12
REMARK    6  A    between atoms: N_14  and  O_15
REMARK    7  A    between atoms: C_18  and  O_19
REMARK    8  A    between atoms: O_19  and  C_20
REMARK                            x       y       z     vdW  Elec       q    Type
REMARK                         _______ _______ _______ _____ _____    ______ ____
ROOT
ATOM      1  C   UNL     1       3.502   6.079  18.781  0.00  0.00    +0.000 A 
ATOM      2  C   UNL     1       3.508   7.036  17.748  0.00  0.00    +0.000 A 
ATOM      3  C   UNL     1       2.735   8.193  17.830  0.00  0.00    +0.000 A 
ATOM      4  C   UNL     1       1.915   8.398  18.934  0.00  0.00    +0.000 A 
ATOM      5  C   UNL     1       1.832   7.403  19.912  0.00  0.00    +0.000 A 
ATOM      6  C   UNL     1       2.604   6.238  19.844  0.00  0.00    +0.000 A 
ENDROOT
BRANCH   4   7
ATOM      7  C   UNL     1       1.167   9.669  19.044  0.00  0.00    +0.000 C 
ATOM      8  N   UNL     1       1.556  10.774  18.487  0.00  0.00    +0.000 NA
ATOM      9  O   UNL     1       0.614  11.768  18.827  0.00  0.00    +0.000 OA
ATOM     10  C   UNL     1      -0.565  11.107  19.301  0.00  0.00    +0.000 C 
ATOM     11  C   UNL     1      -1.217  11.977  20.369  0.00  0.00    +0.000 C 
ATOM     12  C   UNL     1      -0.072   9.790  19.865  0.00  0.00    +0.000 C 
BRANCH  10  13
ATOM     13  C   UNL     1      -1.555  10.895  18.145  0.00  0.00    +0.000 C 
ATOM     14  O   UNL     1      -2.384   9.984  18.097  0.00  0.00    +0.000 OA
ATOM     15  N   UNL     1      -1.504  11.872  17.171  0.00  0.00    +0.000 N 
ATOM     16  H   UNL     1      -0.611  12.322  16.977  0.00  0.00    +0.000 HD
BRANCH  15  17
ATOM     17  O   UNL     1      -2.327  11.619  16.044  0.00  0.00    +0.000 OA
ATOM     18  H   UNL     1      -3.231  11.742  16.409  0.00  0.00    +0.000 HD
ENDBRANCH  15  17
ENDBRANCH  10  13
ENDBRANCH   4   7
BRANCH   1  20
ATOM     19  C   UNL     1       5.681   5.276  19.163  0.00  0.00    +0.000 C 
ATOM     20  O   UNL     1       4.342   4.998  18.746  0.00  0.00    +0.000 OA
ENDBRANCH   1  20
BRANCH   6  21
ATOM     21  O   UNL     1       2.311   5.391  20.872  0.00  0.00    +0.000 OA
BRANCH  21  22
ATOM     22  C   UNL     1       1.503   4.227  20.734  0.00  0.00    +0.000 C 
ATOM     23  C   UNL     1       0.992   4.077  19.306  0.00  0.00    +0.000 C 
ATOM     24  C   UNL     1       0.996   2.588  18.999  0.00  0.00    +0.000 C 
ATOM     25  C   UNL     1       2.005   1.948  19.938  0.00  0.00    +0.000 C 
ATOM     26  C   UNL     1       2.440   3.024  20.922  0.00  0.00    +0.000 C 
ENDBRANCH  21  22
ENDBRANCH   6  21
TORSDOF 6
ENDMDL
MODEL 6
REMARK VINA RESULT:      -7.8      2.825      5.941
REMARK  Name = 
REMARK  8 active torsions:
REMARK  status: ('A' for Active; 'I' for Inactive)
REMARK    1  A    between atoms: C_1  and  O_2
REMARK    2  A    between atoms: O_2  and  C_3
REMARK    3  A    between atoms: C_6  and  C_7
REMARK    4  A    between atoms: C_10  and  C_11
REMARK    5  A    between atoms: C_10  and  C_12
REMARK    6  A    between atoms: N_14  and  O_15
REMARK    7  A    between atoms: C_18  and  O_19
REMARK    8  A    between atoms: O_19  and  C_20
REMARK                            x       y       z     vdW  Elec       q    Type
REMARK                         _______ _______ _______ _____ _____    ______ ____
ROOT
ATOM      1  C   UNL     1       4.486   5.168  17.318  0.00  0.00    +0.000 A 
ATOM      2  C   UNL     1       4.807   6.538  17.260  0.00  0.00    +0.000 A 
ATOM      3  C   UNL     1       3.912   7.509  17.708  0.00  0.00    +0.000 A 
ATOM      4  C   UNL     1       2.665   7.128  18.192  0.00  0.00    +0.000 A 
ATOM      5  C   UNL     1       2.308   5.777  18.156  0.00  0.00    +0.000 A 
ATOM      6  C   UNL     1       3.196   4.792  17.713  0.00  0.00    +0.000 A 
ENDROOT
BRANCH   4   7
ATOM      7  C   UNL     1       1.763   8.164  18.740  0.00  0.00    +0.000 C 
ATOM      8  N   UNL     1       1.616   8.378  20.011  0.00  0.00    +0.000 NA
ATOM      9  O   UNL     1       0.667   9.414  20.152  0.00  0.00    +0.000 OA
ATOM     10  C   UNL     1       0.543  10.067  18.885  0.00  0.00    +0.000 C 
ATOM     11  C   UNL     1      -0.893  10.553  18.723  0.00  0.00    +0.000 C 
ATOM     12  C   UNL     1       0.900   9.005  17.864  0.00  0.00    +0.000 C 
BRANCH  10  13
ATOM     13  C   UNL     1       1.497  11.270  18.811  0.00  0.00    +0.000 C 
ATOM     14  O   UNL     1       1.689  12.063  19.734  0.00  0.00    +0.000 OA
ATOM     15  N   UNL     1       2.205  11.357  17.629  0.00  0.00    +0.000 N 
ATOM     16  H   UNL     1       1.769  11.022  16.772  0.00  0.00    +0.000 HD
BRANCH  15  17
ATOM     17  O   UNL     1       2.995  12.528  17.504  0.00  0.00    +0.000 OA
ATOM     18  H   UNL     1       3.893  12.205  17.736  0.00  0.00    +0.000 HD
ENDBRANCH  15  17
ENDBRANCH  10  13
ENDBRANCH   4   7
BRANCH   1  20
ATOM     19  C   UNL     1       5.602   4.055  15.570  0.00  0.00    +0.000 C 
ATOM     20  O   UNL     1       5.407   4.213  16.978  0.00  0.00    +0.000 OA
ENDBRANCH   1  20
BRANCH   6  21
ATOM     21  O   UNL     1       2.608   3.562  17.713  0.00  0.00    +0.000 OA
BRANCH  21  22
ATOM     22  C   UNL     1       2.514   2.727  18.862  0.00  0.00    +0.000 C 
ATOM     23  C   UNL     1       3.390   3.249  19.995  0.00  0.00    +0.000 C 
ATOM     24  C   UNL     1       2.629   2.987  21.285  0.00  0.00    +0.000 C 
ATOM     25  C   UNL     1       1.159   2.881  20.915  0.00  0.00    +0.000 C 
ATOM     26  C   UNL     1       1.083   2.882  19.396  0.00  0.00    +0.000 C 
ENDBRANCH  21  22
ENDBRANCH   6  21
TORSDOF 6
ENDMDL
MODEL 7
REMARK VINA RESULT:      -7.7      2.840      5.826
REMARK  Name = 
REMARK  8 active torsions:
REMARK  status: ('A' for Active; 'I' for Inactive)
REMARK    1  A    between atoms: C_1  and  O_2
REMARK    2  A    between atoms: O_2  and  C_3
REMARK    3  A    between atoms: C_6  and  C_7
REMARK    4  A    between atoms: C_10  and  C_11
REMARK    5  A    between atoms: C_10  and  C_12
REMARK    6  A    between atoms: N_14  and  O_15
REMARK    7  A    between atoms: C_18  and  O_19
REMARK    8  A    between atoms: O_19  and  C_20
REMARK                            x       y       z     vdW  Elec       q    Type
REMARK                         _______ _______ _______ _____ _____    ______ ____
ROOT
ATOM      1  C   UNL     1       4.931   5.528  17.896  0.00  0.00    +0.000 A 
ATOM      2  C   UNL     1       4.631   6.611  17.048  0.00  0.00    +0.000 A 
ATOM      3  C   UNL     1       3.619   7.518  17.364  0.00  0.00    +0.000 A 
ATOM      4  C   UNL     1       2.866   7.337  18.520  0.00  0.00    +0.000 A 
ATOM      5  C   UNL     1       3.097   6.207  19.309  0.00  0.00    +0.000 A 
ATOM      6  C   UNL     1       4.111   5.291  19.006  0.00  0.00    +0.000 A 
ENDROOT
BRANCH   4   7
ATOM      7  C   UNL     1       1.855   8.354  18.882  0.00  0.00    +0.000 C 
ATOM      8  N   UNL     1       1.477   8.576  20.103  0.00  0.00    +0.000 NA
ATOM      9  O   UNL     1       0.493   9.587  20.056  0.00  0.00    +0.000 OA
ATOM     10  C   UNL     1       0.583  10.225  18.778  0.00  0.00    +0.000 C 
ATOM     11  C   UNL     1      -0.811  10.672  18.354  0.00  0.00    +0.000 C 
ATOM     12  C   UNL     1       1.144   9.164  17.853  0.00  0.00    +0.000 C 
BRANCH  10  13
ATOM     13  C   UNL     1       1.506  11.452  18.861  0.00  0.00    +0.000 C 
ATOM     14  O   UNL     1       1.621  12.170  19.855  0.00  0.00    +0.000 OA
ATOM     15  N   UNL     1       2.279  11.654  17.735  0.00  0.00    +0.000 N 
ATOM     16  H   UNL     1       1.903  11.381  16.828  0.00  0.00    +0.000 HD
BRANCH  15  17
ATOM     17  O   UNL     1       3.041  12.849  17.754  0.00  0.00    +0.000 OA
ATOM     18  H   UNL     1       3.671  12.688  18.491  0.00  0.00    +0.000 HD
ENDBRANCH  15  17
ENDBRANCH  10  13
ENDBRANCH   4   7
BRANCH   1  20
ATOM     19  C   UNL     1       7.251   5.194  18.108  0.00  0.00    +0.000 C 
ATOM     20  O   UNL     1       5.993   4.703  17.637  0.00  0.00    +0.000 OA
ENDBRANCH   1  20
BRANCH   6  21
ATOM     21  O   UNL     1       4.107   4.244  19.880  0.00  0.00    +0.000 OA
BRANCH  21  22
ATOM     22  C   UNL     1       3.159   3.182  19.841  0.00  0.00    +0.000 C 
ATOM     23  C   UNL     1       1.955   3.485  20.724  0.00  0.00    +0.000 C 
ATOM     24  C   UNL     1       0.738   2.928  20.003  0.00  0.00    +0.000 C 
ATOM     25  C   UNL     1       1.099   2.848  18.529  0.00  0.00    +0.000 C 
ATOM     26  C   UNL     1       2.582   3.167  18.417  0.00  0.00    +0.000 C 
ENDBRANCH  21  22
ENDBRANCH   6  21
TORSDOF 6
ENDMDL
MODEL 8
REMARK VINA RESULT:      -7.6      3.004      5.022
REMARK  Name = 
REMARK  8 active torsions:
REMARK  status: ('A' for Active; 'I' for Inactive)
REMARK    1  A    between atoms: C_1  and  O_2
REMARK    2  A    between atoms: O_2  and  C_3
REMARK    3  A    between atoms: C_6  and  C_7
REMARK    4  A    between atoms: C_10  and  C_11
REMARK    5  A    between atoms: C_10  and  C_12
REMARK    6  A    between atoms: N_14  and  O_15
REMARK    7  A    between atoms: C_18  and  O_19
REMARK    8  A    between atoms: O_19  and  C_20
REMARK                            x       y       z     vdW  Elec       q    Type
REMARK                         _______ _______ _______ _____ _____    ______ ____
ROOT
ATOM      1  C   UNL     1       0.536   9.421  20.773  0.00  0.00    +0.000 A 
ATOM      2  C   UNL     1       1.254   8.349  21.338  0.00  0.00    +0.000 A 
ATOM      3  C   UNL     1       2.037   7.508  20.548  0.00  0.00    +0.000 A 
ATOM      4  C   UNL     1       2.089   7.704  19.172  0.00  0.00    +0.000 A 
ATOM      5  C   UNL     1       1.298   8.704  18.599  0.00  0.00    +0.000 A 
ATOM      6  C   UNL     1       0.511   9.558  19.379  0.00  0.00    +0.000 A 
ENDROOT
BRANCH   4   7
ATOM      7  C   UNL     1       2.989   6.856  18.361  0.00  0.00    +0.000 C 
ATOM      8  N   UNL     1       3.934   7.335  17.613  0.00  0.00    +0.000 NA
ATOM      9  O   UNL     1       4.560   6.240  16.979  0.00  0.00    +0.000 OA
ATOM     10  C   UNL     1       4.185   5.054  17.688  0.00  0.00    +0.000 C 
ATOM     11  C   UNL     1       4.105   3.897  16.699  0.00  0.00    +0.000 C 
ATOM     12  C   UNL     1       2.835   5.375  18.296  0.00  0.00    +0.000 C 
BRANCH  10  13
ATOM     13  C   UNL     1       5.231   4.727  18.766  0.00  0.00    +0.000 C 
ATOM     14  O   UNL     1       5.218   3.711  19.463  0.00  0.00    +0.000 OA
ATOM     15  N   UNL     1       6.261   5.642  18.850  0.00  0.00    +0.000 N 
ATOM     16  H   UNL     1       6.067   6.618  18.633  0.00  0.00    +0.000 HD
BRANCH  15  17
ATOM     17  O   UNL     1       7.162   5.414  19.921  0.00  0.00    +0.000 OA
ATOM     18  H   UNL     1       7.226   6.301  20.338  0.00  0.00    +0.000 HD
ENDBRANCH  15  17
ENDBRANCH  10  13
ENDBRANCH   4   7
BRANCH   1  20
ATOM     19  C   UNL     1      -0.429   9.829  22.881  0.00  0.00    +0.000 C 
ATOM     20  O   UNL     1      -0.145  10.308  21.564  0.00  0.00    +0.000 OA
ENDBRANCH   1  20
BRANCH   6  21
ATOM     21  O   UNL     1      -0.215  10.409  18.600  0.00  0.00    +0.000 OA
BRANCH  21  22
ATOM     22  C   UNL     1      -1.613  10.276  18.369  0.00  0.00    +0.000 C 
ATOM     23  C   UNL     1      -2.305  11.634  18.377  0.00  0.00    +0.000 C 
ATOM     24  C   UNL     1      -3.392  11.573  17.315  0.00  0.00    +0.000 C 
ATOM     25  C   UNL     1      -2.983  10.489  16.330  0.00  0.00    +0.000 C 
ATOM     26  C   UNL     1      -1.770   9.787  16.921  0.00  0.00    +0.000 C 
ENDBRANCH  21  22
ENDBRANCH   6  21
TORSDOF 6
ENDMDL
MODEL 9
REMARK VINA RESULT:      -7.6      2.757      6.586
REMARK  Name = 
REMARK  8 active torsions:
REMARK  status: ('A' for Active; 'I' for Inactive)
REMARK    1  A    between atoms: C_1  and  O_2
REMARK    2  A    between atoms: O_2  and  C_3
REMARK    3  A    between atoms: C_6  and  C_7
REMARK    4  A    between atoms: C_10  and  C_11
REMARK    5  A    between atoms: C_10  and  C_12
REMARK    6  A    between atoms: N_14  and  O_15
REMARK    7  A    between atoms: C_18  and  O_19
REMARK    8  A    between atoms: O_19  and  C_20
REMARK                            x       y       z     vdW  Elec       q    Type
REMARK                         _______ _______ _______ _____ _____    ______ ____
ROOT
ATOM      1  C   UNL     1       2.610   4.264  19.553  0.00  0.00    +0.000 A 
ATOM      2  C   UNL     1       2.009   5.025  20.574  0.00  0.00    +0.000 A 
ATOM      3  C   UNL     1       1.793   6.394  20.423  0.00  0.00    +0.000 A 
ATOM      4  C   UNL     1       2.207   7.034  19.260  0.00  0.00    +0.000 A 
ATOM      5  C   UNL     1       2.894   6.299  18.289  0.00  0.00    +0.000 A 
ATOM      6  C   UNL     1       3.114   4.925  18.426  0.00  0.00    +0.000 A 
ENDROOT
BRANCH   4   7
ATOM      7  C   UNL     1       1.895   8.469  19.082  0.00  0.00    +0.000 C 
ATOM      8  N   UNL     1       2.218   9.140  18.020  0.00  0.00    +0.000 NA
ATOM      9  O   UNL     1       1.784  10.469  18.218  0.00  0.00    +0.000 OA
ATOM     10  C   UNL     1       0.842  10.463  19.297  0.00  0.00    +0.000 C 
ATOM     11  C   UNL     1       0.964  11.776  20.060  0.00  0.00    +0.000 C 
ATOM     12  C   UNL     1       1.234   9.273  20.149  0.00  0.00    +0.000 C 
BRANCH  10  13
ATOM     13  C   UNL     1      -0.589  10.324  18.751  0.00  0.00    +0.000 C 
ATOM     14  O   UNL     1      -1.609  10.511  19.417  0.00  0.00    +0.000 OA
ATOM     15  N   UNL     1      -0.653  10.043  17.401  0.00  0.00    +0.000 N 
ATOM     16  H   UNL     1       0.089   9.486  16.981  0.00  0.00    +0.000 HD
BRANCH  15  17
ATOM     17  O   UNL     1      -1.963   9.794  16.917  0.00  0.00    +0.000 OA
ATOM     18  H   UNL     1      -1.948  10.225  16.034  0.00  0.00    +0.000 HD
ENDBRANCH  15  17
ENDBRANCH  10  13
ENDBRANCH   4   7
BRANCH   1  20
ATOM     19  C   UNL     1       1.476   2.204  19.645  0.00  0.00    +0.000 C 
ATOM     20  O   UNL     1       2.723   2.904  19.661  0.00  0.00    +0.000 OA
ENDBRANCH   1  20
BRANCH   6  21
ATOM     21  O   UNL     1       3.854   4.438  17.388  0.00  0.00    +0.000 OA
BRANCH  21  22
ATOM     22  C   UNL     1       5.025   5.071  16.883  0.00  0.00    +0.000 C 
ATOM     23  C   UNL     1       6.256   4.675  17.690  0.00  0.00    +0.000 C 
ATOM     24  C   UNL     1       7.404   4.562  16.700  0.00  0.00    +0.000 C 
ATOM     25  C   UNL     1       6.785   4.307  15.336  0.00  0.00    +0.000 C 
ATOM     26  C   UNL     1       5.281   4.469  15.494  0.00  0.00    +0.000 C 
ENDBRANCH  21  22
ENDBRANCH   6  21
TORSDOF 6
ENDMDL
