MODEL 1
REMARK VINA RESULT:      -8.4      0.000      0.000
REMARK  Name = 
REMARK  6 active torsions:
REMARK  status: ('A' for Active; 'I' for Inactive)
REMARK    1  A    between atoms: C_1  and  C_2
REMARK    2  A    between atoms: C_2  and  C_3
REMARK    3  A    between atoms: C_2  and  C_5
REMARK    4  A    between atoms: C_3  and  N_4
REMARK    5  A    between atoms: C_8  and  C_9
REMARK    6  A    between atoms: C_10  and  O_11
REMARK                            x       y       z     vdW  Elec       q    Type
REMARK                         _______ _______ _______ _____ _____    ______ ____
ROOT
ATOM      1  C   UNL     1       3.459   6.367  17.771  0.00  0.00    +0.000 A 
ATOM      2  C   UNL     1       4.534   6.757  16.904  0.00  0.00    +0.000 A 
ATOM      3  C   UNL     1       5.238   5.903  16.057  0.00  0.00    +0.000 A 
ATOM      4  C   UNL     1       5.123   4.553  16.261  0.00  0.00    +0.000 A 
ATOM      5 CL   UNL     1       6.161   3.467  15.411  0.00  0.00    +0.000 Cl
ATOM      6  C   UNL     1       4.294   4.121  17.285  0.00  0.00    +0.000 A 
ATOM      7  N   UNL     1       4.685   2.951  18.004  0.00  0.00    +0.000 N 
ATOM      8  C   UNL     1       4.279   2.821  19.324  0.00  0.00    +0.000 A 
ATOM      9  O   UNL     1       5.005   2.418  20.222  0.00  0.00    +0.000 OA
ATOM     10  C   UNL     1       2.868   3.145  19.397  0.00  0.00    +0.000 A 
ATOM     11  S   UNL     1       1.811   1.891  19.866  0.00  0.00    +0.000 S 
ATOM     12  C   UNL     1       0.701   2.400  18.667  0.00  0.00    +0.000 A 
ATOM     13  C   UNL     1       1.037   3.640  18.144  0.00  0.00    +0.000 A 
ATOM     14  C   UNL     1       2.305   4.154  18.655  0.00  0.00    +0.000 A 
ATOM     15  C   UNL     1       3.292   4.961  17.882  0.00  0.00    +0.000 A 
ATOM     16  H   UNL     1       5.561   2.505  17.751  0.00  0.00    +0.000 HD
ENDROOT
BRANCH   1  20
ATOM     17  C   UNL     1       0.850   9.041  20.007  0.00  0.00    +0.000 A 
ATOM     18  C   UNL     1       1.505   7.971  20.610  0.00  0.00    +0.000 A 
ATOM     19  C   UNL     1       2.484   7.247  19.919  0.00  0.00    +0.000 A 
ATOM     20  C   UNL     1       2.791   7.467  18.548  0.00  0.00    +0.000 A 
ATOM     21  C   UNL     1       2.189   8.591  17.982  0.00  0.00    +0.000 A 
ATOM     22  C   UNL     1       1.239   9.375  18.700  0.00  0.00    +0.000 A 
BRANCH  17  24
ATOM     23  C   UNL     1      -0.169   9.350  22.274  0.00  0.00    +0.000 C 
ATOM     24  C   UNL     1      -0.173   9.837  20.822  0.00  0.00    +0.000 C 
BRANCH  24  25
ATOM     25  C   UNL     1      -0.021  11.379  20.722  0.00  0.00    +0.000 C 
BRANCH  25  26
ATOM     26  N   UNL     1       1.235  11.860  21.316  0.00  0.00    +0.000 NA
ATOM     27  H   UNL     1       1.046  12.619  21.971  0.00  0.00    +0.000 HD
ATOM     28  H   UNL     1       1.836  12.250  20.592  0.00  0.00    +0.000 HD
ENDBRANCH  25  26
ENDBRANCH  24  25
ENDBRANCH  17  24
ENDBRANCH   1  20
BRANCH   2  29
ATOM     29  O   UNL     1       5.082   8.028  16.937  0.00  0.00    +0.000 OA
ATOM     30  H   UNL     1       4.546   8.559  17.558  0.00  0.00    +0.000 HD
ENDBRANCH   2  29
TORSDOF 5
ENDMDL
MODEL 2
REMARK VINA RESULT:      -7.6      2.545      3.840
REMARK  Name = 
REMARK  6 active torsions:
REMARK  status: ('A' for Active; 'I' for Inactive)
REMARK    1  A    between atoms: C_1  and  C_2
REMARK    2  A    between atoms: C_2  and  C_3
REMARK    3  A    between atoms: C_2  and  C_5
REMARK    4  A    between atoms: C_3  and  N_4
REMARK    5  A    between atoms: C_8  and  C_9
REMARK    6  A    between atoms: C_10  and  O_11
REMARK                            x       y       z     vdW  Elec       q    Type
REMARK                         _______ _______ _______ _____ _____    ______ ____
ROOT
ATOM      1  C   UNL     1       2.962   5.454  19.394  0.00  0.00    +0.000 A 
ATOM      2  C   UNL     1       2.018   4.431  19.741  0.00  0.00    +0.000 A 
ATOM      3  C   UNL     1       2.267   3.060  19.714  0.00  0.00    +0.000 A 
ATOM      4  C   UNL     1       3.371   2.618  19.032  0.00  0.00    +0.000 A 
ATOM      5 CL   UNL     1       3.587   0.929  18.756  0.00  0.00    +0.000 Cl
ATOM      6  C   UNL     1       4.185   3.568  18.432  0.00  0.00    +0.000 A 
ATOM      7  N   UNL     1       4.805   3.219  17.194  0.00  0.00    +0.000 N 
ATOM      8  C   UNL     1       5.103   4.234  16.297  0.00  0.00    +0.000 A 
ATOM      9  O   UNL     1       4.911   4.155  15.092  0.00  0.00    +0.000 OA
ATOM     10  C   UNL     1       5.747   5.308  17.028  0.00  0.00    +0.000 A 
ATOM     11  S   UNL     1       7.364   5.662  16.615  0.00  0.00    +0.000 S 
ATOM     12  C   UNL     1       7.732   5.842  18.276  0.00  0.00    +0.000 A 
ATOM     13  C   UNL     1       6.587   5.895  19.057  0.00  0.00    +0.000 A 
ATOM     14  C   UNL     1       5.361   5.672  18.295  0.00  0.00    +0.000 A 
ATOM     15  C   UNL     1       4.148   4.960  18.786  0.00  0.00    +0.000 A 
ATOM     16  H   UNL     1       4.603   2.307  16.799  0.00  0.00    +0.000 HD
ENDROOT
BRANCH   1  20
ATOM     17  C   UNL     1       0.859   9.236  19.865  0.00  0.00    +0.000 A 
ATOM     18  C   UNL     1       1.072   8.371  20.934  0.00  0.00    +0.000 A 
ATOM     19  C   UNL     1       1.914   7.260  20.800  0.00  0.00    +0.000 A 
ATOM     20  C   UNL     1       2.504   6.875  19.564  0.00  0.00    +0.000 A 
ATOM     21  C   UNL     1       2.350   7.794  18.526  0.00  0.00    +0.000 A 
ATOM     22  C   UNL     1       1.548   8.964  18.672  0.00  0.00    +0.000 A 
BRANCH  17  24
ATOM     23  C   UNL     1      -1.155  10.476  19.041  0.00  0.00    +0.000 C 
ATOM     24  C   UNL     1      -0.026  10.469  20.075  0.00  0.00    +0.000 C 
BRANCH  24  25
ATOM     25  C   UNL     1      -0.558  10.644  21.523  0.00  0.00    +0.000 C 
BRANCH  25  26
ATOM     26  N   UNL     1      -0.065  11.874  22.158  0.00  0.00    +0.000 NA
ATOM     27  H   UNL     1       0.787  12.191  21.697  0.00  0.00    +0.000 HD
ATOM     28  H   UNL     1       0.186  11.690  23.128  0.00  0.00    +0.000 HD
ENDBRANCH  25  26
ENDBRANCH  24  25
ENDBRANCH  17  24
ENDBRANCH   1  20
BRANCH   2  29
ATOM     29  O   UNL     1       0.689   4.715  20.004  0.00  0.00    +0.000 OA
ATOM     30  H   UNL     1       0.291   3.910  20.389  0.00  0.00    +0.000 HD
ENDBRANCH   2  29
TORSDOF 5
ENDMDL
MODEL 3
REMARK VINA RESULT:      -7.6      2.616      3.892
REMARK  Name = 
REMARK  6 active torsions:
REMARK  status: ('A' for Active; 'I' for Inactive)
REMARK    1  A    between atoms: C_1  and  C_2
REMARK    2  A    between atoms: C_2  and  C_3
REMARK    3  A    between atoms: C_2  and  C_5
REMARK    4  A    between atoms: C_3  and  N_4
REMARK    5  A    between atoms: C_8  and  C_9
REMARK    6  A    between atoms: C_10  and  O_11
REMARK                            x       y       z     vdW  Elec       q    Type
REMARK                         _______ _______ _______ _____ _____    ______ ____
ROOT
ATOM      1  C   UNL     1       2.953   5.422  19.430  0.00  0.00    +0.000 A 
ATOM      2  C   UNL     1       2.014   4.389  19.762  0.00  0.00    +0.000 A 
ATOM      3  C   UNL     1       2.272   3.020  19.718  0.00  0.00    +0.000 A 
ATOM      4  C   UNL     1       3.379   2.594  19.032  0.00  0.00    +0.000 A 
ATOM      5 CL   UNL     1       3.605   0.909  18.734  0.00  0.00    +0.000 Cl
ATOM      6  C   UNL     1       4.188   3.556  18.445  0.00  0.00    +0.000 A 
ATOM      7  N   UNL     1       4.811   3.227  17.203  0.00  0.00    +0.000 N 
ATOM      8  C   UNL     1       5.103   4.256  16.320  0.00  0.00    +0.000 A 
ATOM      9  O   UNL     1       4.913   4.191  15.114  0.00  0.00    +0.000 OA
ATOM     10  C   UNL     1       5.740   5.324  17.065  0.00  0.00    +0.000 A 
ATOM     11  S   UNL     1       7.355   5.693  16.658  0.00  0.00    +0.000 S 
ATOM     12  C   UNL     1       7.721   5.853  18.322  0.00  0.00    +0.000 A 
ATOM     13  C   UNL     1       6.574   5.890  19.102  0.00  0.00    +0.000 A 
ATOM     14  C   UNL     1       5.351   5.670  18.336  0.00  0.00    +0.000 A 
ATOM     15  C   UNL     1       4.141   4.944  18.817  0.00  0.00    +0.000 A 
ATOM     16  H   UNL     1       4.615   2.319  16.796  0.00  0.00    +0.000 HD
ENDROOT
BRANCH   1  20
ATOM     17  C   UNL     1       0.825   9.187  19.938  0.00  0.00    +0.000 A 
ATOM     18  C   UNL     1       1.029   8.305  20.994  0.00  0.00    +0.000 A 
ATOM     19  C   UNL     1       1.878   7.200  20.853  0.00  0.00    +0.000 A 
ATOM     20  C   UNL     1       2.486   6.839  19.618  0.00  0.00    +0.000 A 
ATOM     21  C   UNL     1       2.340   7.774  18.593  0.00  0.00    +0.000 A 
ATOM     22  C   UNL     1       1.530   8.937  18.748  0.00  0.00    +0.000 A 
BRANCH  17  24
ATOM     23  C   UNL     1       0.790  11.608  20.577  0.00  0.00    +0.000 C 
ATOM     24  C   UNL     1      -0.068  10.412  20.157  0.00  0.00    +0.000 C 
BRANCH  24  25
ATOM     25  C   UNL     1      -1.003  10.752  18.966  0.00  0.00    +0.000 C 
BRANCH  25  26
ATOM     26  N   UNL     1      -0.505  11.878  18.163  0.00  0.00    +0.000 NA
ATOM     27  H   UNL     1      -1.141  12.067  17.389  0.00  0.00    +0.000 HD
ATOM     28  H   UNL     1       0.392  11.638  17.744  0.00  0.00    +0.000 HD
ENDBRANCH  25  26
ENDBRANCH  24  25
ENDBRANCH  17  24
ENDBRANCH   1  20
BRANCH   2  29
ATOM     29  O   UNL     1       0.683   4.662  20.028  0.00  0.00    +0.000 OA
ATOM     30  H   UNL     1       0.158   4.289  19.294  0.00  0.00    +0.000 HD
ENDBRANCH   2  29
TORSDOF 5
ENDMDL
MODEL 4
REMARK VINA RESULT:      -7.4      0.818      1.425
REMARK  Name = 
REMARK  6 active torsions:
REMARK  status: ('A' for Active; 'I' for Inactive)
REMARK    1  A    between atoms: C_1  and  C_2
REMARK    2  A    between atoms: C_2  and  C_3
REMARK    3  A    between atoms: C_2  and  C_5
REMARK    4  A    between atoms: C_3  and  N_4
REMARK    5  A    between atoms: C_8  and  C_9
REMARK    6  A    between atoms: C_10  and  O_11
REMARK                            x       y       z     vdW  Elec       q    Type
REMARK                         _______ _______ _______ _____ _____    ______ ____
ROOT
ATOM      1  C   UNL     1       3.067   6.457  17.997  0.00  0.00    +0.000 A 
ATOM      2  C   UNL     1       4.127   7.039  17.223  0.00  0.00    +0.000 A 
ATOM      3  C   UNL     1       5.008   6.335  16.405  0.00  0.00    +0.000 A 
ATOM      4  C   UNL     1       5.088   4.976  16.561  0.00  0.00    +0.000 A 
ATOM      5 CL   UNL     1       6.334   4.093  15.758  0.00  0.00    +0.000 Cl
ATOM      6  C   UNL     1       4.266   4.383  17.508  0.00  0.00    +0.000 A 
ATOM      7  N   UNL     1       4.782   3.257  18.219  0.00  0.00    +0.000 N 
ATOM      8  C   UNL     1       4.311   3.015  19.501  0.00  0.00    +0.000 A 
ATOM      9  O   UNL     1       5.026   2.690  20.438  0.00  0.00    +0.000 OA
ATOM     10  C   UNL     1       2.865   3.120  19.479  0.00  0.00    +0.000 A 
ATOM     11  S   UNL     1       1.983   1.703  19.832  0.00  0.00    +0.000 S 
ATOM     12  C   UNL     1       0.892   2.088  18.570  0.00  0.00    +0.000 A 
ATOM     13  C   UNL     1       1.070   3.384  18.110  0.00  0.00    +0.000 A 
ATOM     14  C   UNL     1       2.206   4.062  18.728  0.00  0.00    +0.000 A 
ATOM     15  C   UNL     1       3.109   5.038  18.054  0.00  0.00    +0.000 A 
ATOM     16  H   UNL     1       5.730   2.959  18.018  0.00  0.00    +0.000 HD
ENDROOT
BRANCH   1  20
ATOM     17  C   UNL     1       1.186   9.740  20.150  0.00  0.00    +0.000 A 
ATOM     18  C   UNL     1       1.270   9.719  18.762  0.00  0.00    +0.000 A 
ATOM     19  C   UNL     1       1.701   8.570  18.086  0.00  0.00    +0.000 A 
ATOM     20  C   UNL     1       2.187   7.412  18.754  0.00  0.00    +0.000 A 
ATOM     21  C   UNL     1       2.021   7.416  20.139  0.00  0.00    +0.000 A 
ATOM     22  C   UNL     1       1.519   8.557  20.831  0.00  0.00    +0.000 A 
BRANCH  17  24
ATOM     23  C   UNL     1       0.469  12.116  19.808  0.00  0.00    +0.000 C 
ATOM     24  C   UNL     1       0.656  11.000  20.841  0.00  0.00    +0.000 C 
BRANCH  24  25
ATOM     25  C   UNL     1      -0.618  10.779  21.700  0.00  0.00    +0.000 C 
BRANCH  25  26
ATOM     26  N   UNL     1      -0.322  10.712  23.138  0.00  0.00    +0.000 NA
ATOM     27  H   UNL     1      -1.048  10.183  23.622  0.00  0.00    +0.000 HD
ATOM     28  H   UNL     1      -0.334  11.648  23.541  0.00  0.00    +0.000 HD
ENDBRANCH  25  26
ENDBRANCH  24  25
ENDBRANCH  17  24
ENDBRANCH   1  20
BRANCH   2  29
ATOM     29  O   UNL     1       4.470   8.375  17.334  0.00  0.00    +0.000 OA
ATOM     30  H   UNL     1       5.332   8.416  17.790  0.00  0.00    +0.000 HD
ENDBRANCH   2  29
TORSDOF 5
ENDMDL
MODEL 5
REMARK VINA RESULT:      -7.3      4.595      8.387
REMARK  Name = 
REMARK  6 active torsions:
REMARK  status: ('A' for Active; 'I' for Inactive)
REMARK    1  A    between atoms: C_1  and  C_2
REMARK    2  A    between atoms: C_2  and  C_3
REMARK    3  A    between atoms: C_2  and  C_5
REMARK    4  A    between atoms: C_3  and  N_4
REMARK    5  A    between atoms: C_8  and  C_9
REMARK    6  A    between atoms: C_10  and  O_11
REMARK                            x       y       z     vdW  Elec       q    Type
REMARK                         _______ _______ _______ _____ _____    ______ ____
ROOT
ATOM      1  C   UNL     1       0.228   9.593  20.743  0.00  0.00    +0.000 A 
ATOM      2  C   UNL     1       0.367   9.943  22.128  0.00  0.00    +0.000 A 
ATOM      3  C   UNL     1      -0.502  10.765  22.843  0.00  0.00    +0.000 A 
ATOM      4  C   UNL     1      -1.382  11.544  22.137  0.00  0.00    +0.000 A 
ATOM      5 CL   UNL     1      -2.299  12.756  22.954  0.00  0.00    +0.000 Cl
ATOM      6  C   UNL     1      -1.367  11.445  20.753  0.00  0.00    +0.000 A 
ATOM      7  N   UNL     1      -1.627  12.633  20.004  0.00  0.00    +0.000 N 
ATOM      8  C   UNL     1      -1.067  12.751  18.740  0.00  0.00    +0.000 A 
ATOM      9  O   UNL     1      -0.553  13.776  18.317  0.00  0.00    +0.000 OA
ATOM     10  C   UNL     1      -1.297  11.510  18.027  0.00  0.00    +0.000 A 
ATOM     11  S   UNL     1      -2.284  11.588  16.638  0.00  0.00    +0.000 S 
ATOM     12  C   UNL     1      -3.042  10.130  17.115  0.00  0.00    +0.000 A 
ATOM     13  C   UNL     1      -2.355   9.501  18.142  0.00  0.00    +0.000 A 
ATOM     14  C   UNL     1      -1.227  10.283  18.641  0.00  0.00    +0.000 A 
ATOM     15  C   UNL     1      -0.767  10.341  20.057  0.00  0.00    +0.000 A 
ATOM     16  H   UNL     1      -1.785  13.495  20.514  0.00  0.00    +0.000 HD
ENDROOT
BRANCH   1  20
ATOM     17  C   UNL     1       2.542   6.582  18.613  0.00  0.00    +0.000 A 
ATOM     18  C   UNL     1       2.350   7.863  18.105  0.00  0.00    +0.000 A 
ATOM     19  C   UNL     1       1.771   8.868  18.890  0.00  0.00    +0.000 A 
ATOM     20  C   UNL     1       1.242   8.631  20.190  0.00  0.00    +0.000 A 
ATOM     21  C   UNL     1       1.515   7.368  20.717  0.00  0.00    +0.000 A 
ATOM     22  C   UNL     1       2.163   6.358  19.947  0.00  0.00    +0.000 A 
BRANCH  17  24
ATOM     23  C   UNL     1       4.747   5.607  17.933  0.00  0.00    +0.000 C 
ATOM     24  C   UNL     1       3.230   5.532  17.735  0.00  0.00    +0.000 C 
BRANCH  24  25
ATOM     25  C   UNL     1       2.688   4.088  17.909  0.00  0.00    +0.000 C 
BRANCH  25  26
ATOM     26  N   UNL     1       1.298   3.950  17.452  0.00  0.00    +0.000 NA
ATOM     27  H   UNL     1       1.204   3.127  16.856  0.00  0.00    +0.000 HD
ATOM     28  H   UNL     1       1.039   4.750  16.876  0.00  0.00    +0.000 HD
ENDBRANCH  25  26
ENDBRANCH  24  25
ENDBRANCH  17  24
ENDBRANCH   1  20
BRANCH   2  29
ATOM     29  O   UNL     1       1.487   9.601  22.864  0.00  0.00    +0.000 OA
ATOM     30  H   UNL     1       1.372   8.675  23.155  0.00  0.00    +0.000 HD
ENDBRANCH   2  29
TORSDOF 5
ENDMDL
MODEL 6
REMARK VINA RESULT:      -7.3      2.698      4.118
REMARK  Name = 
REMARK  6 active torsions:
REMARK  status: ('A' for Active; 'I' for Inactive)
REMARK    1  A    between atoms: C_1  and  C_2
REMARK    2  A    between atoms: C_2  and  C_3
REMARK    3  A    between atoms: C_2  and  C_5
REMARK    4  A    between atoms: C_3  and  N_4
REMARK    5  A    between atoms: C_8  and  C_9
REMARK    6  A    between atoms: C_10  and  O_11
REMARK                            x       y       z     vdW  Elec       q    Type
REMARK                         _______ _______ _______ _____ _____    ______ ____
ROOT
ATOM      1  C   UNL     1       2.970   5.644  19.429  0.00  0.00    +0.000 A 
ATOM      2  C   UNL     1       2.371   4.594  20.203  0.00  0.00    +0.000 A 
ATOM      3  C   UNL     1       2.976   3.379  20.517  0.00  0.00    +0.000 A 
ATOM      4  C   UNL     1       4.089   3.009  19.808  0.00  0.00    +0.000 A 
ATOM      5 CL   UNL     1       4.723   1.414  19.980  0.00  0.00    +0.000 Cl
ATOM      6  C   UNL     1       4.557   3.882  18.837  0.00  0.00    +0.000 A 
ATOM      7  N   UNL     1       5.129   3.314  17.658  0.00  0.00    +0.000 N 
ATOM      8  C   UNL     1       5.057   4.038  16.476  0.00  0.00    +0.000 A 
ATOM      9  O   UNL     1       4.781   3.544  15.393  0.00  0.00    +0.000 OA
ATOM     10  C   UNL     1       5.455   5.403  16.758  0.00  0.00    +0.000 A 
ATOM     11  S   UNL     1       6.872   5.968  15.993  0.00  0.00    +0.000 S 
ATOM     12  C   UNL     1       7.333   6.737  17.450  0.00  0.00    +0.000 A 
ATOM     13  C   UNL     1       6.294   6.770  18.369  0.00  0.00    +0.000 A 
ATOM     14  C   UNL     1       5.107   6.048  17.920  0.00  0.00    +0.000 A 
ATOM     15  C   UNL     1       4.181   5.269  18.789  0.00  0.00    +0.000 A 
ATOM     16  H   UNL     1       5.143   2.304  17.573  0.00  0.00    +0.000 HD
ENDROOT
BRANCH   1  20
ATOM     17  C   UNL     1       1.393   9.666  18.883  0.00  0.00    +0.000 A 
ATOM     18  C   UNL     1       1.784   8.873  17.809  0.00  0.00    +0.000 A 
ATOM     19  C   UNL     1       2.103   7.522  17.993  0.00  0.00    +0.000 A 
ATOM     20  C   UNL     1       2.165   6.904  19.273  0.00  0.00    +0.000 A 
ATOM     21  C   UNL     1       1.692   7.685  20.328  0.00  0.00    +0.000 A 
ATOM     22  C   UNL     1       1.302   9.044  20.140  0.00  0.00    +0.000 A 
BRANCH  17  24
ATOM     23  C   UNL     1      -0.150  11.521  19.553  0.00  0.00    +0.000 C 
ATOM     24  C   UNL     1       1.001  11.124  18.624  0.00  0.00    +0.000 C 
BRANCH  24  25
ATOM     25  C   UNL     1       2.179  12.132  18.688  0.00  0.00    +0.000 C 
BRANCH  25  26
ATOM     26  N   UNL     1       2.571  12.625  17.360  0.00  0.00    +0.000 NA
ATOM     27  H   UNL     1       2.261  11.974  16.638  0.00  0.00    +0.000 HD
ATOM     28  H   UNL     1       3.586  12.668  17.289  0.00  0.00    +0.000 HD
ENDBRANCH  25  26
ENDBRANCH  24  25
ENDBRANCH  17  24
ENDBRANCH   1  20
BRANCH   2  29
ATOM     29  O   UNL     1       1.046   4.637  20.600  0.00  0.00    +0.000 OA
ATOM     30  H   UNL     1       0.910   5.484  21.068  0.00  0.00    +0.000 HD
ENDBRANCH   2  29
TORSDOF 5
ENDMDL
MODEL 7
REMARK VINA RESULT:      -7.3      2.622      4.100
REMARK  Name = 
REMARK  6 active torsions:
REMARK  status: ('A' for Active; 'I' for Inactive)
REMARK    1  A    between atoms: C_1  and  C_2
REMARK    2  A    between atoms: C_2  and  C_3
REMARK    3  A    between atoms: C_2  and  C_5
REMARK    4  A    between atoms: C_3  and  N_4
REMARK    5  A    between atoms: C_8  and  C_9
REMARK    6  A    between atoms: C_10  and  O_11
REMARK                            x       y       z     vdW  Elec       q    Type
REMARK                         _______ _______ _______ _____ _____    ______ ____
ROOT
ATOM      1  C   UNL     1       2.768   5.077  19.143  0.00  0.00    +0.000 A 
ATOM      2  C   UNL     1       1.986   3.923  19.482  0.00  0.00    +0.000 A 
ATOM      3  C   UNL     1       2.454   2.611  19.509  0.00  0.00    +0.000 A 
ATOM      4  C   UNL     1       3.645   2.338  18.887  0.00  0.00    +0.000 A 
ATOM      5 CL   UNL     1       4.143   0.700  18.673  0.00  0.00    +0.000 Cl
ATOM      6  C   UNL     1       4.321   3.393  18.292  0.00  0.00    +0.000 A 
ATOM      7  N   UNL     1       5.046   3.120  17.092  0.00  0.00    +0.000 N 
ATOM      8  C   UNL     1       5.217   4.149  16.177  0.00  0.00    +0.000 A 
ATOM      9  O   UNL     1       5.096   4.011  14.969  0.00  0.00    +0.000 OA
ATOM     10  C   UNL     1       5.645   5.330  16.900  0.00  0.00    +0.000 A 
ATOM     11  S   UNL     1       7.201   5.932  16.544  0.00  0.00    +0.000 S 
ATOM     12  C   UNL     1       7.458   6.209  18.213  0.00  0.00    +0.000 A 
ATOM     13  C   UNL     1       6.285   6.094  18.943  0.00  0.00    +0.000 A 
ATOM     14  C   UNL     1       5.147   5.657  18.138  0.00  0.00    +0.000 A 
ATOM     15  C   UNL     1       4.044   4.769  18.600  0.00  0.00    +0.000 A 
ATOM     16  H   UNL     1       5.012   2.178  16.717  0.00  0.00    +0.000 HD
ENDROOT
BRANCH   1  20
ATOM     17  C   UNL     1       1.551   9.252  19.357  0.00  0.00    +0.000 A 
ATOM     18  C   UNL     1       1.788   8.613  18.145  0.00  0.00    +0.000 A 
ATOM     19  C   UNL     1       1.988   7.228  18.091  0.00  0.00    +0.000 A 
ATOM     20  C   UNL     1       2.079   6.409  19.251  0.00  0.00    +0.000 A 
ATOM     21  C   UNL     1       1.757   7.047  20.449  0.00  0.00    +0.000 A 
ATOM     22  C   UNL     1       1.487   8.446  20.506  0.00  0.00    +0.000 A 
BRANCH  17  24
ATOM     23  C   UNL     1       2.092  11.430  18.245  0.00  0.00    +0.000 C 
ATOM     24  C   UNL     1       1.283  10.761  19.359  0.00  0.00    +0.000 C 
BRANCH  24  25
ATOM     25  C   UNL     1      -0.218  11.151  19.308  0.00  0.00    +0.000 C 
BRANCH  25  26
ATOM     26  N   UNL     1      -0.717  11.287  17.932  0.00  0.00    +0.000 NA
ATOM     27  H   UNL     1      -0.627  10.401  17.436  0.00  0.00    +0.000 HD
ATOM     28  H   UNL     1      -0.150  11.960  17.420  0.00  0.00    +0.000 HD
ENDBRANCH  25  26
ENDBRANCH  24  25
ENDBRANCH  17  24
ENDBRANCH   1  20
BRANCH   2  29
ATOM     29  O   UNL     1       0.618   3.994  19.682  0.00  0.00    +0.000 OA
ATOM     30  H   UNL     1       0.473   4.362  20.575  0.00  0.00    +0.000 HD
ENDBRANCH   2  29
TORSDOF 5
ENDMDL
MODEL 8
REMARK VINA RESULT:      -7.2      0.710      1.199
REMARK  Name = 
REMARK  6 active torsions:
REMARK  status: ('A' for Active; 'I' for Inactive)
REMARK    1  A    between atoms: C_1  and  C_2
REMARK    2  A    between atoms: C_2  and  C_3
REMARK    3  A    between atoms: C_2  and  C_5
REMARK    4  A    between atoms: C_3  and  N_4
REMARK    5  A    between atoms: C_8  and  C_9
REMARK    6  A    between atoms: C_10  and  O_11
REMARK                            x       y       z     vdW  Elec       q    Type
REMARK                         _______ _______ _______ _____ _____    ______ ____
ROOT
ATOM      1  C   UNL     1       3.090   6.461  17.957  0.00  0.00    +0.000 A 
ATOM      2  C   UNL     1       4.173   7.041  17.215  0.00  0.00    +0.000 A 
ATOM      3  C   UNL     1       5.095   6.332  16.447  0.00  0.00    +0.000 A 
ATOM      4  C   UNL     1       5.183   4.977  16.632  0.00  0.00    +0.000 A 
ATOM      5 CL   UNL     1       6.470   4.094  15.897  0.00  0.00    +0.000 Cl
ATOM      6  C   UNL     1       4.330   4.393  17.557  0.00  0.00    +0.000 A 
ATOM      7  N   UNL     1       4.829   3.286  18.310  0.00  0.00    +0.000 N 
ATOM      8  C   UNL     1       4.310   3.063  19.577  0.00  0.00    +0.000 A 
ATOM      9  O   UNL     1       4.990   2.765  20.547  0.00  0.00    +0.000 OA
ATOM     10  C   UNL     1       2.865   3.151  19.495  0.00  0.00    +0.000 A 
ATOM     11  S   UNL     1       1.984   1.731  19.840  0.00  0.00    +0.000 S 
ATOM     12  C   UNL     1       0.942   2.079  18.528  0.00  0.00    +0.000 A 
ATOM     13  C   UNL     1       1.124   3.368  18.050  0.00  0.00    +0.000 A 
ATOM     14  C   UNL     1       2.227   4.071  18.699  0.00  0.00    +0.000 A 
ATOM     15  C   UNL     1       3.145   5.044  18.044  0.00  0.00    +0.000 A 
ATOM     16  H   UNL     1       5.788   2.995  18.153  0.00  0.00    +0.000 HD
ENDROOT
BRANCH   1  20
ATOM     17  C   UNL     1       1.061   9.788  19.899  0.00  0.00    +0.000 A 
ATOM     18  C   UNL     1       1.121   9.666  18.514  0.00  0.00    +0.000 A 
ATOM     19  C   UNL     1       1.606   8.495  17.918  0.00  0.00    +0.000 A 
ATOM     20  C   UNL     1       2.170   7.420  18.660  0.00  0.00    +0.000 A 
ATOM     21  C   UNL     1       2.028   7.521  20.044  0.00  0.00    +0.000 A 
ATOM     22  C   UNL     1       1.474   8.681  20.659  0.00  0.00    +0.000 A 
BRANCH  17  24
ATOM     23  C   UNL     1      -0.057  10.773  21.912  0.00  0.00    +0.000 C 
ATOM     24  C   UNL     1       0.471  11.065  20.505  0.00  0.00    +0.000 C 
BRANCH  24  25
ATOM     25  C   UNL     1       1.422  12.292  20.479  0.00  0.00    +0.000 C 
BRANCH  25  26
ATOM     26  N   UNL     1       1.114  13.264  21.538  0.00  0.00    +0.000 NA
ATOM     27  H   UNL     1       0.115  13.256  21.744  0.00  0.00    +0.000 HD
ATOM     28  H   UNL     1       1.332  14.208  21.219  0.00  0.00    +0.000 HD
ENDBRANCH  25  26
ENDBRANCH  24  25
ENDBRANCH  17  24
ENDBRANCH   1  20
BRANCH   2  29
ATOM     29  O   UNL     1       4.497   8.383  17.313  0.00  0.00    +0.000 OA
ATOM     30  H   UNL     1       4.170   8.820  16.504  0.00  0.00    +0.000 HD
ENDBRANCH   2  29
TORSDOF 5
ENDMDL
MODEL 9
REMARK VINA RESULT:      -7.1      3.955      5.643
REMARK  Name = 
REMARK  6 active torsions:
REMARK  status: ('A' for Active; 'I' for Inactive)
REMARK    1  A    between atoms: C_1  and  C_2
REMARK    2  A    between atoms: C_2  and  C_3
REMARK    3  A    between atoms: C_2  and  C_5
REMARK    4  A    between atoms: C_3  and  N_4
REMARK    5  A    between atoms: C_8  and  C_9
REMARK    6  A    between atoms: C_10  and  O_11
REMARK                            x       y       z     vdW  Elec       q    Type
REMARK                         _______ _______ _______ _____ _____    ______ ____
ROOT
ATOM      1  C   UNL     1       5.542   5.918  17.403  0.00  0.00    +0.000 A 
ATOM      2  C   UNL     1       5.855   4.597  16.938  0.00  0.00    +0.000 A 
ATOM      3  C   UNL     1       4.926   3.592  16.679  0.00  0.00    +0.000 A 
ATOM      4  C   UNL     1       3.657   3.742  17.175  0.00  0.00    +0.000 A 
ATOM      5 CL   UNL     1       2.547   2.423  17.101  0.00  0.00    +0.000 Cl
ATOM      6  C   UNL     1       3.372   4.900  17.884  0.00  0.00    +0.000 A 
ATOM      7  N   UNL     1       2.462   4.796  18.981  0.00  0.00    +0.000 N 
ATOM      8  C   UNL     1       2.592   5.691  20.032  0.00  0.00    +0.000 A 
ATOM      9  O   UNL     1       2.508   5.374  21.209  0.00  0.00    +0.000 OA
ATOM     10  C   UNL     1       2.739   7.022  19.476  0.00  0.00    +0.000 A 
ATOM     11  S   UNL     1       1.502   8.145  19.825  0.00  0.00    +0.000 S 
ATOM     12  C   UNL     1       1.570   8.698  18.207  0.00  0.00    +0.000 A 
ATOM     13  C   UNL     1       2.686   8.214  17.542  0.00  0.00    +0.000 A 
ATOM     14  C   UNL     1       3.466   7.270  18.337  0.00  0.00    +0.000 A 
ATOM     15  C   UNL     1       4.191   6.079  17.812  0.00  0.00    +0.000 A 
ATOM     16  H   UNL     1       2.087   3.881  19.205  0.00  0.00    +0.000 HD
ENDROOT
BRANCH   1  20
ATOM     17  C   UNL     1       8.511   8.889  18.548  0.00  0.00    +0.000 A 
ATOM     18  C   UNL     1       8.518   7.599  19.068  0.00  0.00    +0.000 A 
ATOM     19  C   UNL     1       7.678   6.609  18.544  0.00  0.00    +0.000 A 
ATOM     20  C   UNL     1       6.696   6.870  17.547  0.00  0.00    +0.000 A 
ATOM     21  C   UNL     1       6.757   8.143  16.979  0.00  0.00    +0.000 A 
ATOM     22  C   UNL     1       7.655   9.138  17.462  0.00  0.00    +0.000 A 
BRANCH  17  24
ATOM     23  C   UNL     1       9.768  11.002  18.068  0.00  0.00    +0.000 C 
ATOM     24  C   UNL     1       9.488   9.923  19.118  0.00  0.00    +0.000 C 
BRANCH  24  25
ATOM     25  C   UNL     1       9.064  10.530  20.482  0.00  0.00    +0.000 C 
BRANCH  25  26
ATOM     26  N   UNL     1      10.066  11.460  21.020  0.00  0.00    +0.000 NA
ATOM     27  H   UNL     1       9.686  11.962  21.822  0.00  0.00    +0.000 HD
ATOM     28  H   UNL     1      10.297  12.166  20.323  0.00  0.00    +0.000 HD
ENDBRANCH  25  26
ENDBRANCH  24  25
ENDBRANCH  17  24
ENDBRANCH   1  20
BRANCH   2  29
ATOM     29  O   UNL     1       7.159   4.143  16.837  0.00  0.00    +0.000 OA
ATOM     30  H   UNL     1       7.146   3.182  17.014  0.00  0.00    +0.000 HD
ENDBRANCH   2  29
TORSDOF 5
ENDMDL
