MODEL 1
REMARK VINA RESULT:      -7.6      0.000      0.000
REMARK  Name = 
REMARK  8 active torsions:
REMARK  status: ('A' for Active; 'I' for Inactive)
REMARK    1  A    between atoms: C_1  and  C_2
REMARK    2  A    between atoms: C_2  and  O_3
REMARK    3  A    between atoms: O_3  and  C_4
REMARK    4  A    between atoms: C_4  and  C_6
REMARK    5  A    between atoms: N_21  and  C_22
REMARK    6  A    between atoms: C_22  and  C_23
REMARK    7  A    between atoms: C_26  and  C_27
REMARK    8  A    between atoms: C_32  and  C_33
REMARK                            x       y       z     vdW  Elec       q    Type
REMARK                         _______ _______ _______ _____ _____    ______ ____
ROOT
ATOM      1  C   UNL     1      -1.600  12.224  19.709  0.00  0.00    +0.000 C 
ATOM      2  C   UNL     1      -0.701  13.394  19.191  0.00  0.00    +0.000 C 
ATOM      3  C   UNL     1      -0.924  14.871  19.443  0.00  0.00    +0.000 C 
ATOM      4  O   UNL     1       0.122  15.641  18.801  0.00  0.00    +0.000 OA
ATOM      5  C   UNL     1       1.404  15.215  19.050  0.00  0.00    +0.000 A 
ATOM      6  C   UNL     1       2.437  16.111  18.774  0.00  0.00    +0.000 A 
ATOM      7  C   UNL     1       3.758  15.775  19.086  0.00  0.00    +0.000 A 
ATOM      8  C   UNL     1       4.043  14.561  19.706  0.00  0.00    +0.000 A 
ATOM      9  C   UNL     1       3.015  13.657  19.953  0.00  0.00    +0.000 A 
ATOM     10  C   UNL     1       1.703  13.946  19.554  0.00  0.00    +0.000 A 
ATOM     11  C   UNL     1       0.610  12.967  19.776  0.00  0.00    +0.000 C 
ATOM     12  N   UNL     1       0.631  11.611  19.253  0.00  0.00    +0.000 N 
ATOM     13  C   UNL     1       1.626  11.033  18.498  0.00  0.00    +0.000 C 
ATOM     14  O   UNL     1       2.505  11.629  17.892  0.00  0.00    +0.000 OA
ATOM     15  C   UNL     1       1.483   9.534  18.439  0.00  0.00    +0.000 C 
ATOM     16  N   UNL     1       1.189   9.091  19.810  0.00  0.00    +0.000 N 
ATOM     17  C   UNL     1       0.047   9.741  20.503  0.00  0.00    +0.000 C 
ATOM     18  O   UNL     1      -0.436   9.309  21.548  0.00  0.00    +0.000 OA
ATOM     19  C   UNL     1      -0.647  10.924  19.607  0.00  0.00    +0.000 C 
ATOM     20  C   UNL     1      -1.433  10.070  18.565  0.00  0.00    +0.000 C 
ENDROOT
BRANCH   1  21
ATOM     21  C   UNL     1      -2.523  12.687  20.800  0.00  0.00    +0.000 C 
ATOM     22  O   UNL     1      -3.726  12.831  20.558  0.00  0.00    +0.000 OA
BRANCH  21  23
ATOM     23  O   UNL     1      -1.969  12.922  22.001  0.00  0.00    +0.000 OA
BRANCH  23  25
ATOM     24  C   UNL     1      -3.497  12.451  23.846  0.00  0.00    +0.000 C 
ATOM     25  C   UNL     1      -2.340  11.943  22.995  0.00  0.00    +0.000 C 
ENDBRANCH  23  25
ENDBRANCH  21  23
ENDBRANCH   1  21
BRANCH  16  26
ATOM     26  C   UNL     1       1.788   7.773  20.190  0.00  0.00    +0.000 C 
BRANCH  26  27
ATOM     27  C   UNL     1       2.559   6.994  19.086  0.00  0.00    +0.000 A 
ATOM     28  C   UNL     1       2.364   5.622  18.861  0.00  0.00    +0.000 A 
ATOM     29  C   UNL     1       3.119   4.906  17.901  0.00  0.00    +0.000 A 
ATOM     30  C   UNL     1       4.086   5.538  17.112  0.00  0.00    +0.000 A 
ATOM     31  C   UNL     1       4.941   4.761  16.141  0.00  0.00    +0.000 C 
ATOM     32  C   UNL     1       4.240   6.918  17.269  0.00  0.00    +0.000 A 
ATOM     33  C   UNL     1       3.490   7.632  18.235  0.00  0.00    +0.000 A 
ENDBRANCH  26  27
ENDBRANCH  16  26
TORSDOF 5
ENDMDL
MODEL 2
REMARK VINA RESULT:      -7.4      0.888      1.312
REMARK  Name = 
REMARK  8 active torsions:
REMARK  status: ('A' for Active; 'I' for Inactive)
REMARK    1  A    between atoms: C_1  and  C_2
REMARK    2  A    between atoms: C_2  and  O_3
REMARK    3  A    between atoms: O_3  and  C_4
REMARK    4  A    between atoms: C_4  and  C_6
REMARK    5  A    between atoms: N_21  and  C_22
REMARK    6  A    between atoms: C_22  and  C_23
REMARK    7  A    between atoms: C_26  and  C_27
REMARK    8  A    between atoms: C_32  and  C_33
REMARK                            x       y       z     vdW  Elec       q    Type
REMARK                         _______ _______ _______ _____ _____    ______ ____
ROOT
ATOM      1  C   UNL     1      -1.723  12.487  19.954  0.00  0.00    +0.000 C 
ATOM      2  C   UNL     1      -0.805  13.553  19.270  0.00  0.00    +0.000 C 
ATOM      3  C   UNL     1      -1.008  15.054  19.293  0.00  0.00    +0.000 C 
ATOM      4  O   UNL     1       0.052  15.704  18.549  0.00  0.00    +0.000 OA
ATOM      5  C   UNL     1       1.327  15.303  18.870  0.00  0.00    +0.000 A 
ATOM      6  C   UNL     1       2.374  16.133  18.468  0.00  0.00    +0.000 A 
ATOM      7  C   UNL     1       3.688  15.831  18.837  0.00  0.00    +0.000 A 
ATOM      8  C   UNL     1       3.953  14.722  19.637  0.00  0.00    +0.000 A 
ATOM      9  C   UNL     1       2.911  13.880  20.011  0.00  0.00    +0.000 A 
ATOM     10  C   UNL     1       1.605  14.122  19.563  0.00  0.00    +0.000 A 
ATOM     11  C   UNL     1       0.497  13.203  19.923  0.00  0.00    +0.000 C 
ATOM     12  N   UNL     1       0.502  11.782  19.613  0.00  0.00    +0.000 N 
ATOM     13  C   UNL     1       1.492  11.084  18.961  0.00  0.00    +0.000 C 
ATOM     14  O   UNL     1       2.383  11.569  18.278  0.00  0.00    +0.000 OA
ATOM     15  C   UNL     1       1.329   9.595  19.131  0.00  0.00    +0.000 C 
ATOM     16  N   UNL     1       1.021   9.370  20.551  0.00  0.00    +0.000 N 
ATOM     17  C   UNL     1      -0.115  10.133  21.128  0.00  0.00    +0.000 C 
ATOM     18  O   UNL     1      -0.610   9.871  22.223  0.00  0.00    +0.000 OA
ATOM     19  C   UNL     1      -0.788  11.174  20.058  0.00  0.00    +0.000 C 
ATOM     20  C   UNL     1      -1.580  10.182  19.152  0.00  0.00    +0.000 C 
ENDROOT
BRANCH   1  21
ATOM     21  C   UNL     1      -2.645  13.123  20.955  0.00  0.00    +0.000 C 
ATOM     22  O   UNL     1      -3.757  13.518  20.591  0.00  0.00    +0.000 OA
BRANCH  21  23
ATOM     23  O   UNL     1      -2.190  13.226  22.214  0.00  0.00    +0.000 OA
BRANCH  23  25
ATOM     24  C   UNL     1      -3.731  13.004  24.096  0.00  0.00    +0.000 C 
ATOM     25  C   UNL     1      -2.811  12.285  23.117  0.00  0.00    +0.000 C 
ENDBRANCH  23  25
ENDBRANCH  21  23
ENDBRANCH   1  21
BRANCH  16  26
ATOM     26  C   UNL     1       1.600   8.118  21.132  0.00  0.00    +0.000 C 
BRANCH  26  27
ATOM     27  C   UNL     1       1.885   6.941  20.153  0.00  0.00    +0.000 A 
ATOM     28  C   UNL     1       2.501   7.135  18.907  0.00  0.00    +0.000 A 
ATOM     29  C   UNL     1       2.694   6.071  17.994  0.00  0.00    +0.000 A 
ATOM     30  C   UNL     1       2.297   4.764  18.299  0.00  0.00    +0.000 A 
ATOM     31  C   UNL     1       2.437   3.645  17.298  0.00  0.00    +0.000 C 
ATOM     32  C   UNL     1       1.751   4.540  19.565  0.00  0.00    +0.000 A 
ATOM     33  C   UNL     1       1.552   5.606  20.476  0.00  0.00    +0.000 A 
ENDBRANCH  26  27
ENDBRANCH  16  26
TORSDOF 5
ENDMDL
MODEL 3
REMARK VINA RESULT:      -7.4      0.768      1.048
REMARK  Name = 
REMARK  8 active torsions:
REMARK  status: ('A' for Active; 'I' for Inactive)
REMARK    1  A    between atoms: C_1  and  C_2
REMARK    2  A    between atoms: C_2  and  O_3
REMARK    3  A    between atoms: O_3  and  C_4
REMARK    4  A    between atoms: C_4  and  C_6
REMARK    5  A    between atoms: N_21  and  C_22
REMARK    6  A    between atoms: C_22  and  C_23
REMARK    7  A    between atoms: C_26  and  C_27
REMARK    8  A    between atoms: C_32  and  C_33
REMARK                            x       y       z     vdW  Elec       q    Type
REMARK                         _______ _______ _______ _____ _____    ______ ____
ROOT
ATOM      1  C   UNL     1      -1.624  12.080  19.607  0.00  0.00    +0.000 C 
ATOM      2  C   UNL     1      -0.751  13.283  19.119  0.00  0.00    +0.000 C 
ATOM      3  C   UNL     1      -1.020  14.749  19.388  0.00  0.00    +0.000 C 
ATOM      4  O   UNL     1       0.012  15.558  18.773  0.00  0.00    +0.000 OA
ATOM      5  C   UNL     1       1.303  15.165  19.036  0.00  0.00    +0.000 A 
ATOM      6  C   UNL     1       2.313  16.094  18.788  0.00  0.00    +0.000 A 
ATOM      7  C   UNL     1       3.638  15.792  19.115  0.00  0.00    +0.000 A 
ATOM      8  C   UNL     1       3.949  14.578  19.723  0.00  0.00    +0.000 A 
ATOM      9  C   UNL     1       2.944  13.642  19.941  0.00  0.00    +0.000 A 
ATOM     10  C   UNL     1       1.630  13.899  19.526  0.00  0.00    +0.000 A 
ATOM     11  C   UNL     1       0.563  12.886  19.718  0.00  0.00    +0.000 C 
ATOM     12  N   UNL     1       0.631  11.538  19.176  0.00  0.00    +0.000 N 
ATOM     13  C   UNL     1       1.653  11.000  18.428  0.00  0.00    +0.000 C 
ATOM     14  O   UNL     1       2.524  11.630  17.843  0.00  0.00    +0.000 OA
ATOM     15  C   UNL     1       1.555   9.499  18.346  0.00  0.00    +0.000 C 
ATOM     16  N   UNL     1       1.253   9.027  19.706  0.00  0.00    +0.000 N 
ATOM     17  C   UNL     1       0.083   9.634  20.390  0.00  0.00    +0.000 C 
ATOM     18  O   UNL     1      -0.403   9.173  21.421  0.00  0.00    +0.000 OA
ATOM     19  C   UNL     1      -0.632  10.809  19.501  0.00  0.00    +0.000 C 
ATOM     20  C   UNL     1      -1.377   9.948  18.435  0.00  0.00    +0.000 C 
ENDROOT
BRANCH   1  21
ATOM     21  C   UNL     1      -2.576  12.500  20.690  0.00  0.00    +0.000 C 
ATOM     22  O   UNL     1      -2.181  12.551  21.859  0.00  0.00    +0.000 OA
BRANCH  21  23
ATOM     23  O   UNL     1      -3.828  12.800  20.310  0.00  0.00    +0.000 OA
BRANCH  23  25
ATOM     24  C   UNL     1      -6.129  13.209  21.019  0.00  0.00    +0.000 C 
ATOM     25  C   UNL     1      -4.656  13.253  21.405  0.00  0.00    +0.000 C 
ENDBRANCH  23  25
ENDBRANCH  21  23
ENDBRANCH   1  21
BRANCH  16  26
ATOM     26  C   UNL     1       1.885   7.722  20.077  0.00  0.00    +0.000 C 
BRANCH  26  27
ATOM     27  C   UNL     1       2.654   6.958  18.960  0.00  0.00    +0.000 A 
ATOM     28  C   UNL     1       2.419   5.603  18.680  0.00  0.00    +0.000 A 
ATOM     29  C   UNL     1       3.172   4.898  17.710  0.00  0.00    +0.000 A 
ATOM     30  C   UNL     1       4.176   5.525  16.965  0.00  0.00    +0.000 A 
ATOM     31  C   UNL     1       5.025   4.756  15.984  0.00  0.00    +0.000 C 
ATOM     32  C   UNL     1       4.372   6.892  17.177  0.00  0.00    +0.000 A 
ATOM     33  C   UNL     1       3.624   7.596  18.153  0.00  0.00    +0.000 A 
ENDBRANCH  26  27
ENDBRANCH  16  26
TORSDOF 5
ENDMDL
MODEL 4
REMARK VINA RESULT:      -7.3      1.998      2.962
REMARK  Name = 
REMARK  8 active torsions:
REMARK  status: ('A' for Active; 'I' for Inactive)
REMARK    1  A    between atoms: C_1  and  C_2
REMARK    2  A    between atoms: C_2  and  O_3
REMARK    3  A    between atoms: O_3  and  C_4
REMARK    4  A    between atoms: C_4  and  C_6
REMARK    5  A    between atoms: N_21  and  C_22
REMARK    6  A    between atoms: C_22  and  C_23
REMARK    7  A    between atoms: C_26  and  C_27
REMARK    8  A    between atoms: C_32  and  C_33
REMARK                            x       y       z     vdW  Elec       q    Type
REMARK                         _______ _______ _______ _____ _____    ______ ____
ROOT
ATOM      1  C   UNL     1      -1.235  15.056  21.785  0.00  0.00    +0.000 C 
ATOM      2  C   UNL     1      -0.559  15.829  20.606  0.00  0.00    +0.000 C 
ATOM      3  C   UNL     1      -0.017  17.243  20.658  0.00  0.00    +0.000 C 
ATOM      4  O   UNL     1       0.535  17.605  19.369  0.00  0.00    +0.000 OA
ATOM      5  C   UNL     1       1.402  16.690  18.821  0.00  0.00    +0.000 A 
ATOM      6  C   UNL     1       2.229  17.136  17.791  0.00  0.00    +0.000 A 
ATOM      7  C   UNL     1       3.195  16.283  17.249  0.00  0.00    +0.000 A 
ATOM      8  C   UNL     1       3.360  14.998  17.761  0.00  0.00    +0.000 A 
ATOM      9  C   UNL     1       2.514  14.547  18.768  0.00  0.00    +0.000 A 
ATOM     10  C   UNL     1       1.480  15.362  19.248  0.00  0.00    +0.000 A 
ATOM     11  C   UNL     1       0.548  14.869  20.292  0.00  0.00    +0.000 C 
ATOM     12  N   UNL     1      -0.263  13.671  20.141  0.00  0.00    +0.000 N 
ATOM     13  C   UNL     1      -0.299  12.831  19.052  0.00  0.00    +0.000 C 
ATOM     14  O   UNL     1       0.103  13.095  17.928  0.00  0.00    +0.000 OA
ATOM     15  C   UNL     1      -0.965  11.520  19.381  0.00  0.00    +0.000 C 
ATOM     16  N   UNL     1      -0.422  11.091  20.678  0.00  0.00    +0.000 N 
ATOM     17  C   UNL     1      -0.499  12.061  21.800  0.00  0.00    +0.000 C 
ATOM     18  O   UNL     1      -0.292  11.749  22.971  0.00  0.00    +0.000 OA
ATOM     19  C   UNL     1      -1.128  13.505  21.347  0.00  0.00    +0.000 C 
ATOM     20  C   UNL     1      -2.639  13.133  21.225  0.00  0.00    +0.000 C 
ENDROOT
BRANCH   1  21
ATOM     21  C   UNL     1      -0.973  15.730  23.101  0.00  0.00    +0.000 C 
ATOM     22  O   UNL     1       0.090  15.514  23.692  0.00  0.00    +0.000 OA
BRANCH  21  23
ATOM     23  O   UNL     1      -1.935  16.542  23.566  0.00  0.00    +0.000 OA
BRANCH  23  25
ATOM     24  C   UNL     1      -3.180  15.041  25.036  0.00  0.00    +0.000 C 
ATOM     25  C   UNL     1      -3.199  15.869  23.757  0.00  0.00    +0.000 C 
ENDBRANCH  23  25
ENDBRANCH  21  23
ENDBRANCH   1  21
BRANCH  16  26
ATOM     26  C   UNL     1      -0.242   9.613  20.830  0.00  0.00    +0.000 C 
BRANCH  26  27
ATOM     27  C   UNL     1       0.811   8.924  19.914  0.00  0.00    +0.000 A 
ATOM     28  C   UNL     1       1.496   7.762  20.301  0.00  0.00    +0.000 A 
ATOM     29  C   UNL     1       2.502   7.181  19.492  0.00  0.00    +0.000 A 
ATOM     30  C   UNL     1       2.848   7.727  18.252  0.00  0.00    +0.000 A 
ATOM     31  C   UNL     1       3.969   7.150  17.423  0.00  0.00    +0.000 C 
ATOM     32  C   UNL     1       2.124   8.840  17.816  0.00  0.00    +0.000 A 
ATOM     33  C   UNL     1       1.123   9.425  18.630  0.00  0.00    +0.000 A 
ENDBRANCH  26  27
ENDBRANCH  16  26
TORSDOF 5
ENDMDL
MODEL 5
REMARK VINA RESULT:      -7.3      1.297      1.805
REMARK  Name = 
REMARK  8 active torsions:
REMARK  status: ('A' for Active; 'I' for Inactive)
REMARK    1  A    between atoms: C_1  and  C_2
REMARK    2  A    between atoms: C_2  and  O_3
REMARK    3  A    between atoms: O_3  and  C_4
REMARK    4  A    between atoms: C_4  and  C_6
REMARK    5  A    between atoms: N_21  and  C_22
REMARK    6  A    between atoms: C_22  and  C_23
REMARK    7  A    between atoms: C_26  and  C_27
REMARK    8  A    between atoms: C_32  and  C_33
REMARK                            x       y       z     vdW  Elec       q    Type
REMARK                         _______ _______ _______ _____ _____    ______ ____
ROOT
ATOM      1  C   UNL     1      -1.230  11.578  19.955  0.00  0.00    +0.000 C 
ATOM      2  C   UNL     1      -0.612  12.843  19.276  0.00  0.00    +0.000 C 
ATOM      3  C   UNL     1      -0.989  14.283  19.558  0.00  0.00    +0.000 C 
ATOM      4  O   UNL     1      -0.194  15.169  18.732  0.00  0.00    +0.000 OA
ATOM      5  C   UNL     1       1.159  14.928  18.744  0.00  0.00    +0.000 A 
ATOM      6  C   UNL     1       1.990  15.948  18.279  0.00  0.00    +0.000 A 
ATOM      7  C   UNL     1       3.379  15.804  18.345  0.00  0.00    +0.000 A 
ATOM      8  C   UNL     1       3.938  14.659  18.908  0.00  0.00    +0.000 A 
ATOM      9  C   UNL     1       3.108  13.632  19.343  0.00  0.00    +0.000 A 
ATOM     10  C   UNL     1       1.718  13.728  19.190  0.00  0.00    +0.000 A 
ATOM     11  C   UNL     1       0.830  12.616  19.613  0.00  0.00    +0.000 C 
ATOM     12  N   UNL     1       0.945  11.260  19.101  0.00  0.00    +0.000 N 
ATOM     13  C   UNL     1       1.857  10.801  18.178  0.00  0.00    +0.000 C 
ATOM     14  O   UNL     1       2.521  11.493  17.419  0.00  0.00    +0.000 OA
ATOM     15  C   UNL     1       1.916   9.296  18.154  0.00  0.00    +0.000 C 
ATOM     16  N   UNL     1       1.939   8.857  19.557  0.00  0.00    +0.000 N 
ATOM     17  C   UNL     1       0.863   9.366  20.444  0.00  0.00    +0.000 C 
ATOM     18  O   UNL     1       0.641   8.903  21.562  0.00  0.00    +0.000 OA
ATOM     19  C   UNL     1      -0.140  10.416  19.686  0.00  0.00    +0.000 C 
ATOM     20  C   UNL     1      -0.975   9.433  18.809  0.00  0.00    +0.000 C 
ENDROOT
BRANCH   1  21
ATOM     21  C   UNL     1      -1.996  11.942  21.195  0.00  0.00    +0.000 C 
ATOM     22  O   UNL     1      -3.196  12.220  21.108  0.00  0.00    +0.000 OA
BRANCH  21  23
ATOM     23  O   UNL     1      -1.310  11.946  22.350  0.00  0.00    +0.000 OA
BRANCH  23  25
ATOM     24  C   UNL     1      -0.839  14.216  23.117  0.00  0.00    +0.000 C 
ATOM     25  C   UNL     1      -1.733  12.990  23.254  0.00  0.00    +0.000 C 
ENDBRANCH  23  25
ENDBRANCH  21  23
ENDBRANCH   1  21
BRANCH  16  26
ATOM     26  C   UNL     1       2.775   7.646  19.826  0.00  0.00    +0.000 C 
BRANCH  26  27
ATOM     27  C   UNL     1       2.144   6.258  19.513  0.00  0.00    +0.000 A 
ATOM     28  C   UNL     1       1.504   5.486  20.496  0.00  0.00    +0.000 A 
ATOM     29  C   UNL     1       0.994   4.195  20.219  0.00  0.00    +0.000 A 
ATOM     30  C   UNL     1       1.084   3.632  18.941  0.00  0.00    +0.000 A 
ATOM     31  C   UNL     1       0.605   2.228  18.664  0.00  0.00    +0.000 C 
ATOM     32  C   UNL     1       1.649   4.417  17.933  0.00  0.00    +0.000 A 
ATOM     33  C   UNL     1       2.166   5.706  18.212  0.00  0.00    +0.000 A 
ENDBRANCH  26  27
ENDBRANCH  16  26
TORSDOF 5
ENDMDL
MODEL 6
REMARK VINA RESULT:      -7.2      1.430      2.120
REMARK  Name = 
REMARK  8 active torsions:
REMARK  status: ('A' for Active; 'I' for Inactive)
REMARK    1  A    between atoms: C_1  and  C_2
REMARK    2  A    between atoms: C_2  and  O_3
REMARK    3  A    between atoms: O_3  and  C_4
REMARK    4  A    between atoms: C_4  and  C_6
REMARK    5  A    between atoms: N_21  and  C_22
REMARK    6  A    between atoms: C_22  and  C_23
REMARK    7  A    between atoms: C_26  and  C_27
REMARK    8  A    between atoms: C_32  and  C_33
REMARK                            x       y       z     vdW  Elec       q    Type
REMARK                         _______ _______ _______ _____ _____    ______ ____
ROOT
ATOM      1  C   UNL     1      -0.903  11.257  20.726  0.00  0.00    +0.000 C 
ATOM      2  C   UNL     1      -0.508  12.566  19.968  0.00  0.00    +0.000 C 
ATOM      3  C   UNL     1      -0.846  13.981  20.393  0.00  0.00    +0.000 C 
ATOM      4  O   UNL     1      -0.306  14.923  19.434  0.00  0.00    +0.000 OA
ATOM      5  C   UNL     1       1.015  14.734  19.102  0.00  0.00    +0.000 A 
ATOM      6  C   UNL     1       1.674  15.799  18.490  0.00  0.00    +0.000 A 
ATOM      7  C   UNL     1       3.040  15.707  18.205  0.00  0.00    +0.000 A 
ATOM      8  C   UNL     1       3.754  14.567  18.566  0.00  0.00    +0.000 A 
ATOM      9  C   UNL     1       3.087  13.495  19.150  0.00  0.00    +0.000 A 
ATOM     10  C   UNL     1       1.701  13.542  19.348  0.00  0.00    +0.000 A 
ATOM     11  C   UNL     1       0.978  12.384  19.930  0.00  0.00    +0.000 C 
ATOM     12  N   UNL     1       1.002  11.051  19.350  0.00  0.00    +0.000 N 
ATOM     13  C   UNL     1       1.670  10.657  18.213  0.00  0.00    +0.000 C 
ATOM     14  O   UNL     1       2.105  11.398  17.343  0.00  0.00    +0.000 OA
ATOM     15  C   UNL     1       1.765   9.157  18.113  0.00  0.00    +0.000 C 
ATOM     16  N   UNL     1       2.147   8.674  19.448  0.00  0.00    +0.000 N 
ATOM     17  C   UNL     1       1.310   9.113  20.594  0.00  0.00    +0.000 C 
ATOM     18  O   UNL     1       1.385   8.605  21.711  0.00  0.00    +0.000 OA
ATOM     19  C   UNL     1       0.120  10.148  20.149  0.00  0.00    +0.000 C 
ATOM     20  C   UNL     1      -0.876   9.162  19.465  0.00  0.00    +0.000 C 
ENDROOT
BRANCH   1  21
ATOM     21  C   UNL     1      -1.348  11.552  22.130  0.00  0.00    +0.000 C 
ATOM     22  O   UNL     1      -0.552  11.405  23.063  0.00  0.00    +0.000 OA
BRANCH  21  23
ATOM     23  O   UNL     1      -2.616  11.965  22.287  0.00  0.00    +0.000 OA
BRANCH  23  25
ATOM     24  C   UNL     1      -2.652  13.971  23.680  0.00  0.00    +0.000 C 
ATOM     25  C   UNL     1      -2.885  12.466  23.615  0.00  0.00    +0.000 C 
ENDBRANCH  23  25
ENDBRANCH  21  23
ENDBRANCH   1  21
BRANCH  16  26
ATOM     26  C   UNL     1       3.059   7.487  19.454  0.00  0.00    +0.000 C 
BRANCH  26  27
ATOM     27  C   UNL     1       2.405   6.084  19.299  0.00  0.00    +0.000 A 
ATOM     28  C   UNL     1       2.331   5.423  18.062  0.00  0.00    +0.000 A 
ATOM     29  C   UNL     1       1.673   4.178  17.917  0.00  0.00    +0.000 A 
ATOM     30  C   UNL     1       1.081   3.532  19.007  0.00  0.00    +0.000 A 
ATOM     31  C   UNL     1       0.318   2.241  18.838  0.00  0.00    +0.000 C 
ATOM     32  C   UNL     1       1.211   4.138  20.259  0.00  0.00    +0.000 A 
ATOM     33  C   UNL     1       1.863   5.388  20.403  0.00  0.00    +0.000 A 
ENDBRANCH  26  27
ENDBRANCH  16  26
TORSDOF 5
ENDMDL
MODEL 7
REMARK VINA RESULT:      -7.2      1.164      1.833
REMARK  Name = 
REMARK  8 active torsions:
REMARK  status: ('A' for Active; 'I' for Inactive)
REMARK    1  A    between atoms: C_1  and  C_2
REMARK    2  A    between atoms: C_2  and  O_3
REMARK    3  A    between atoms: O_3  and  C_4
REMARK    4  A    between atoms: C_4  and  C_6
REMARK    5  A    between atoms: N_21  and  C_22
REMARK    6  A    between atoms: C_22  and  C_23
REMARK    7  A    between atoms: C_26  and  C_27
REMARK    8  A    between atoms: C_32  and  C_33
REMARK                            x       y       z     vdW  Elec       q    Type
REMARK                         _______ _______ _______ _____ _____    ______ ____
ROOT
ATOM      1  C   UNL     1      -1.691  12.681  20.035  0.00  0.00    +0.000 C 
ATOM      2  C   UNL     1      -0.771  13.712  19.304  0.00  0.00    +0.000 C 
ATOM      3  C   UNL     1      -0.939  15.218  19.303  0.00  0.00    +0.000 C 
ATOM      4  O   UNL     1       0.111  15.829  18.515  0.00  0.00    +0.000 OA
ATOM      5  C   UNL     1       1.387  15.405  18.804  0.00  0.00    +0.000 A 
ATOM      6  C   UNL     1       2.438  16.203  18.354  0.00  0.00    +0.000 A 
ATOM      7  C   UNL     1       3.756  15.878  18.689  0.00  0.00    +0.000 A 
ATOM      8  C   UNL     1       4.021  14.778  19.502  0.00  0.00    +0.000 A 
ATOM      9  C   UNL     1       2.972  13.968  19.924  0.00  0.00    +0.000 A 
ATOM     10  C   UNL     1       1.659  14.232  19.511  0.00  0.00    +0.000 A 
ATOM     11  C   UNL     1       0.542  13.345  19.923  0.00  0.00    +0.000 C 
ATOM     12  N   UNL     1       0.506  11.919  19.640  0.00  0.00    +0.000 N 
ATOM     13  C   UNL     1       1.459  11.185  18.972  0.00  0.00    +0.000 C 
ATOM     14  O   UNL     1       2.340  11.637  18.253  0.00  0.00    +0.000 OA
ATOM     15  C   UNL     1       1.268   9.705  19.176  0.00  0.00    +0.000 C 
ATOM     16  N   UNL     1       0.999   9.513  20.608  0.00  0.00    +0.000 N 
ATOM     17  C   UNL     1      -0.101  10.312  21.206  0.00  0.00    +0.000 C 
ATOM     18  O   UNL     1      -0.567  10.082  22.320  0.00  0.00    +0.000 OA
ATOM     19  C   UNL     1      -0.783  11.349  20.136  0.00  0.00    +0.000 C 
ATOM     20  C   UNL     1      -1.625  10.358  19.274  0.00  0.00    +0.000 C 
ENDROOT
BRANCH   1  21
ATOM     21  C   UNL     1      -2.567  13.356  21.052  0.00  0.00    +0.000 C 
ATOM     22  O   UNL     1      -2.111  13.616  22.170  0.00  0.00    +0.000 OA
BRANCH  21  23
ATOM     23  O   UNL     1      -3.824  13.640  20.672  0.00  0.00    +0.000 OA
BRANCH  23  25
ATOM     24  C   UNL     1      -5.337  12.661  19.025  0.00  0.00    +0.000 C 
ATOM     25  C   UNL     1      -4.591  12.463  20.339  0.00  0.00    +0.000 C 
ENDBRANCH  23  25
ENDBRANCH  21  23
ENDBRANCH   1  21
BRANCH  16  26
ATOM     26  C   UNL     1       1.568   8.259  21.195  0.00  0.00    +0.000 C 
BRANCH  26  27
ATOM     27  C   UNL     1       1.837   7.073  20.224  0.00  0.00    +0.000 A 
ATOM     28  C   UNL     1       2.445   7.253  18.972  0.00  0.00    +0.000 A 
ATOM     29  C   UNL     1       2.623   6.180  18.065  0.00  0.00    +0.000 A 
ATOM     30  C   UNL     1       2.219   4.879  18.383  0.00  0.00    +0.000 A 
ATOM     31  C   UNL     1       2.343   3.751  17.389  0.00  0.00    +0.000 C 
ATOM     32  C   UNL     1       1.681   4.668  19.655  0.00  0.00    +0.000 A 
ATOM     33  C   UNL     1       1.496   5.743  20.559  0.00  0.00    +0.000 A 
ENDBRANCH  26  27
ENDBRANCH  16  26
TORSDOF 5
ENDMDL
MODEL 8
REMARK VINA RESULT:      -7.2      3.422      7.795
REMARK  Name = 
REMARK  8 active torsions:
REMARK  status: ('A' for Active; 'I' for Inactive)
REMARK    1  A    between atoms: C_1  and  C_2
REMARK    2  A    between atoms: C_2  and  O_3
REMARK    3  A    between atoms: O_3  and  C_4
REMARK    4  A    between atoms: C_4  and  C_6
REMARK    5  A    between atoms: N_21  and  C_22
REMARK    6  A    between atoms: C_22  and  C_23
REMARK    7  A    between atoms: C_26  and  C_27
REMARK    8  A    between atoms: C_32  and  C_33
REMARK                            x       y       z     vdW  Elec       q    Type
REMARK                         _______ _______ _______ _____ _____    ______ ____
ROOT
ATOM      1  C   UNL     1      -0.700  11.784  20.435  0.00  0.00    +0.000 C 
ATOM      2  C   UNL     1       0.404  12.868  20.211  0.00  0.00    +0.000 C 
ATOM      3  C   UNL     1       1.718  12.667  19.484  0.00  0.00    +0.000 C 
ATOM      4  O   UNL     1       2.471  13.905  19.482  0.00  0.00    +0.000 OA
ATOM      5  C   UNL     1       1.772  15.019  19.084  0.00  0.00    +0.000 A 
ATOM      6  C   UNL     1       2.517  16.139  18.714  0.00  0.00    +0.000 A 
ATOM      7  C   UNL     1       1.873  17.275  18.216  0.00  0.00    +0.000 A 
ATOM      8  C   UNL     1       0.490  17.281  18.053  0.00  0.00    +0.000 A 
ATOM      9  C   UNL     1      -0.253  16.174  18.451  0.00  0.00    +0.000 A 
ATOM     10  C   UNL     1       0.377  15.070  19.042  0.00  0.00    +0.000 A 
ATOM     11  C   UNL     1      -0.416  13.905  19.507  0.00  0.00    +0.000 C 
ATOM     12  N   UNL     1      -1.491  14.006  20.482  0.00  0.00    +0.000 N 
ATOM     13  C   UNL     1      -1.933  15.148  21.108  0.00  0.00    +0.000 C 
ATOM     14  O   UNL     1      -1.325  16.206  21.185  0.00  0.00    +0.000 OA
ATOM     15  C   UNL     1      -3.271  14.941  21.768  0.00  0.00    +0.000 C 
ATOM     16  N   UNL     1      -4.104  14.210  20.800  0.00  0.00    +0.000 N 
ATOM     17  C   UNL     1      -3.548  12.952  20.241  0.00  0.00    +0.000 C 
ATOM     18  O   UNL     1      -4.225  12.143  19.609  0.00  0.00    +0.000 OA
ATOM     19  C   UNL     1      -2.028  12.641  20.768  0.00  0.00    +0.000 C 
ATOM     20  C   UNL     1      -2.321  12.167  22.225  0.00  0.00    +0.000 C 
ENDROOT
BRANCH   1  21
ATOM     21  C   UNL     1      -0.492  10.598  19.537  0.00  0.00    +0.000 C 
ATOM     22  O   UNL     1      -0.972  10.606  18.399  0.00  0.00    +0.000 OA
BRANCH  21  23
ATOM     23  O   UNL     1       0.219   9.576  20.041  0.00  0.00    +0.000 OA
BRANCH  23  25
ATOM     24  C   UNL     1       1.072   9.154  22.290  0.00  0.00    +0.000 C 
ATOM     25  C   UNL     1      -0.158   9.240  21.394  0.00  0.00    +0.000 C 
ENDBRANCH  23  25
ENDBRANCH  21  23
ENDBRANCH   1  21
BRANCH  16  26
ATOM     26  C   UNL     1      -5.553  14.582  20.806  0.00  0.00    +0.000 C 
BRANCH  26  27
ATOM     27  C   UNL     1      -6.151  15.150  19.486  0.00  0.00    +0.000 A 
ATOM     28  C   UNL     1      -6.744  14.326  18.516  0.00  0.00    +0.000 A 
ATOM     29  C   UNL     1      -7.223  14.841  17.288  0.00  0.00    +0.000 A 
ATOM     30  C   UNL     1      -7.147  16.206  16.988  0.00  0.00    +0.000 A 
ATOM     31  C   UNL     1      -7.591  16.744  15.650  0.00  0.00    +0.000 C 
ATOM     32  C   UNL     1      -6.629  17.050  17.973  0.00  0.00    +0.000 A 
ATOM     33  C   UNL     1      -6.143  16.534  19.199  0.00  0.00    +0.000 A 
ENDBRANCH  26  27
ENDBRANCH  16  26
TORSDOF 5
ENDMDL
MODEL 9
REMARK VINA RESULT:      -7.1      3.093      6.629
REMARK  Name = 
REMARK  8 active torsions:
REMARK  status: ('A' for Active; 'I' for Inactive)
REMARK    1  A    between atoms: C_1  and  C_2
REMARK    2  A    between atoms: C_2  and  O_3
REMARK    3  A    between atoms: O_3  and  C_4
REMARK    4  A    between atoms: C_4  and  C_6
REMARK    5  A    between atoms: N_21  and  C_22
REMARK    6  A    between atoms: C_22  and  C_23
REMARK    7  A    between atoms: C_26  and  C_27
REMARK    8  A    between atoms: C_32  and  C_33
REMARK                            x       y       z     vdW  Elec       q    Type
REMARK                         _______ _______ _______ _____ _____    ______ ____
ROOT
ATOM      1  C   UNL     1      -1.607  14.750  22.207  0.00  0.00    +0.000 C 
ATOM      2  C   UNL     1      -1.263  13.274  22.594  0.00  0.00    +0.000 C 
ATOM      3  C   UNL     1      -2.247  12.219  23.058  0.00  0.00    +0.000 C 
ATOM      4  O   UNL     1      -1.548  10.978  23.320  0.00  0.00    +0.000 OA
ATOM      5  C   UNL     1      -0.701  10.558  22.322  0.00  0.00    +0.000 A 
ATOM      6  C   UNL     1      -0.297   9.223  22.351  0.00  0.00    +0.000 A 
ATOM      7  C   UNL     1       0.492   8.708  21.318  0.00  0.00    +0.000 A 
ATOM      8  C   UNL     1       0.847   9.514  20.240  0.00  0.00    +0.000 A 
ATOM      9  C   UNL     1       0.468  10.852  20.228  0.00  0.00    +0.000 A 
ATOM     10  C   UNL     1      -0.239  11.400  21.307  0.00  0.00    +0.000 A 
ATOM     11  C   UNL     1      -0.609  12.837  21.320  0.00  0.00    +0.000 C 
ATOM     12  N   UNL     1       0.362  13.915  21.213  0.00  0.00    +0.000 N 
ATOM     13  C   UNL     1       1.727  13.787  21.088  0.00  0.00    +0.000 C 
ATOM     14  O   UNL     1       2.380  12.784  21.340  0.00  0.00    +0.000 OA
ATOM     15  C   UNL     1       2.370  15.076  20.648  0.00  0.00    +0.000 C 
ATOM     16  N   UNL     1       1.534  15.609  19.562  0.00  0.00    +0.000 N 
ATOM     17  C   UNL     1       0.083  15.766  19.837  0.00  0.00    +0.000 C 
ATOM     18  O   UNL     1      -0.672  16.402  19.104  0.00  0.00    +0.000 OA
ATOM     19  C   UNL     1      -0.342  15.228  21.324  0.00  0.00    +0.000 C 
ATOM     20  C   UNL     1       0.215  16.381  22.216  0.00  0.00    +0.000 C 
ENDROOT
BRANCH   1  21
ATOM     21  C   UNL     1      -3.083  14.928  21.992  0.00  0.00    +0.000 C 
ATOM     22  O   UNL     1      -3.799  15.261  22.940  0.00  0.00    +0.000 OA
BRANCH  21  23
ATOM     23  O   UNL     1      -3.543  14.705  20.750  0.00  0.00    +0.000 OA
BRANCH  23  25
ATOM     24  C   UNL     1      -4.328  12.552  19.906  0.00  0.00    +0.000 C 
ATOM     25  C   UNL     1      -4.665  13.796  20.719  0.00  0.00    +0.000 C 
ENDBRANCH  23  25
ENDBRANCH  21  23
ENDBRANCH   1  21
BRANCH  16  26
ATOM     26  C   UNL     1       2.285  16.311  18.474  0.00  0.00    +0.000 C 
BRANCH  26  27
ATOM     27  C   UNL     1       3.818  16.058  18.385  0.00  0.00    +0.000 A 
ATOM     28  C   UNL     1       4.355  14.905  17.791  0.00  0.00    +0.000 A 
ATOM     29  C   UNL     1       5.747  14.650  17.776  0.00  0.00    +0.000 A 
ATOM     30  C   UNL     1       6.661  15.549  18.336  0.00  0.00    +0.000 A 
ATOM     31  C   UNL     1       8.138  15.242  18.384  0.00  0.00    +0.000 C 
ATOM     32  C   UNL     1       6.151  16.737  18.863  0.00  0.00    +0.000 A 
ATOM     33  C   UNL     1       4.757  16.989  18.885  0.00  0.00    +0.000 A 
ENDBRANCH  26  27
ENDBRANCH  16  26
TORSDOF 5
ENDMDL
