MODEL 1
REMARK VINA RESULT:      -7.7      0.000      0.000
REMARK  Name = 
REMARK  8 active torsions:
REMARK  status: ('A' for Active; 'I' for Inactive)
REMARK    1  A    between atoms: C_1  and  O_2
REMARK    2  A    between atoms: O_2  and  C_3
REMARK    3  A    between atoms: C_6  and  C_7
REMARK    4  A    between atoms: C_7  and  O_8
REMARK    5  A    between atoms: C_7  and  C_16
REMARK    6  A    between atoms: O_8  and  C_9
REMARK    7  A    between atoms: C_9  and  C_11
REMARK    8  A    between atoms: N_18  and  C_19
REMARK                            x       y       z     vdW  Elec       q    Type
REMARK                         _______ _______ _______ _____ _____    ______ ____
ROOT
ATOM      1  C   UNL     1       4.369   4.226  17.713  0.00  0.00    +0.000 C 
ENDROOT
BRANCH   1   5
ATOM      2  C   UNL     1       2.609   8.196  17.813  0.00  0.00    +0.000 A 
ATOM      3  C   UNL     1       3.882   7.994  17.276  0.00  0.00    +0.000 A 
ATOM      4  C   UNL     1       4.434   6.712  17.214  0.00  0.00    +0.000 A 
ATOM      5  C   UNL     1       3.728   5.605  17.709  0.00  0.00    +0.000 A 
ATOM      6  C   UNL     1       2.446   5.815  18.238  0.00  0.00    +0.000 A 
ATOM      7  C   UNL     1       1.891   7.099  18.289  0.00  0.00    +0.000 A 
BRANCH   2   9
ATOM      8  C   UNL     1       1.128   9.794  18.746  0.00  0.00    +0.000 C 
ATOM      9  O   UNL     1       2.203   9.501  17.862  0.00  0.00    +0.000 OA
ENDBRANCH   2   9
ENDBRANCH   1   5
BRANCH   1  10
ATOM     10  C   UNL     1       5.557   4.137  16.719  0.00  0.00    +0.000 C 
ATOM     11  O   UNL     1       6.728   4.157  17.097  0.00  0.00    +0.000 OA
ATOM     12  N   UNL     1       5.222   3.982  15.381  0.00  0.00    +0.000 N 
ATOM     13  H   UNL     1       4.262   4.177  15.110  0.00  0.00    +0.000 HD
BRANCH  12  14
ATOM     14  C   UNL     1       6.261   3.895  14.375  0.00  0.00    +0.000 C 
ATOM     15  C   UNL     1       5.762   3.586  12.968  0.00  0.00    +0.000 C 
ATOM     16  C   UNL     1       6.984   3.891  12.104  0.00  0.00    +0.000 C 
ATOM     17  C   UNL     1       7.726   5.021  12.823  0.00  0.00    +0.000 C 
ATOM     18  C   UNL     1       7.023   5.202  14.168  0.00  0.00    +0.000 C 
ENDBRANCH  12  14
ENDBRANCH   1  10
BRANCH   1  19
ATOM     19  O   UNL     1       3.368   3.239  17.430  0.00  0.00    +0.000 OA
BRANCH  19  20
ATOM     20  C   UNL     1       3.373   2.162  18.271  0.00  0.00    +0.000 C 
ATOM     21  O   UNL     1       3.895   1.082  18.024  0.00  0.00    +0.000 OA
BRANCH  20  22
ATOM     22  C   UNL     1       2.648   2.468  19.482  0.00  0.00    +0.000 A 
ATOM     23  C   UNL     1       1.297   2.683  19.693  0.00  0.00    +0.000 A 
ATOM     24  C   UNL     1       1.133   2.958  21.071  0.00  0.00    +0.000 A 
ATOM     25  C   UNL     1       2.390   2.891  21.623  0.00  0.00    +0.000 A 
ATOM     26  O   UNL     1       3.315   2.598  20.674  0.00  0.00    +0.000 OA
ENDBRANCH  20  22
ENDBRANCH  19  20
ENDBRANCH   1  19
TORSDOF 7
ENDMDL
MODEL 2
REMARK VINA RESULT:      -7.7      1.873      5.466
REMARK  Name = 
REMARK  8 active torsions:
REMARK  status: ('A' for Active; 'I' for Inactive)
REMARK    1  A    between atoms: C_1  and  O_2
REMARK    2  A    between atoms: O_2  and  C_3
REMARK    3  A    between atoms: C_6  and  C_7
REMARK    4  A    between atoms: C_7  and  O_8
REMARK    5  A    between atoms: C_7  and  C_16
REMARK    6  A    between atoms: O_8  and  C_9
REMARK    7  A    between atoms: C_9  and  C_11
REMARK    8  A    between atoms: N_18  and  C_19
REMARK                            x       y       z     vdW  Elec       q    Type
REMARK                         _______ _______ _______ _____ _____    ______ ____
ROOT
ATOM      1  C   UNL     1       4.195   3.893  17.933  0.00  0.00    +0.000 C 
ENDROOT
BRANCH   1   5
ATOM      2  C   UNL     1       7.130   5.025  14.937  0.00  0.00    +0.000 A 
ATOM      3  C   UNL     1       7.206   5.531  16.236  0.00  0.00    +0.000 A 
ATOM      4  C   UNL     1       6.282   5.141  17.208  0.00  0.00    +0.000 A 
ATOM      5  C   UNL     1       5.246   4.248  16.892  0.00  0.00    +0.000 A 
ATOM      6  C   UNL     1       5.182   3.737  15.588  0.00  0.00    +0.000 A 
ATOM      7  C   UNL     1       6.117   4.121  14.619  0.00  0.00    +0.000 A 
BRANCH   2   9
ATOM      8  C   UNL     1       7.831   5.275  12.686  0.00  0.00    +0.000 C 
ATOM      9  O   UNL     1       8.062   5.521  14.068  0.00  0.00    +0.000 OA
ENDBRANCH   2   9
ENDBRANCH   1   5
BRANCH   1  10
ATOM     10  C   UNL     1       3.026   4.911  17.945  0.00  0.00    +0.000 C 
ATOM     11  O   UNL     1       1.919   4.641  17.479  0.00  0.00    +0.000 OA
ATOM     12  N   UNL     1       3.283   6.127  18.562  0.00  0.00    +0.000 N 
ATOM     13  H   UNL     1       4.253   6.370  18.740  0.00  0.00    +0.000 HD
BRANCH  12  14
ATOM     14  C   UNL     1       2.254   7.147  18.620  0.00  0.00    +0.000 C 
ATOM     15  C   UNL     1       2.033   7.752  20.001  0.00  0.00    +0.000 C 
ATOM     16  C   UNL     1       1.182   8.982  19.697  0.00  0.00    +0.000 C 
ATOM     17  C   UNL     1       1.620   9.454  18.308  0.00  0.00    +0.000 C 
ATOM     18  C   UNL     1       2.567   8.379  17.773  0.00  0.00    +0.000 C 
ENDBRANCH  12  14
ENDBRANCH   1  10
BRANCH   1  19
ATOM     19  O   UNL     1       4.822   3.790  19.220  0.00  0.00    +0.000 OA
BRANCH  19  20
ATOM     20  C   UNL     1       4.443   2.703  19.954  0.00  0.00    +0.000 C 
ATOM     21  O   UNL     1       5.190   1.797  20.302  0.00  0.00    +0.000 OA
BRANCH  20  22
ATOM     22  C   UNL     1       3.028   2.755  20.236  0.00  0.00    +0.000 A 
ATOM     23  C   UNL     1       2.327   3.463  21.198  0.00  0.00    +0.000 A 
ATOM     24  C   UNL     1       0.960   3.135  21.037  0.00  0.00    +0.000 A 
ATOM     25  C   UNL     1       0.904   2.253  19.985  0.00  0.00    +0.000 A 
ATOM     26  O   UNL     1       2.145   2.013  19.494  0.00  0.00    +0.000 OA
ENDBRANCH  20  22
ENDBRANCH  19  20
ENDBRANCH   1  19
TORSDOF 7
ENDMDL
MODEL 3
REMARK VINA RESULT:      -7.4      1.688      2.554
REMARK  Name = 
REMARK  8 active torsions:
REMARK  status: ('A' for Active; 'I' for Inactive)
REMARK    1  A    between atoms: C_1  and  O_2
REMARK    2  A    between atoms: O_2  and  C_3
REMARK    3  A    between atoms: C_6  and  C_7
REMARK    4  A    between atoms: C_7  and  O_8
REMARK    5  A    between atoms: C_7  and  C_16
REMARK    6  A    between atoms: O_8  and  C_9
REMARK    7  A    between atoms: C_9  and  C_11
REMARK    8  A    between atoms: N_18  and  C_19
REMARK                            x       y       z     vdW  Elec       q    Type
REMARK                         _______ _______ _______ _____ _____    ______ ____
ROOT
ATOM      1  C   UNL     1       2.908   5.924  18.372  0.00  0.00    +0.000 C 
ENDROOT
BRANCH   1   5
ATOM      2  C   UNL     1       0.996   9.556  19.794  0.00  0.00    +0.000 A 
ATOM      3  C   UNL     1       1.316   8.525  20.680  0.00  0.00    +0.000 A 
ATOM      4  C   UNL     1       1.961   7.372  20.227  0.00  0.00    +0.000 A 
ATOM      5  C   UNL     1       2.281   7.217  18.869  0.00  0.00    +0.000 A 
ATOM      6  C   UNL     1       1.964   8.261  17.988  0.00  0.00    +0.000 A 
ATOM      7  C   UNL     1       1.328   9.421  18.446  0.00  0.00    +0.000 A 
BRANCH   2   9
ATOM      8  C   UNL     1      -0.376  10.342  21.560  0.00  0.00    +0.000 C 
ATOM      9  O   UNL     1       0.323  10.608  20.350  0.00  0.00    +0.000 OA
ENDBRANCH   2   9
ENDBRANCH   1   5
BRANCH   1  10
ATOM     10  C   UNL     1       4.060   6.190  17.367  0.00  0.00    +0.000 C 
ATOM     11  O   UNL     1       4.672   7.257  17.342  0.00  0.00    +0.000 OA
ATOM     12  N   UNL     1       4.397   5.133  16.533  0.00  0.00    +0.000 N 
ATOM     13  H   UNL     1       3.737   4.365  16.455  0.00  0.00    +0.000 HD
BRANCH  12  14
ATOM     14  C   UNL     1       5.456   5.285  15.556  0.00  0.00    +0.000 C 
ATOM     15  C   UNL     1       6.849   4.936  16.067  0.00  0.00    +0.000 C 
ATOM     16  C   UNL     1       7.669   4.857  14.781  0.00  0.00    +0.000 C 
ATOM     17  C   UNL     1       6.699   4.366  13.703  0.00  0.00    +0.000 C 
ATOM     18  C   UNL     1       5.313   4.361  14.349  0.00  0.00    +0.000 C 
ENDBRANCH  12  14
ENDBRANCH   1  10
BRANCH   1  19
ATOM     19  O   UNL     1       1.888   5.094  17.800  0.00  0.00    +0.000 OA
BRANCH  19  20
ATOM     20  C   UNL     1       2.078   3.752  17.975  0.00  0.00    +0.000 C 
ATOM     21  O   UNL     1       2.289   2.950  17.075  0.00  0.00    +0.000 OA
BRANCH  20  22
ATOM     22  C   UNL     1       1.964   3.408  19.374  0.00  0.00    +0.000 A 
ATOM     23  C   UNL     1       0.890   3.511  20.241  0.00  0.00    +0.000 A 
ATOM     24  C   UNL     1       1.333   3.044  21.501  0.00  0.00    +0.000 A 
ATOM     25  C   UNL     1       2.646   2.680  21.331  0.00  0.00    +0.000 A 
ATOM     26  O   UNL     1       3.041   2.897  20.051  0.00  0.00    +0.000 OA
ENDBRANCH  20  22
ENDBRANCH  19  20
ENDBRANCH   1  19
TORSDOF 7
ENDMDL
MODEL 4
REMARK VINA RESULT:      -7.4      2.554      6.635
REMARK  Name = 
REMARK  8 active torsions:
REMARK  status: ('A' for Active; 'I' for Inactive)
REMARK    1  A    between atoms: C_1  and  O_2
REMARK    2  A    between atoms: O_2  and  C_3
REMARK    3  A    between atoms: C_6  and  C_7
REMARK    4  A    between atoms: C_7  and  O_8
REMARK    5  A    between atoms: C_7  and  C_16
REMARK    6  A    between atoms: O_8  and  C_9
REMARK    7  A    between atoms: C_9  and  C_11
REMARK    8  A    between atoms: N_18  and  C_19
REMARK                            x       y       z     vdW  Elec       q    Type
REMARK                         _______ _______ _______ _____ _____    ______ ____
ROOT
ATOM      1  C   UNL     1       5.239   4.467  16.106  0.00  0.00    +0.000 C 
ENDROOT
BRANCH   1   5
ATOM      2  C   UNL     1       7.837   7.201  18.263  0.00  0.00    +0.000 A 
ATOM      3  C   UNL     1       6.875   7.684  17.374  0.00  0.00    +0.000 A 
ATOM      4  C   UNL     1       6.017   6.807  16.706  0.00  0.00    +0.000 A 
ATOM      5  C   UNL     1       6.121   5.420  16.899  0.00  0.00    +0.000 A 
ATOM      6  C   UNL     1       7.083   4.943  17.801  0.00  0.00    +0.000 A 
ATOM      7  C   UNL     1       7.933   5.827  18.478  0.00  0.00    +0.000 A 
BRANCH   2   9
ATOM      8  C   UNL     1       8.533   9.467  18.276  0.00  0.00    +0.000 C 
ATOM      9  O   UNL     1       8.646   8.156  18.815  0.00  0.00    +0.000 OA
ENDBRANCH   2   9
ENDBRANCH   1   5
BRANCH   1  10
ATOM     10  C   UNL     1       4.322   3.624  17.030  0.00  0.00    +0.000 C 
ATOM     11  O   UNL     1       4.277   2.396  16.962  0.00  0.00    +0.000 OA
ATOM     12  N   UNL     1       3.593   4.332  17.976  0.00  0.00    +0.000 N 
ATOM     13  H   UNL     1       3.511   5.337  17.852  0.00  0.00    +0.000 HD
BRANCH  12  14
ATOM     14  C   UNL     1       2.703   3.634  18.882  0.00  0.00    +0.000 C 
ATOM     15  C   UNL     1       3.358   3.146  20.169  0.00  0.00    +0.000 C 
ATOM     16  C   UNL     1       2.158   2.779  21.039  0.00  0.00    +0.000 C 
ATOM     17  C   UNL     1       1.040   3.741  20.627  0.00  0.00    +0.000 C 
ATOM     18  C   UNL     1       1.562   4.502  19.408  0.00  0.00    +0.000 C 
ENDBRANCH  12  14
ENDBRANCH   1  10
BRANCH   1  19
ATOM     19  O   UNL     1       6.066   3.636  15.280  0.00  0.00    +0.000 OA
BRANCH  19  20
ATOM     20  C   UNL     1       6.475   4.217  14.113  0.00  0.00    +0.000 C 
ATOM     21  O   UNL     1       7.242   5.169  14.035  0.00  0.00    +0.000 OA
BRANCH  20  22
ATOM     22  C   UNL     1       5.848   3.570  12.984  0.00  0.00    +0.000 A 
ATOM     23  C   UNL     1       4.626   3.804  12.377  0.00  0.00    +0.000 A 
ATOM     24  C   UNL     1       4.506   2.871  11.320  0.00  0.00    +0.000 A 
ATOM     25  C   UNL     1       5.660   2.126  11.339  0.00  0.00    +0.000 A 
ATOM     26  O   UNL     1       6.479   2.536  12.340  0.00  0.00    +0.000 OA
ENDBRANCH  20  22
ENDBRANCH  19  20
ENDBRANCH   1  19
TORSDOF 7
ENDMDL
MODEL 5
REMARK VINA RESULT:      -7.4      1.707      5.357
REMARK  Name = 
REMARK  8 active torsions:
REMARK  status: ('A' for Active; 'I' for Inactive)
REMARK    1  A    between atoms: C_1  and  O_2
REMARK    2  A    between atoms: O_2  and  C_3
REMARK    3  A    between atoms: C_6  and  C_7
REMARK    4  A    between atoms: C_7  and  O_8
REMARK    5  A    between atoms: C_7  and  C_16
REMARK    6  A    between atoms: O_8  and  C_9
REMARK    7  A    between atoms: C_9  and  C_11
REMARK    8  A    between atoms: N_18  and  C_19
REMARK                            x       y       z     vdW  Elec       q    Type
REMARK                         _______ _______ _______ _____ _____    ______ ____
ROOT
ATOM      1  C   UNL     1       3.785   3.672  17.248  0.00  0.00    +0.000 C 
ENDROOT
BRANCH   1   5
ATOM      2  C   UNL     1       7.061   5.186  14.830  0.00  0.00    +0.000 A 
ATOM      3  C   UNL     1       6.069   4.383  14.263  0.00  0.00    +0.000 A 
ATOM      4  C   UNL     1       4.998   3.924  15.034  0.00  0.00    +0.000 A 
ATOM      5  C   UNL     1       4.910   4.243  16.398  0.00  0.00    +0.000 A 
ATOM      6  C   UNL     1       5.905   5.058  16.957  0.00  0.00    +0.000 A 
ATOM      7  C   UNL     1       6.971   5.526  16.179  0.00  0.00    +0.000 A 
BRANCH   2   9
ATOM      8  C   UNL     1       7.848   5.316  12.598  0.00  0.00    +0.000 C 
ATOM      9  O   UNL     1       8.080   5.529  13.984  0.00  0.00    +0.000 OA
ENDBRANCH   2   9
ENDBRANCH   1   5
BRANCH   1  10
ATOM     10  C   UNL     1       2.690   4.729  17.545  0.00  0.00    +0.000 C 
ATOM     11  O   UNL     1       1.497   4.510  17.338  0.00  0.00    +0.000 OA
ATOM     12  N   UNL     1       3.129   5.919  18.109  0.00  0.00    +0.000 N 
ATOM     13  H   UNL     1       4.124   6.122  18.066  0.00  0.00    +0.000 HD
BRANCH  12  14
ATOM     14  C   UNL     1       2.182   6.971  18.418  0.00  0.00    +0.000 C 
ATOM     15  C   UNL     1       2.146   7.386  19.885  0.00  0.00    +0.000 C 
ATOM     16  C   UNL     1       1.351   8.689  19.846  0.00  0.00    +0.000 C 
ATOM     17  C   UNL     1       1.673   9.329  18.493  0.00  0.00    +0.000 C 
ATOM     18  C   UNL     1       2.486   8.293  17.716  0.00  0.00    +0.000 C 
ENDBRANCH  12  14
ENDBRANCH   1  10
BRANCH   1  19
ATOM     19  O   UNL     1       4.337   3.127  18.455  0.00  0.00    +0.000 OA
BRANCH  19  20
ATOM     20  C   UNL     1       3.693   2.018  18.927  0.00  0.00    +0.000 C 
ATOM     21  O   UNL     1       3.846   0.882  18.498  0.00  0.00    +0.000 OA
BRANCH  20  22
ATOM     22  C   UNL     1       2.780   2.381  19.986  0.00  0.00    +0.000 A 
ATOM     23  C   UNL     1       1.396   2.337  20.037  0.00  0.00    +0.000 A 
ATOM     24  C   UNL     1       1.016   2.822  21.310  0.00  0.00    +0.000 A 
ATOM     25  C   UNL     1       2.184   3.129  21.964  0.00  0.00    +0.000 A 
ATOM     26  O   UNL     1       3.257   2.870  21.175  0.00  0.00    +0.000 OA
ENDBRANCH  20  22
ENDBRANCH  19  20
ENDBRANCH   1  19
TORSDOF 7
ENDMDL
MODEL 6
REMARK VINA RESULT:      -7.3      1.816      5.628
REMARK  Name = 
REMARK  8 active torsions:
REMARK  status: ('A' for Active; 'I' for Inactive)
REMARK    1  A    between atoms: C_1  and  O_2
REMARK    2  A    between atoms: O_2  and  C_3
REMARK    3  A    between atoms: C_6  and  C_7
REMARK    4  A    between atoms: C_7  and  O_8
REMARK    5  A    between atoms: C_7  and  C_16
REMARK    6  A    between atoms: O_8  and  C_9
REMARK    7  A    between atoms: C_9  and  C_11
REMARK    8  A    between atoms: N_18  and  C_19
REMARK                            x       y       z     vdW  Elec       q    Type
REMARK                         _______ _______ _______ _____ _____    ______ ____
ROOT
ATOM      1  C   UNL     1       4.018   4.187  17.866  0.00  0.00    +0.000 C 
ENDROOT
BRANCH   1   5
ATOM      2  C   UNL     1       6.616   5.153  14.521  0.00  0.00    +0.000 A 
ATOM      3  C   UNL     1       6.464   3.833  14.948  0.00  0.00    +0.000 A 
ATOM      4  C   UNL     1       5.603   3.518  16.002  0.00  0.00    +0.000 A 
ATOM      5  C   UNL     1       4.890   4.527  16.667  0.00  0.00    +0.000 A 
ATOM      6  C   UNL     1       5.040   5.850  16.226  0.00  0.00    +0.000 A 
ATOM      7  C   UNL     1       5.895   6.161  15.162  0.00  0.00    +0.000 A 
BRANCH   2   9
ATOM      8  C   UNL     1       7.300   4.595  12.322  0.00  0.00    +0.000 C 
ATOM      9  O   UNL     1       7.523   5.335  13.515  0.00  0.00    +0.000 OA
ENDBRANCH   2   9
ENDBRANCH   1   5
BRANCH   1  10
ATOM     10  C   UNL     1       3.838   5.403  18.813  0.00  0.00    +0.000 C 
ATOM     11  O   UNL     1       4.706   5.737  19.619  0.00  0.00    +0.000 OA
ATOM     12  N   UNL     1       2.662   6.124  18.662  0.00  0.00    +0.000 N 
ATOM     13  H   UNL     1       1.907   5.690  18.139  0.00  0.00    +0.000 HD
BRANCH  12  14
ATOM     14  C   UNL     1       2.399   7.274  19.504  0.00  0.00    +0.000 C 
ATOM     15  C   UNL     1       1.659   8.414  18.814  0.00  0.00    +0.000 C 
ATOM     16  C   UNL     1       1.232   9.295  19.985  0.00  0.00    +0.000 C 
ATOM     17  C   UNL     1       1.003   8.340  21.159  0.00  0.00    +0.000 C 
ATOM     18  C   UNL     1       1.487   6.967  20.689  0.00  0.00    +0.000 C 
ENDBRANCH  12  14
ENDBRANCH   1  10
BRANCH   1  19
ATOM     19  O   UNL     1       4.580   3.060  18.553  0.00  0.00    +0.000 OA
BRANCH  19  20
ATOM     20  C   UNL     1       3.698   2.046  18.802  0.00  0.00    +0.000 C 
ATOM     21  O   UNL     1       3.723   0.947  18.262  0.00  0.00    +0.000 OA
BRANCH  20  22
ATOM     22  C   UNL     1       2.712   2.465  19.771  0.00  0.00    +0.000 A 
ATOM     23  C   UNL     1       1.347   2.657  19.641  0.00  0.00    +0.000 A 
ATOM     24  C   UNL     1       0.869   3.084  20.903  0.00  0.00    +0.000 A 
ATOM     25  C   UNL     1       1.966   3.123  21.730  0.00  0.00    +0.000 A 
ATOM     26  O   UNL     1       3.086   2.753  21.059  0.00  0.00    +0.000 OA
ENDBRANCH  20  22
ENDBRANCH  19  20
ENDBRANCH   1  19
TORSDOF 7
ENDMDL
MODEL 7
REMARK VINA RESULT:      -7.3      2.300      7.234
REMARK  Name = 
REMARK  8 active torsions:
REMARK  status: ('A' for Active; 'I' for Inactive)
REMARK    1  A    between atoms: C_1  and  O_2
REMARK    2  A    between atoms: O_2  and  C_3
REMARK    3  A    between atoms: C_6  and  C_7
REMARK    4  A    between atoms: C_7  and  O_8
REMARK    5  A    between atoms: C_7  and  C_16
REMARK    6  A    between atoms: O_8  and  C_9
REMARK    7  A    between atoms: C_9  and  C_11
REMARK    8  A    between atoms: N_18  and  C_19
REMARK                            x       y       z     vdW  Elec       q    Type
REMARK                         _______ _______ _______ _____ _____    ______ ____
ROOT
ATOM      1  C   UNL     1       3.462   7.275  18.148  0.00  0.00    +0.000 C 
ENDROOT
BRANCH   1   5
ATOM      2  C   UNL     1       1.536   3.737  19.775  0.00  0.00    +0.000 A 
ATOM      3  C   UNL     1       2.207   4.632  20.611  0.00  0.00    +0.000 A 
ATOM      4  C   UNL     1       2.798   5.786  20.092  0.00  0.00    +0.000 A 
ATOM      5  C   UNL     1       2.746   6.059  18.716  0.00  0.00    +0.000 A 
ATOM      6  C   UNL     1       2.062   5.161  17.884  0.00  0.00    +0.000 A 
ATOM      7  C   UNL     1       1.461   4.010  18.409  0.00  0.00    +0.000 A 
BRANCH   2   9
ATOM      8  C   UNL     1       1.410   2.447  21.759  0.00  0.00    +0.000 C 
ATOM      9  O   UNL     1       1.045   2.622  20.396  0.00  0.00    +0.000 OA
ENDBRANCH   2   9
ENDBRANCH   1   5
BRANCH   1  10
ATOM     10  C   UNL     1       2.527   8.509  18.063  0.00  0.00    +0.000 C 
ATOM     11  O   UNL     1       2.457   9.208  17.052  0.00  0.00    +0.000 OA
ATOM     12  N   UNL     1       1.732   8.749  19.175  0.00  0.00    +0.000 N 
ATOM     13  H   UNL     1       1.977   8.276  20.040  0.00  0.00    +0.000 HD
BRANCH  12  14
ATOM     14  C   UNL     1       0.828   9.882  19.195  0.00  0.00    +0.000 C 
ATOM     15  C   UNL     1      -0.420   9.717  18.335  0.00  0.00    +0.000 C 
ATOM     16  C   UNL     1      -1.308  10.865  18.809  0.00  0.00    +0.000 C 
ATOM     17  C   UNL     1      -0.966  11.068  20.287  0.00  0.00    +0.000 C 
ATOM     18  C   UNL     1       0.237  10.168  20.573  0.00  0.00    +0.000 C 
ENDBRANCH  12  14
ENDBRANCH   1  10
BRANCH   1  19
ATOM     19  O   UNL     1       4.016   6.941  16.867  0.00  0.00    +0.000 OA
BRANCH  19  20
ATOM     20  C   UNL     1       5.370   6.766  16.858  0.00  0.00    +0.000 C 
ATOM     21  O   UNL     1       6.167   7.429  17.511  0.00  0.00    +0.000 OA
BRANCH  20  22
ATOM     22  C   UNL     1       5.734   5.708  15.945  0.00  0.00    +0.000 A 
ATOM     23  C   UNL     1       5.113   4.501  15.672  0.00  0.00    +0.000 A 
ATOM     24  C   UNL     1       5.904   3.841  14.703  0.00  0.00    +0.000 A 
ATOM     25  C   UNL     1       6.958   4.682  14.436  0.00  0.00    +0.000 A 
ATOM     26  O   UNL     1       6.869   5.812  15.181  0.00  0.00    +0.000 OA
ENDBRANCH  20  22
ENDBRANCH  19  20
ENDBRANCH   1  19
TORSDOF 7
ENDMDL
MODEL 8
REMARK VINA RESULT:      -7.2      1.853      3.007
REMARK  Name = 
REMARK  8 active torsions:
REMARK  status: ('A' for Active; 'I' for Inactive)
REMARK    1  A    between atoms: C_1  and  O_2
REMARK    2  A    between atoms: O_2  and  C_3
REMARK    3  A    between atoms: C_6  and  C_7
REMARK    4  A    between atoms: C_7  and  O_8
REMARK    5  A    between atoms: C_7  and  C_16
REMARK    6  A    between atoms: O_8  and  C_9
REMARK    7  A    between atoms: C_9  and  C_11
REMARK    8  A    between atoms: N_18  and  C_19
REMARK                            x       y       z     vdW  Elec       q    Type
REMARK                         _______ _______ _______ _____ _____    ______ ____
ROOT
ATOM      1  C   UNL     1       2.752   5.904  19.719  0.00  0.00    +0.000 C 
ENDROOT
BRANCH   1   5
ATOM      2  C   UNL     1       1.122   9.857  18.956  0.00  0.00    +0.000 A 
ATOM      3  C   UNL     1       1.012   9.273  20.219  0.00  0.00    +0.000 A 
ATOM      4  C   UNL     1       1.565   8.015  20.473  0.00  0.00    +0.000 A 
ATOM      5  C   UNL     1       2.225   7.306  19.457  0.00  0.00    +0.000 A 
ATOM      6  C   UNL     1       2.340   7.905  18.194  0.00  0.00    +0.000 A 
ATOM      7  C   UNL     1       1.794   9.170  17.946  0.00  0.00    +0.000 A 
BRANCH   2   9
ATOM      8  C   UNL     1       0.669  11.988  19.891  0.00  0.00    +0.000 C 
ATOM      9  O   UNL     1       0.497  11.066  18.822  0.00  0.00    +0.000 OA
ENDBRANCH   2   9
ENDBRANCH   1   5
BRANCH   1  10
ATOM     10  C   UNL     1       4.070   5.628  18.948  0.00  0.00    +0.000 C 
ATOM     11  O   UNL     1       5.168   5.649  19.504  0.00  0.00    +0.000 OA
ATOM     12  N   UNL     1       3.936   5.304  17.606  0.00  0.00    +0.000 N 
ATOM     13  H   UNL     1       3.044   5.502  17.160  0.00  0.00    +0.000 HD
BRANCH  12  14
ATOM     14  C   UNL     1       5.109   5.036  16.800  0.00  0.00    +0.000 C 
ATOM     15  C   UNL     1       5.098   3.688  16.087  0.00  0.00    +0.000 C 
ATOM     16  C   UNL     1       6.242   3.829  15.085  0.00  0.00    +0.000 C 
ATOM     17  C   UNL     1       6.281   5.312  14.708  0.00  0.00    +0.000 C 
ATOM     18  C   UNL     1       5.292   6.013  15.641  0.00  0.00    +0.000 C 
ENDBRANCH  12  14
ENDBRANCH   1  10
BRANCH   1  19
ATOM     19  O   UNL     1       1.736   4.947  19.387  0.00  0.00    +0.000 OA
BRANCH  19  20
ATOM     20  C   UNL     1       1.728   3.828  20.169  0.00  0.00    +0.000 C 
ATOM     21  O   UNL     1       1.057   3.686  21.184  0.00  0.00    +0.000 OA
BRANCH  20  22
ATOM     22  C   UNL     1       2.648   2.844  19.647  0.00  0.00    +0.000 A 
ATOM     23  C   UNL     1       2.598   2.093  18.485  0.00  0.00    +0.000 A 
ATOM     24  C   UNL     1       3.752   1.274  18.475  0.00  0.00    +0.000 A 
ATOM     25  C   UNL     1       4.440   1.574  19.625  0.00  0.00    +0.000 A 
ATOM     26  O   UNL     1       3.783   2.519  20.344  0.00  0.00    +0.000 OA
ENDBRANCH  20  22
ENDBRANCH  19  20
ENDBRANCH   1  19
TORSDOF 7
ENDMDL
MODEL 9
REMARK VINA RESULT:      -7.2      2.485      6.717
REMARK  Name = 
REMARK  8 active torsions:
REMARK  status: ('A' for Active; 'I' for Inactive)
REMARK    1  A    between atoms: C_1  and  O_2
REMARK    2  A    between atoms: O_2  and  C_3
REMARK    3  A    between atoms: C_6  and  C_7
REMARK    4  A    between atoms: C_7  and  O_8
REMARK    5  A    between atoms: C_7  and  C_16
REMARK    6  A    between atoms: O_8  and  C_9
REMARK    7  A    between atoms: C_9  and  C_11
REMARK    8  A    between atoms: N_18  and  C_19
REMARK                            x       y       z     vdW  Elec       q    Type
REMARK                         _______ _______ _______ _____ _____    ______ ____
ROOT
ATOM      1  C   UNL     1       2.677   5.796  19.416  0.00  0.00    +0.000 C 
ENDROOT
BRANCH   1   5
ATOM      2  C   UNL     1       6.346   5.393  17.125  0.00  0.00    +0.000 A 
ATOM      3  C   UNL     1       5.111   5.488  16.482  0.00  0.00    +0.000 A 
ATOM      4  C   UNL     1       3.935   5.651  17.217  0.00  0.00    +0.000 A 
ATOM      5  C   UNL     1       3.970   5.701  18.620  0.00  0.00    +0.000 A 
ATOM      6  C   UNL     1       5.216   5.616  19.258  0.00  0.00    +0.000 A 
ATOM      7  C   UNL     1       6.394   5.464  18.517  0.00  0.00    +0.000 A 
BRANCH   2   9
ATOM      8  C   UNL     1       7.117   4.761  14.975  0.00  0.00    +0.000 C 
ATOM      9  O   UNL     1       7.415   5.187  16.298  0.00  0.00    +0.000 OA
ENDBRANCH   2   9
ENDBRANCH   1   5
BRANCH   1  10
ATOM     10  C   UNL     1       2.255   7.268  19.660  0.00  0.00    +0.000 C 
ATOM     11  O   UNL     1       2.460   8.153  18.829  0.00  0.00    +0.000 OA
ATOM     12  N   UNL     1       1.583   7.521  20.847  0.00  0.00    +0.000 N 
ATOM     13  H   UNL     1       1.625   6.811  21.573  0.00  0.00    +0.000 HD
BRANCH  12  14
ATOM     14  C   UNL     1       1.152   8.867  21.168  0.00  0.00    +0.000 C 
ATOM     15  C   UNL     1      -0.066   9.350  20.389  0.00  0.00    +0.000 C 
ATOM     16  C   UNL     1      -0.480  10.604  21.156  0.00  0.00    +0.000 C 
ATOM     17  C   UNL     1      -0.096  10.341  22.614  0.00  0.00    +0.000 C 
ATOM     18  C   UNL     1       0.697   9.034  22.616  0.00  0.00    +0.000 C 
ENDBRANCH  12  14
ENDBRANCH   1  10
BRANCH   1  19
ATOM     19  O   UNL     1       2.829   5.078  20.649  0.00  0.00    +0.000 OA
BRANCH  19  20
ATOM     20  C   UNL     1       2.157   3.889  20.703  0.00  0.00    +0.000 C 
ATOM     21  O   UNL     1       1.331   3.589  21.555  0.00  0.00    +0.000 OA
BRANCH  20  22
ATOM     22  C   UNL     1       2.583   3.022  19.629  0.00  0.00    +0.000 A 
ATOM     23  C   UNL     1       3.724   2.249  19.495  0.00  0.00    +0.000 A 
ATOM     24  C   UNL     1       3.641   1.608  18.236  0.00  0.00    +0.000 A 
ATOM     25  C   UNL     1       2.456   2.021  17.677  0.00  0.00    +0.000 A 
ATOM     26  O   UNL     1       1.808   2.878  18.507  0.00  0.00    +0.000 OA
ENDBRANCH  20  22
ENDBRANCH  19  20
ENDBRANCH   1  19
TORSDOF 7
ENDMDL
