MODEL 1
REMARK VINA RESULT:      -6.9      0.000      0.000
REMARK  Name = 
REMARK  9 active torsions:
REMARK  status: ('A' for Active; 'I' for Inactive)
REMARK    1  A    between atoms: C_1  and  C_2
REMARK    2  A    between atoms: C_2  and  O_3
REMARK    3  A    between atoms: O_3  and  C_4
REMARK    4  A    between atoms: C_4  and  C_6
REMARK    5  A    between atoms: C_6  and  S_7
REMARK    6  A    between atoms: S_7  and  C_8
REMARK    7  A    between atoms: C_9  and  C_10
REMARK    8  A    between atoms: C_12  and  C_13
REMARK    9  A    between atoms: C_16  and  C_17
REMARK                            x       y       z     vdW  Elec       q    Type
REMARK                         _______ _______ _______ _____ _____    ______ ____
ROOT
ATOM      1  C   UNL     1       4.161   6.788  17.575  0.00  0.00    +0.000 C 
ATOM      2  C   UNL     1       4.209   6.123  18.738  0.00  0.00    +0.000 C 
ATOM      3  C   UNL     1       3.163   6.290  19.806  0.00  0.00    +0.000 C 
ATOM      4  C   UNL     1       2.152   7.425  19.550  0.00  0.00    +0.000 C 
ATOM      5  C   UNL     1       2.135   7.995  18.155  0.00  0.00    +0.000 C 
ATOM      6  O   UNL     1       1.267   8.793  17.795  0.00  0.00    +0.000 OA
ATOM      7  N   UNL     1       3.155   7.666  17.318  0.00  0.00    +0.000 N 
ATOM      8  H   UNL     1       3.155   8.135  16.418  0.00  0.00    +0.000 HD
ENDROOT
BRANCH   3   9
ATOM      9  C   UNL     1       2.430   5.021  20.126  0.00  0.00    +0.000 A 
ATOM     10  C   UNL     1       2.100   4.394  21.309  0.00  0.00    +0.000 A 
ATOM     11  C   UNL     1       1.379   3.231  20.952  0.00  0.00    +0.000 A 
ATOM     12  C   UNL     1       1.318   3.218  19.576  0.00  0.00    +0.000 A 
ATOM     13  C   UNL     1       0.709   2.302  18.592  0.00  0.00    +0.000 C 
ATOM     14  O   UNL     1       1.968   4.300  19.066  0.00  0.00    +0.000 OA
ENDBRANCH   3   9
BRANCH   2  15
ATOM     15  C   UNL     1       5.340   5.144  19.013  0.00  0.00    +0.000 C 
ATOM     16  N   UNL     1       6.277   4.333  19.242  0.00  0.00    +0.000 NA
ENDBRANCH   2  15
BRANCH   1  17
ATOM     17  S   UNL     1       5.339   6.711  16.314  0.00  0.00    +0.000 S 
BRANCH  17  18
ATOM     18  C   UNL     1       5.099   5.028  15.656  0.00  0.00    +0.000 C 
BRANCH  18  19
ATOM     19  C   UNL     1       6.426   4.350  15.388  0.00  0.00    +0.000 C 
ATOM     20  O   UNL     1       7.503   4.615  15.904  0.00  0.00    +0.000 OA
BRANCH  19  21
ATOM     21  O   UNL     1       6.251   3.435  14.385  0.00  0.00    +0.000 OA
BRANCH  21  23
ATOM     22  C   UNL     1       5.534   3.215  12.125  0.00  0.00    +0.000 C 
ATOM     23  C   UNL     1       6.484   3.939  13.062  0.00  0.00    +0.000 C 
ENDBRANCH  21  23
ENDBRANCH  19  21
ENDBRANCH  18  19
ENDBRANCH  17  18
ENDBRANCH   1  17
TORSDOF 7
ENDMDL
MODEL 2
REMARK VINA RESULT:      -6.9      0.775      1.205
REMARK  Name = 
REMARK  9 active torsions:
REMARK  status: ('A' for Active; 'I' for Inactive)
REMARK    1  A    between atoms: C_1  and  C_2
REMARK    2  A    between atoms: C_2  and  O_3
REMARK    3  A    between atoms: O_3  and  C_4
REMARK    4  A    between atoms: C_4  and  C_6
REMARK    5  A    between atoms: C_6  and  S_7
REMARK    6  A    between atoms: S_7  and  C_8
REMARK    7  A    between atoms: C_9  and  C_10
REMARK    8  A    between atoms: C_12  and  C_13
REMARK    9  A    between atoms: C_16  and  C_17
REMARK                            x       y       z     vdW  Elec       q    Type
REMARK                         _______ _______ _______ _____ _____    ______ ____
ROOT
ATOM      1  C   UNL     1       4.459   6.804  17.502  0.00  0.00    +0.000 C 
ATOM      2  C   UNL     1       4.294   6.087  18.622  0.00  0.00    +0.000 C 
ATOM      3  C   UNL     1       3.110   6.272  19.531  0.00  0.00    +0.000 C 
ATOM      4  C   UNL     1       2.213   7.478  19.190  0.00  0.00    +0.000 C 
ATOM      5  C   UNL     1       2.437   8.109  17.840  0.00  0.00    +0.000 C 
ATOM      6  O   UNL     1       1.679   8.974  17.398  0.00  0.00    +0.000 OA
ATOM      7  N   UNL     1       3.553   7.754  17.146  0.00  0.00    +0.000 N 
ATOM      8  H   UNL     1       3.714   8.262  16.282  0.00  0.00    +0.000 HD
ENDROOT
BRANCH   3   9
ATOM      9  C   UNL     1       2.268   5.038  19.672  0.00  0.00    +0.000 A 
ATOM     10  C   UNL     1       1.441   4.356  18.805  0.00  0.00    +0.000 A 
ATOM     11  C   UNL     1       0.944   3.244  19.525  0.00  0.00    +0.000 A 
ATOM     12  C   UNL     1       1.496   3.319  20.785  0.00  0.00    +0.000 A 
ATOM     13  C   UNL     1       1.397   2.475  21.991  0.00  0.00    +0.000 C 
ATOM     14  O   UNL     1       2.294   4.417  20.884  0.00  0.00    +0.000 OA
ENDBRANCH   3   9
BRANCH   2  15
ATOM     15  C   UNL     1       5.315   5.028  19.009  0.00  0.00    +0.000 C 
ATOM     16  N   UNL     1       6.161   4.151  19.330  0.00  0.00    +0.000 NA
ENDBRANCH   2  15
BRANCH   1  17
ATOM     17  S   UNL     1       5.807   6.710  16.426  0.00  0.00    +0.000 S 
BRANCH  17  18
ATOM     18  C   UNL     1       5.365   5.292  15.369  0.00  0.00    +0.000 C 
BRANCH  18  19
ATOM     19  C   UNL     1       6.572   4.774  14.615  0.00  0.00    +0.000 C 
ATOM     20  O   UNL     1       7.686   5.276  14.580  0.00  0.00    +0.000 OA
BRANCH  19  21
ATOM     21  O   UNL     1       6.189   3.683  13.882  0.00  0.00    +0.000 OA
BRANCH  21  23
ATOM     22  C   UNL     1       5.684   2.657  11.793  0.00  0.00    +0.000 C 
ATOM     23  C   UNL     1       6.439   3.785  12.473  0.00  0.00    +0.000 C 
ENDBRANCH  21  23
ENDBRANCH  19  21
ENDBRANCH  18  19
ENDBRANCH  17  18
ENDBRANCH   1  17
TORSDOF 7
ENDMDL
MODEL 3
REMARK VINA RESULT:      -6.6      1.839      3.803
REMARK  Name = 
REMARK  9 active torsions:
REMARK  status: ('A' for Active; 'I' for Inactive)
REMARK    1  A    between atoms: C_1  and  C_2
REMARK    2  A    between atoms: C_2  and  O_3
REMARK    3  A    between atoms: O_3  and  C_4
REMARK    4  A    between atoms: C_4  and  C_6
REMARK    5  A    between atoms: C_6  and  S_7
REMARK    6  A    between atoms: S_7  and  C_8
REMARK    7  A    between atoms: C_9  and  C_10
REMARK    8  A    between atoms: C_12  and  C_13
REMARK    9  A    between atoms: C_16  and  C_17
REMARK                            x       y       z     vdW  Elec       q    Type
REMARK                         _______ _______ _______ _____ _____    ______ ____
ROOT
ATOM      1  C   UNL     1       5.599   4.708  17.889  0.00  0.00    +0.000 C 
ATOM      2  C   UNL     1       4.521   5.402  17.498  0.00  0.00    +0.000 C 
ATOM      3  C   UNL     1       3.156   5.169  18.086  0.00  0.00    +0.000 C 
ATOM      4  C   UNL     1       3.051   3.945  19.017  0.00  0.00    +0.000 C 
ATOM      5  C   UNL     1       4.357   3.344  19.469  0.00  0.00    +0.000 C 
ATOM      6  O   UNL     1       4.398   2.466  20.333  0.00  0.00    +0.000 OA
ATOM      7  N   UNL     1       5.496   3.740  18.839  0.00  0.00    +0.000 N 
ATOM      8  H   UNL     1       6.343   3.253  19.111  0.00  0.00    +0.000 HD
ENDROOT
BRANCH   3   9
ATOM      9  C   UNL     1       2.589   6.377  18.771  0.00  0.00    +0.000 A 
ATOM     10  C   UNL     1       2.236   6.642  20.077  0.00  0.00    +0.000 A 
ATOM     11  C   UNL     1       1.780   7.982  20.099  0.00  0.00    +0.000 A 
ATOM     12  C   UNL     1       1.880   8.447  18.806  0.00  0.00    +0.000 A 
ATOM     13  C   UNL     1       1.585   9.743  18.165  0.00  0.00    +0.000 C 
ATOM     14  O   UNL     1       2.361   7.470  17.990  0.00  0.00    +0.000 OA
ENDBRANCH   3   9
BRANCH   2  15
ATOM     15  C   UNL     1       4.650   6.481  16.434  0.00  0.00    +0.000 C 
ATOM     16  N   UNL     1       4.757   7.375  15.552  0.00  0.00    +0.000 NA
ENDBRANCH   2  15
BRANCH   1  17
ATOM     17  S   UNL     1       7.193   4.858  17.238  0.00  0.00    +0.000 S 
BRANCH  17  18
ATOM     18  C   UNL     1       7.106   3.815  15.746  0.00  0.00    +0.000 C 
BRANCH  18  19
ATOM     19  C   UNL     1       7.027   4.659  14.491  0.00  0.00    +0.000 C 
ATOM     20  O   UNL     1       7.751   5.598  14.192  0.00  0.00    +0.000 OA
BRANCH  19  21
ATOM     21  O   UNL     1       5.936   4.260  13.768  0.00  0.00    +0.000 OA
BRANCH  21  23
ATOM     22  C   UNL     1       4.922   3.265  11.857  0.00  0.00    +0.000 C 
ATOM     23  C   UNL     1       6.240   3.592  12.536  0.00  0.00    +0.000 C 
ENDBRANCH  21  23
ENDBRANCH  19  21
ENDBRANCH  18  19
ENDBRANCH  17  18
ENDBRANCH   1  17
TORSDOF 7
ENDMDL
MODEL 4
REMARK VINA RESULT:      -6.6      2.212      6.553
REMARK  Name = 
REMARK  9 active torsions:
REMARK  status: ('A' for Active; 'I' for Inactive)
REMARK    1  A    between atoms: C_1  and  C_2
REMARK    2  A    between atoms: C_2  and  O_3
REMARK    3  A    between atoms: O_3  and  C_4
REMARK    4  A    between atoms: C_4  and  C_6
REMARK    5  A    between atoms: C_6  and  S_7
REMARK    6  A    between atoms: S_7  and  C_8
REMARK    7  A    between atoms: C_9  and  C_10
REMARK    8  A    between atoms: C_12  and  C_13
REMARK    9  A    between atoms: C_16  and  C_17
REMARK                            x       y       z     vdW  Elec       q    Type
REMARK                         _______ _______ _______ _____ _____    ______ ____
ROOT
ATOM      1  C   UNL     1       4.930   3.869  18.903  0.00  0.00    +0.000 C 
ATOM      2  C   UNL     1       4.517   4.306  17.706  0.00  0.00    +0.000 C 
ATOM      3  C   UNL     1       5.271   5.347  16.923  0.00  0.00    +0.000 C 
ATOM      4  C   UNL     1       6.432   6.015  17.685  0.00  0.00    +0.000 C 
ATOM      5  C   UNL     1       6.864   5.338  18.960  0.00  0.00    +0.000 C 
ATOM      6  O   UNL     1       7.877   5.692  19.567  0.00  0.00    +0.000 OA
ATOM      7  N   UNL     1       6.059   4.370  19.474  0.00  0.00    +0.000 N 
ATOM      8  H   UNL     1       6.338   3.998  20.376  0.00  0.00    +0.000 HD
ENDROOT
BRANCH   3   9
ATOM      9  C   UNL     1       5.755   4.855  15.591  0.00  0.00    +0.000 A 
ATOM     10  C   UNL     1       5.361   3.823  14.766  0.00  0.00    +0.000 A 
ATOM     11  C   UNL     1       6.197   3.887  13.626  0.00  0.00    +0.000 A 
ATOM     12  C   UNL     1       7.050   4.949  13.829  0.00  0.00    +0.000 A 
ATOM     13  C   UNL     1       8.135   5.550  13.030  0.00  0.00    +0.000 C 
ATOM     14  O   UNL     1       6.793   5.536  15.031  0.00  0.00    +0.000 OA
ENDBRANCH   3   9
BRANCH   2  15
ATOM     15  C   UNL     1       3.253   3.739  17.079  0.00  0.00    +0.000 C 
ATOM     16  N   UNL     1       2.206   3.269  16.558  0.00  0.00    +0.000 NA
ENDBRANCH   2  15
BRANCH   1  17
ATOM     17  S   UNL     1       4.109   2.725  19.904  0.00  0.00    +0.000 S 
BRANCH  17  18
ATOM     18  C   UNL     1       2.999   3.788  20.884  0.00  0.00    +0.000 C 
BRANCH  18  19
ATOM     19  C   UNL     1       1.605   3.819  20.291  0.00  0.00    +0.000 C 
ATOM     20  O   UNL     1       0.772   2.925  20.330  0.00  0.00    +0.000 OA
BRANCH  19  21
ATOM     21  O   UNL     1       1.452   4.994  19.606  0.00  0.00    +0.000 OA
BRANCH  21  23
ATOM     22  C   UNL     1       2.482   7.059  19.019  0.00  0.00    +0.000 C 
ATOM     23  C   UNL     1       2.159   6.112  20.161  0.00  0.00    +0.000 C 
ENDBRANCH  21  23
ENDBRANCH  19  21
ENDBRANCH  18  19
ENDBRANCH  17  18
ENDBRANCH   1  17
TORSDOF 7
ENDMDL
MODEL 5
REMARK VINA RESULT:      -6.5      2.610      5.543
REMARK  Name = 
REMARK  9 active torsions:
REMARK  status: ('A' for Active; 'I' for Inactive)
REMARK    1  A    between atoms: C_1  and  C_2
REMARK    2  A    between atoms: C_2  and  O_3
REMARK    3  A    between atoms: O_3  and  C_4
REMARK    4  A    between atoms: C_4  and  C_6
REMARK    5  A    between atoms: C_6  and  S_7
REMARK    6  A    between atoms: S_7  and  C_8
REMARK    7  A    between atoms: C_9  and  C_10
REMARK    8  A    between atoms: C_12  and  C_13
REMARK    9  A    between atoms: C_16  and  C_17
REMARK                            x       y       z     vdW  Elec       q    Type
REMARK                         _______ _______ _______ _____ _____    ______ ____
ROOT
ATOM      1  C   UNL     1       3.274   4.626  17.431  0.00  0.00    +0.000 C 
ATOM      2  C   UNL     1       4.356   5.113  16.808  0.00  0.00    +0.000 C 
ATOM      3  C   UNL     1       4.762   6.559  16.910  0.00  0.00    +0.000 C 
ATOM      4  C   UNL     1       3.738   7.472  17.612  0.00  0.00    +0.000 C 
ATOM      5  C   UNL     1       2.641   6.774  18.374  0.00  0.00    +0.000 C 
ATOM      6  O   UNL     1       1.862   7.396  19.098  0.00  0.00    +0.000 OA
ATOM      7  N   UNL     1       2.480   5.437  18.181  0.00  0.00    +0.000 N 
ATOM      8  H   UNL     1       1.680   5.018  18.644  0.00  0.00    +0.000 HD
ENDROOT
BRANCH   3   9
ATOM      9  C   UNL     1       6.118   6.754  17.521  0.00  0.00    +0.000 A 
ATOM     10  C   UNL     1       7.128   7.667  17.305  0.00  0.00    +0.000 A 
ATOM     11  C   UNL     1       8.157   7.343  18.220  0.00  0.00    +0.000 A 
ATOM     12  C   UNL     1       7.713   6.251  18.933  0.00  0.00    +0.000 A 
ATOM     13  C   UNL     1       8.291   5.446  20.026  0.00  0.00    +0.000 C 
ATOM     14  O   UNL     1       6.476   5.880  18.503  0.00  0.00    +0.000 OA
ENDBRANCH   3   9
BRANCH   2  15
ATOM     15  C   UNL     1       5.235   4.197  15.972  0.00  0.00    +0.000 C 
ATOM     16  N   UNL     1       5.964   3.438  15.278  0.00  0.00    +0.000 NA
ENDBRANCH   2  15
BRANCH   1  17
ATOM     17  S   UNL     1       2.691   3.003  17.331  0.00  0.00    +0.000 S 
BRANCH  17  18
ATOM     18  C   UNL     1       3.692   2.149  18.592  0.00  0.00    +0.000 C 
BRANCH  18  19
ATOM     19  C   UNL     1       4.228   3.124  19.619  0.00  0.00    +0.000 C 
ATOM     20  O   UNL     1       5.402   3.382  19.843  0.00  0.00    +0.000 OA
BRANCH  19  21
ATOM     21  O   UNL     1       3.174   3.615  20.342  0.00  0.00    +0.000 OA
BRANCH  21  23
ATOM     22  C   UNL     1       1.186   2.799  21.368  0.00  0.00    +0.000 C 
ATOM     23  C   UNL     1       2.703   2.749  21.385  0.00  0.00    +0.000 C 
ENDBRANCH  21  23
ENDBRANCH  19  21
ENDBRANCH  18  19
ENDBRANCH  17  18
ENDBRANCH   1  17
TORSDOF 7
ENDMDL
MODEL 6
REMARK VINA RESULT:      -6.5      2.941      5.680
REMARK  Name = 
REMARK  9 active torsions:
REMARK  status: ('A' for Active; 'I' for Inactive)
REMARK    1  A    between atoms: C_1  and  C_2
REMARK    2  A    between atoms: C_2  and  O_3
REMARK    3  A    between atoms: O_3  and  C_4
REMARK    4  A    between atoms: C_4  and  C_6
REMARK    5  A    between atoms: C_6  and  S_7
REMARK    6  A    between atoms: S_7  and  C_8
REMARK    7  A    between atoms: C_9  and  C_10
REMARK    8  A    between atoms: C_12  and  C_13
REMARK    9  A    between atoms: C_16  and  C_17
REMARK                            x       y       z     vdW  Elec       q    Type
REMARK                         _______ _______ _______ _____ _____    ______ ____
ROOT
ATOM      1  C   UNL     1       2.784   6.063  19.519  0.00  0.00    +0.000 C 
ATOM      2  C   UNL     1       3.837   5.457  18.955  0.00  0.00    +0.000 C 
ATOM      3  C   UNL     1       4.512   5.994  17.723  0.00  0.00    +0.000 C 
ATOM      4  C   UNL     1       3.783   7.171  17.045  0.00  0.00    +0.000 C 
ATOM      5  C   UNL     1       2.696   7.830  17.855  0.00  0.00    +0.000 C 
ATOM      6  O   UNL     1       2.155   8.872  17.480  0.00  0.00    +0.000 OA
ATOM      7  N   UNL     1       2.266   7.200  18.981  0.00  0.00    +0.000 N 
ATOM      8  H   UNL     1       1.477   7.629  19.452  0.00  0.00    +0.000 HD
ENDROOT
BRANCH   3   9
ATOM      9  C   UNL     1       5.954   6.349  17.940  0.00  0.00    +0.000 A 
ATOM     10  C   UNL     1       7.052   5.624  18.352  0.00  0.00    +0.000 A 
ATOM     11  C   UNL     1       8.146   6.520  18.334  0.00  0.00    +0.000 A 
ATOM     12  C   UNL     1       7.647   7.735  17.918  0.00  0.00    +0.000 A 
ATOM     13  C   UNL     1       8.256   9.058  17.680  0.00  0.00    +0.000 C 
ATOM     14  O   UNL     1       6.309   7.639  17.688  0.00  0.00    +0.000 OA
ENDBRANCH   3   9
BRANCH   2  15
ATOM     15  C   UNL     1       4.406   4.186  19.567  0.00  0.00    +0.000 C 
ATOM     16  N   UNL     1       4.878   3.133  20.074  0.00  0.00    +0.000 NA
ENDBRANCH   2  15
BRANCH   1  17
ATOM     17  S   UNL     1       1.904   5.498  20.895  0.00  0.00    +0.000 S 
BRANCH  17  18
ATOM     18  C   UNL     1       0.932   4.123  20.200  0.00  0.00    +0.000 C 
BRANCH  18  19
ATOM     19  C   UNL     1       1.340   2.798  20.811  0.00  0.00    +0.000 C 
ATOM     20  O   UNL     1       1.488   2.554  22.000  0.00  0.00    +0.000 OA
BRANCH  19  21
ATOM     21  O   UNL     1       1.617   1.921  19.798  0.00  0.00    +0.000 OA
BRANCH  21  23
ATOM     22  C   UNL     1       2.467   2.105  17.581  0.00  0.00    +0.000 C 
ATOM     23  C   UNL     1       1.281   2.391  18.485  0.00  0.00    +0.000 C 
ENDBRANCH  21  23
ENDBRANCH  19  21
ENDBRANCH  18  19
ENDBRANCH  17  18
ENDBRANCH   1  17
TORSDOF 7
ENDMDL
MODEL 7
REMARK VINA RESULT:      -6.5      2.651      6.493
REMARK  Name = 
REMARK  9 active torsions:
REMARK  status: ('A' for Active; 'I' for Inactive)
REMARK    1  A    between atoms: C_1  and  C_2
REMARK    2  A    between atoms: C_2  and  O_3
REMARK    3  A    between atoms: O_3  and  C_4
REMARK    4  A    between atoms: C_4  and  C_6
REMARK    5  A    between atoms: C_6  and  S_7
REMARK    6  A    between atoms: S_7  and  C_8
REMARK    7  A    between atoms: C_9  and  C_10
REMARK    8  A    between atoms: C_12  and  C_13
REMARK    9  A    between atoms: C_16  and  C_17
REMARK                            x       y       z     vdW  Elec       q    Type
REMARK                         _______ _______ _______ _____ _____    ______ ____
ROOT
ATOM      1  C   UNL     1       5.269   4.271  18.617  0.00  0.00    +0.000 C 
ATOM      2  C   UNL     1       4.783   4.537  17.397  0.00  0.00    +0.000 C 
ATOM      3  C   UNL     1       5.418   5.546  16.479  0.00  0.00    +0.000 C 
ATOM      4  C   UNL     1       6.535   6.392  17.119  0.00  0.00    +0.000 C 
ATOM      5  C   UNL     1       7.064   5.899  18.442  0.00  0.00    +0.000 C 
ATOM      6  O   UNL     1       8.058   6.403  18.968  0.00  0.00    +0.000 OA
ATOM      7  N   UNL     1       6.364   4.927  19.087  0.00  0.00    +0.000 N 
ATOM      8  H   UNL     1       6.702   4.682  20.012  0.00  0.00    +0.000 HD
ENDROOT
BRANCH   3   9
ATOM      9  C   UNL     1       5.905   4.955  15.189  0.00  0.00    +0.000 A 
ATOM     10  C   UNL     1       7.161   4.759  14.656  0.00  0.00    +0.000 A 
ATOM     11  C   UNL     1       6.965   4.127  13.406  0.00  0.00    +0.000 A 
ATOM     12  C   UNL     1       5.604   3.980  13.253  0.00  0.00    +0.000 A 
ATOM     13  C   UNL     1       4.755   3.396  12.197  0.00  0.00    +0.000 C 
ATOM     14  O   UNL     1       4.952   4.494  14.332  0.00  0.00    +0.000 OA
ENDBRANCH   3   9
BRANCH   2  15
ATOM     15  C   UNL     1       3.558   3.797  16.884  0.00  0.00    +0.000 C 
ATOM     16  N   UNL     1       2.541   3.185  16.458  0.00  0.00    +0.000 NA
ENDBRANCH   2  15
BRANCH   1  17
ATOM     17  S   UNL     1       4.584   3.178  19.766  0.00  0.00    +0.000 S 
BRANCH  17  18
ATOM     18  C   UNL     1       3.239   4.169  20.496  0.00  0.00    +0.000 C 
BRANCH  18  19
ATOM     19  C   UNL     1       2.319   3.309  21.337  0.00  0.00    +0.000 C 
ATOM     20  O   UNL     1       2.650   2.449  22.140  0.00  0.00    +0.000 OA
BRANCH  19  21
ATOM     21  O   UNL     1       1.026   3.583  20.982  0.00  0.00    +0.000 OA
BRANCH  21  23
ATOM     22  C   UNL     1       0.677   2.203  19.072  0.00  0.00    +0.000 C 
ATOM     23  C   UNL     1       0.787   3.634  19.568  0.00  0.00    +0.000 C 
ENDBRANCH  21  23
ENDBRANCH  19  21
ENDBRANCH  18  19
ENDBRANCH  17  18
ENDBRANCH   1  17
TORSDOF 7
ENDMDL
MODEL 8
REMARK VINA RESULT:      -6.4      2.674      6.103
REMARK  Name = 
REMARK  9 active torsions:
REMARK  status: ('A' for Active; 'I' for Inactive)
REMARK    1  A    between atoms: C_1  and  C_2
REMARK    2  A    between atoms: C_2  and  O_3
REMARK    3  A    between atoms: O_3  and  C_4
REMARK    4  A    between atoms: C_4  and  C_6
REMARK    5  A    between atoms: C_6  and  S_7
REMARK    6  A    between atoms: S_7  and  C_8
REMARK    7  A    between atoms: C_9  and  C_10
REMARK    8  A    between atoms: C_12  and  C_13
REMARK    9  A    between atoms: C_16  and  C_17
REMARK                            x       y       z     vdW  Elec       q    Type
REMARK                         _______ _______ _______ _____ _____    ______ ____
ROOT
ATOM      1  C   UNL     1       3.453   4.478  17.294  0.00  0.00    +0.000 C 
ATOM      2  C   UNL     1       4.494   5.069  16.691  0.00  0.00    +0.000 C 
ATOM      3  C   UNL     1       4.791   6.536  16.850  0.00  0.00    +0.000 C 
ATOM      4  C   UNL     1       3.704   7.341  17.587  0.00  0.00    +0.000 C 
ATOM      5  C   UNL     1       2.665   6.533  18.322  0.00  0.00    +0.000 C 
ATOM      6  O   UNL     1       1.844   7.067  19.070  0.00  0.00    +0.000 OA
ATOM      7  N   UNL     1       2.603   5.197  18.076  0.00  0.00    +0.000 N 
ATOM      8  H   UNL     1       1.838   4.702  18.522  0.00  0.00    +0.000 HD
ENDROOT
BRANCH   3   9
ATOM      9  C   UNL     1       6.131   6.807  17.468  0.00  0.00    +0.000 A 
ATOM     10  C   UNL     1       7.022   6.024  18.171  0.00  0.00    +0.000 A 
ATOM     11  C   UNL     1       8.128   6.855  18.468  0.00  0.00    +0.000 A 
ATOM     12  C   UNL     1       7.841   8.091  17.934  0.00  0.00    +0.000 A 
ATOM     13  C   UNL     1       8.570   9.373  17.884  0.00  0.00    +0.000 C 
ATOM     14  O   UNL     1       6.619   8.072  17.333  0.00  0.00    +0.000 OA
ENDBRANCH   3   9
BRANCH   2  15
ATOM     15  C   UNL     1       5.436   4.255  15.819  0.00  0.00    +0.000 C 
ATOM     16  N   UNL     1       6.218   3.579  15.096  0.00  0.00    +0.000 NA
ENDBRANCH   2  15
BRANCH   1  17
ATOM     17  S   UNL     1       2.993   2.821  17.130  0.00  0.00    +0.000 S 
BRANCH  17  18
ATOM     18  C   UNL     1       2.792   2.297  18.864  0.00  0.00    +0.000 C 
BRANCH  18  19
ATOM     19  C   UNL     1       1.332   2.271  19.263  0.00  0.00    +0.000 C 
ATOM     20  O   UNL     1       0.368   2.211  18.514  0.00  0.00    +0.000 OA
BRANCH  19  21
ATOM     21  O   UNL     1       1.251   2.425  20.621  0.00  0.00    +0.000 OA
BRANCH  21  23
ATOM     22  C   UNL     1       2.205   4.451  21.433  0.00  0.00    +0.000 C 
ATOM     23  C   UNL     1       2.430   2.962  21.237  0.00  0.00    +0.000 C 
ENDBRANCH  21  23
ENDBRANCH  19  21
ENDBRANCH  18  19
ENDBRANCH  17  18
ENDBRANCH   1  17
TORSDOF 7
ENDMDL
MODEL 9
REMARK VINA RESULT:      -6.4      2.785      4.865
REMARK  Name = 
REMARK  9 active torsions:
REMARK  status: ('A' for Active; 'I' for Inactive)
REMARK    1  A    between atoms: C_1  and  C_2
REMARK    2  A    between atoms: C_2  and  O_3
REMARK    3  A    between atoms: O_3  and  C_4
REMARK    4  A    between atoms: C_4  and  C_6
REMARK    5  A    between atoms: C_6  and  S_7
REMARK    6  A    between atoms: S_7  and  C_8
REMARK    7  A    between atoms: C_9  and  C_10
REMARK    8  A    between atoms: C_12  and  C_13
REMARK    9  A    between atoms: C_16  and  C_17
REMARK                            x       y       z     vdW  Elec       q    Type
REMARK                         _______ _______ _______ _____ _____    ______ ____
ROOT
ATOM      1  C   UNL     1       5.564   4.361  17.449  0.00  0.00    +0.000 C 
ATOM      2  C   UNL     1       4.540   5.149  17.095  0.00  0.00    +0.000 C 
ATOM      3  C   UNL     1       3.166   5.003  17.692  0.00  0.00    +0.000 C 
ATOM      4  C   UNL     1       2.975   3.760  18.582  0.00  0.00    +0.000 C 
ATOM      5  C   UNL     1       4.235   3.043  18.998  0.00  0.00    +0.000 C 
ATOM      6  O   UNL     1       4.215   2.135  19.831  0.00  0.00    +0.000 OA
ATOM      7  N   UNL     1       5.395   3.371  18.367  0.00  0.00    +0.000 N 
ATOM      8  H   UNL     1       6.203   2.810  18.612  0.00  0.00    +0.000 HD
ENDROOT
BRANCH   3   9
ATOM      9  C   UNL     1       2.702   6.227  18.424  0.00  0.00    +0.000 A 
ATOM     10  C   UNL     1       2.482   6.502  19.757  0.00  0.00    +0.000 A 
ATOM     11  C   UNL     1       2.070   7.855  19.819  0.00  0.00    +0.000 A 
ATOM     12  C   UNL     1       2.061   8.317  18.521  0.00  0.00    +0.000 A 
ATOM     13  C   UNL     1       1.743   9.621  17.907  0.00  0.00    +0.000 C 
ATOM     14  O   UNL     1       2.433   7.326  17.666  0.00  0.00    +0.000 OA
ENDBRANCH   3   9
BRANCH   2  15
ATOM     15  C   UNL     1       4.742   6.251  16.067  0.00  0.00    +0.000 C 
ATOM     16  N   UNL     1       4.909   7.164  15.214  0.00  0.00    +0.000 NA
ENDBRANCH   2  15
BRANCH   1  17
ATOM     17  S   UNL     1       7.157   4.408  16.784  0.00  0.00    +0.000 S 
BRANCH  17  18
ATOM     18  C   UNL     1       8.198   4.571  18.271  0.00  0.00    +0.000 C 
BRANCH  18  19
ATOM     19  C   UNL     1       7.706   5.691  19.165  0.00  0.00    +0.000 C 
ATOM     20  O   UNL     1       6.814   5.625  19.998  0.00  0.00    +0.000 OA
BRANCH  19  21
ATOM     21  O   UNL     1       8.365   6.840  18.821  0.00  0.00    +0.000 OA
BRANCH  21  23
ATOM     22  C   UNL     1       8.225   9.071  18.001  0.00  0.00    +0.000 C 
ATOM     23  C   UNL     1       7.686   7.659  17.858  0.00  0.00    +0.000 C 
ENDBRANCH  21  23
ENDBRANCH  19  21
ENDBRANCH  18  19
ENDBRANCH  17  18
ENDBRANCH   1  17
TORSDOF 7
ENDMDL
