MODEL 1
REMARK VINA RESULT:      -9.2      0.000      0.000
REMARK  Name = 
REMARK  6 active torsions:
REMARK  status: ('A' for Active; 'I' for Inactive)
REMARK    1  A    between atoms: C_6  and  N_7
REMARK    2  A    between atoms: C_12  and  N_13
REMARK    3  A    between atoms: C_15  and  C_16
REMARK    4  A    between atoms: N_18  and  C_19
REMARK    5  A    between atoms: C_19  and  C_20
REMARK    6  A    between atoms: C_24  and  O_25
REMARK                            x       y       z     vdW  Elec       q    Type
REMARK                         _______ _______ _______ _____ _____    ______ ____
ROOT
ATOM      1  N   UNL     1       9.036   9.001  19.020  0.00  0.00    +0.000 N 
ATOM      2  C   UNL     1       8.240   8.388  18.076  0.00  0.00    +0.000 C 
ATOM      3  O   UNL     1       7.774   8.946  17.083  0.00  0.00    +0.000 OA
ATOM      4  N   UNL     1       7.994   7.052  18.278  0.00  0.00    +0.000 N 
ATOM      5  C   UNL     1       8.473   6.176  19.336  0.00  0.00    +0.000 C 
ATOM      6  C   UNL     1       7.681   4.867  19.155  0.00  0.00    +0.000 C 
ATOM      7  C   UNL     1       7.461   4.836  17.637  0.00  0.00    +0.000 C 
ATOM      8  C   UNL     1       7.246   6.308  17.265  0.00  0.00    +0.000 C 
ATOM      9  H   UNL     1       9.578   8.426  19.644  0.00  0.00    +0.000 HD
ENDROOT
BRANCH   1  15
ATOM     10  N   UNL     1      11.251  13.059  16.632  0.00  0.00    +0.000 N 
ATOM     11  C   UNL     1      10.350  13.492  17.565  0.00  0.00    +0.000 C 
ATOM     12  O   UNL     1      10.026  14.652  17.751  0.00  0.00    +0.000 OA
ATOM     13  N   UNL     1       9.876  12.444  18.381  0.00  0.00    +0.000 N 
ATOM     14  C   UNL     1       9.719  11.128  17.990  0.00  0.00    +0.000 A 
ATOM     15  C   UNL     1       9.292  10.368  19.050  0.00  0.00    +0.000 A 
ATOM     16  C   UNL     1       9.157  11.258  20.162  0.00  0.00    +0.000 A 
ATOM     17  C   UNL     1       8.794  11.091  21.518  0.00  0.00    +0.000 A 
ATOM     18  C   UNL     1       8.823  12.190  22.388  0.00  0.00    +0.000 A 
ATOM     19  C   UNL     1       9.191  13.448  21.929  0.00  0.00    +0.000 A 
ATOM     20  C   UNL     1       9.532  13.646  20.591  0.00  0.00    +0.000 A 
ATOM     21  C   UNL     1       9.507  12.537  19.723  0.00  0.00    +0.000 A 
ATOM     22  H   UNL     1      11.745  13.775  16.118  0.00  0.00    +0.000 HD
ATOM     23  H   UNL     1      11.714  12.163  16.731  0.00  0.00    +0.000 HD
ENDBRANCH   1  15
BRANCH   8  24
ATOM     24  C   UNL     1       5.733   6.626  17.265  0.00  0.00    +0.000 C 
ATOM     25  O   UNL     1       5.293   7.764  17.428  0.00  0.00    +0.000 OA
ATOM     26  N   UNL     1       4.929   5.502  17.227  0.00  0.00    +0.000 N 
ATOM     27  H   UNL     1       5.315   4.636  16.877  0.00  0.00    +0.000 HD
BRANCH  26  28
ATOM     28  C   UNL     1       3.496   5.580  17.382  0.00  0.00    +0.000 C 
BRANCH  28  29
ATOM     29  C   UNL     1       2.879   4.288  17.839  0.00  0.00    +0.000 A 
ATOM     30  C   UNL     1       1.556   4.259  18.304  0.00  0.00    +0.000 A 
ATOM     31  C   UNL     1       0.998   3.077  18.795  0.00  0.00    +0.000 A 
ATOM     32  C   UNL     1       1.754   1.906  18.823  0.00  0.00    +0.000 A 
ATOM     33  C   UNL     1       3.059   1.925  18.342  0.00  0.00    +0.000 A 
ATOM     34  C   UNL     1       3.620   3.097  17.839  0.00  0.00    +0.000 A 
BRANCH  33  35
ATOM     35  O   UNL     1       3.838   0.806  18.358  0.00  0.00    +0.000 OA
ATOM     36  H   UNL     1       3.265   0.043  18.541  0.00  0.00    +0.000 HD
ENDBRANCH  33  35
ENDBRANCH  28  29
ENDBRANCH  26  28
ENDBRANCH   8  24
BRANCH   6  37
ATOM     37  N   UNL     1       6.405   4.860  19.878  0.00  0.00    +0.000 NA
ATOM     38  H   UNL     1       5.668   5.283  19.294  0.00  0.00    +0.000 HD
ATOM     39  H   UNL     1       6.456   5.467  20.694  0.00  0.00    +0.000 HD
ENDBRANCH   6  37
TORSDOF 6
ENDMDL
MODEL 2
REMARK VINA RESULT:      -9.1      0.990      1.135
REMARK  Name = 
REMARK  6 active torsions:
REMARK  status: ('A' for Active; 'I' for Inactive)
REMARK    1  A    between atoms: C_6  and  N_7
REMARK    2  A    between atoms: C_12  and  N_13
REMARK    3  A    between atoms: C_15  and  C_16
REMARK    4  A    between atoms: N_18  and  C_19
REMARK    5  A    between atoms: C_19  and  C_20
REMARK    6  A    between atoms: C_24  and  O_25
REMARK                            x       y       z     vdW  Elec       q    Type
REMARK                         _______ _______ _______ _____ _____    ______ ____
ROOT
ATOM      1  N   UNL     1       8.923   8.815  18.908  0.00  0.00    +0.000 N 
ATOM      2  C   UNL     1       8.001   8.333  18.005  0.00  0.00    +0.000 C 
ATOM      3  O   UNL     1       7.532   8.981  17.069  0.00  0.00    +0.000 OA
ATOM      4  N   UNL     1       7.623   7.024  18.177  0.00  0.00    +0.000 N 
ATOM      5  C   UNL     1       8.073   6.057  19.165  0.00  0.00    +0.000 C 
ATOM      6  C   UNL     1       7.130   4.851  18.997  0.00  0.00    +0.000 C 
ATOM      7  C   UNL     1       6.803   4.909  17.499  0.00  0.00    +0.000 C 
ATOM      8  C   UNL     1       6.727   6.410  17.196  0.00  0.00    +0.000 C 
ATOM      9  H   UNL     1       9.440   8.158  19.470  0.00  0.00    +0.000 HD
ENDROOT
BRANCH   1  15
ATOM     10  N   UNL     1      11.709  12.606  16.686  0.00  0.00    +0.000 N 
ATOM     11  C   UNL     1      10.816  13.134  17.575  0.00  0.00    +0.000 C 
ATOM     12  O   UNL     1      10.616  14.322  17.758  0.00  0.00    +0.000 OA
ATOM     13  N   UNL     1      10.183  12.143  18.354  0.00  0.00    +0.000 N 
ATOM     14  C   UNL     1       9.898  10.856  17.940  0.00  0.00    +0.000 A 
ATOM     15  C   UNL     1       9.332  10.143  18.968  0.00  0.00    +0.000 A 
ATOM     16  C   UNL     1       9.240  11.037  20.082  0.00  0.00    +0.000 A 
ATOM     17  C   UNL     1       8.789  10.905  21.415  0.00  0.00    +0.000 A 
ATOM     18  C   UNL     1       8.897  11.988  22.297  0.00  0.00    +0.000 A 
ATOM     19  C   UNL     1       9.430  13.199  21.873  0.00  0.00    +0.000 A 
ATOM     20  C   UNL     1       9.861  13.364  20.556  0.00  0.00    +0.000 A 
ATOM     21  C   UNL     1       9.757  12.270  19.675  0.00  0.00    +0.000 A 
ATOM     22  H   UNL     1      12.308  13.264  16.206  0.00  0.00    +0.000 HD
ATOM     23  H   UNL     1      12.062  11.662  16.798  0.00  0.00    +0.000 HD
ENDBRANCH   1  15
BRANCH   8  24
ATOM     24  C   UNL     1       5.263   6.890  17.319  0.00  0.00    +0.000 C 
ATOM     25  O   UNL     1       4.959   8.079  17.407  0.00  0.00    +0.000 OA
ATOM     26  N   UNL     1       4.354   5.861  17.481  0.00  0.00    +0.000 N 
ATOM     27  H   UNL     1       4.611   4.930  17.184  0.00  0.00    +0.000 HD
BRANCH  26  28
ATOM     28  C   UNL     1       2.962   6.110  17.773  0.00  0.00    +0.000 C 
BRANCH  28  29
ATOM     29  C   UNL     1       2.345   5.055  18.649  0.00  0.00    +0.000 A 
ATOM     30  C   UNL     1       2.383   5.184  20.047  0.00  0.00    +0.000 A 
ATOM     31  C   UNL     1       1.876   4.177  20.869  0.00  0.00    +0.000 A 
ATOM     32  C   UNL     1       1.318   3.029  20.306  0.00  0.00    +0.000 A 
ATOM     33  C   UNL     1       1.259   2.908  18.922  0.00  0.00    +0.000 A 
ATOM     34  C   UNL     1       1.751   3.913  18.093  0.00  0.00    +0.000 A 
BRANCH  33  35
ATOM     35  O   UNL     1       0.730   1.800  18.328  0.00  0.00    +0.000 OA
ATOM     36  H   UNL     1       1.218   1.024  18.650  0.00  0.00    +0.000 HD
ENDBRANCH  33  35
ENDBRANCH  28  29
ENDBRANCH  26  28
ENDBRANCH   8  24
BRANCH   6  37
ATOM     37  N   UNL     1       5.914   4.950  19.811  0.00  0.00    +0.000 NA
ATOM     38  H   UNL     1       5.734   4.054  20.286  0.00  0.00    +0.000 HD
ATOM     39  H   UNL     1       5.099   5.086  19.215  0.00  0.00    +0.000 HD
ENDBRANCH   6  37
TORSDOF 6
ENDMDL
MODEL 3
REMARK VINA RESULT:      -9.1      0.933      1.198
REMARK  Name = 
REMARK  6 active torsions:
REMARK  status: ('A' for Active; 'I' for Inactive)
REMARK    1  A    between atoms: C_6  and  N_7
REMARK    2  A    between atoms: C_12  and  N_13
REMARK    3  A    between atoms: C_15  and  C_16
REMARK    4  A    between atoms: N_18  and  C_19
REMARK    5  A    between atoms: C_19  and  C_20
REMARK    6  A    between atoms: C_24  and  O_25
REMARK                            x       y       z     vdW  Elec       q    Type
REMARK                         _______ _______ _______ _____ _____    ______ ____
ROOT
ATOM      1  N   UNL     1       9.036   9.009  19.006  0.00  0.00    +0.000 N 
ATOM      2  C   UNL     1       8.206   8.436  18.067  0.00  0.00    +0.000 C 
ATOM      3  O   UNL     1       7.740   9.024  17.091  0.00  0.00    +0.000 OA
ATOM      4  N   UNL     1       7.921   7.105  18.253  0.00  0.00    +0.000 N 
ATOM      5  C   UNL     1       8.389   6.198  19.289  0.00  0.00    +0.000 C 
ATOM      6  C   UNL     1       7.553   4.918  19.103  0.00  0.00    +0.000 C 
ATOM      7  C   UNL     1       7.306   4.918  17.588  0.00  0.00    +0.000 C 
ATOM      8  C   UNL     1       7.132   6.401  17.242  0.00  0.00    +0.000 C 
ATOM      9  H   UNL     1       9.570   8.407  19.612  0.00  0.00    +0.000 HD
ENDROOT
BRANCH   1  15
ATOM     10  N   UNL     1      11.435  13.008  16.698  0.00  0.00    +0.000 N 
ATOM     11  C   UNL     1      10.529  13.464  17.614  0.00  0.00    +0.000 C 
ATOM     12  O   UNL     1      10.239  14.632  17.803  0.00  0.00    +0.000 OA
ATOM     13  N   UNL     1      10.003  12.427  18.412  0.00  0.00    +0.000 N 
ATOM     14  C   UNL     1       9.812  11.120  18.008  0.00  0.00    +0.000 A 
ATOM     15  C   UNL     1       9.337  10.366  19.052  0.00  0.00    +0.000 A 
ATOM     16  C   UNL     1       9.207  11.252  20.168  0.00  0.00    +0.000 A 
ATOM     17  C   UNL     1       8.809  11.088  21.515  0.00  0.00    +0.000 A 
ATOM     18  C   UNL     1       8.856  12.179  22.394  0.00  0.00    +0.000 A 
ATOM     19  C   UNL     1       9.275  13.427  21.952  0.00  0.00    +0.000 A 
ATOM     20  C   UNL     1       9.651  13.624  20.623  0.00  0.00    +0.000 A 
ATOM     21  C   UNL     1       9.609  12.522  19.746  0.00  0.00    +0.000 A 
ATOM     22  H   UNL     1      11.963  13.711  16.200  0.00  0.00    +0.000 HD
ATOM     23  H   UNL     1      11.867  12.096  16.799  0.00  0.00    +0.000 HD
ENDBRANCH   1  15
BRANCH   8  24
ATOM     24  C   UNL     1       5.630   6.767  17.274  0.00  0.00    +0.000 C 
ATOM     25  O   UNL     1       5.230   7.920  17.438  0.00  0.00    +0.000 OA
ATOM     26  N   UNL     1       4.791   5.669  17.263  0.00  0.00    +0.000 N 
ATOM     27  H   UNL     1       5.141   4.789  16.911  0.00  0.00    +0.000 HD
BRANCH  26  28
ATOM     28  C   UNL     1       3.364   5.794  17.450  0.00  0.00    +0.000 C 
BRANCH  28  29
ATOM     29  C   UNL     1       2.722   4.532  17.955  0.00  0.00    +0.000 A 
ATOM     30  C   UNL     1       2.957   3.310  17.306  0.00  0.00    +0.000 A 
ATOM     31  C   UNL     1       2.311   2.145  17.725  0.00  0.00    +0.000 A 
ATOM     32  C   UNL     1       1.424   2.186  18.801  0.00  0.00    +0.000 A 
ATOM     33  C   UNL     1       1.205   3.391  19.459  0.00  0.00    +0.000 A 
ATOM     34  C   UNL     1       1.855   4.556  19.057  0.00  0.00    +0.000 A 
BRANCH  33  35
ATOM     35  O   UNL     1       0.341   3.479  20.510  0.00  0.00    +0.000 OA
ATOM     36  H   UNL     1       0.716   2.977  21.253  0.00  0.00    +0.000 HD
ENDBRANCH  33  35
ENDBRANCH  28  29
ENDBRANCH  26  28
ENDBRANCH   8  24
BRANCH   6  37
ATOM     37  N   UNL     1       6.290   4.940  19.847  0.00  0.00    +0.000 NA
ATOM     38  H   UNL     1       6.009   5.914  20.035  0.00  0.00    +0.000 HD
ATOM     39  H   UNL     1       6.417   4.534  20.773  0.00  0.00    +0.000 HD
ENDBRANCH   6  37
TORSDOF 6
ENDMDL
MODEL 4
REMARK VINA RESULT:      -8.8      6.107     10.381
REMARK  Name = 
REMARK  6 active torsions:
REMARK  status: ('A' for Active; 'I' for Inactive)
REMARK    1  A    between atoms: C_6  and  N_7
REMARK    2  A    between atoms: C_12  and  N_13
REMARK    3  A    between atoms: C_15  and  C_16
REMARK    4  A    between atoms: N_18  and  C_19
REMARK    5  A    between atoms: C_19  and  C_20
REMARK    6  A    between atoms: C_24  and  O_25
REMARK                            x       y       z     vdW  Elec       q    Type
REMARK                         _______ _______ _______ _____ _____    ______ ____
ROOT
ATOM      1  N   UNL     1       2.196   7.405  19.128  0.00  0.00    +0.000 N 
ATOM      2  C   UNL     1       1.803   8.571  18.509  0.00  0.00    +0.000 C 
ATOM      3  O   UNL     1       2.062   8.868  17.342  0.00  0.00    +0.000 OA
ATOM      4  N   UNL     1       1.049   9.429  19.272  0.00  0.00    +0.000 N 
ATOM      5  C   UNL     1       0.579   9.275  20.640  0.00  0.00    +0.000 C 
ATOM      6  C   UNL     1      -0.011  10.648  21.013  0.00  0.00    +0.000 C 
ATOM      7  C   UNL     1      -0.531  11.149  19.659  0.00  0.00    +0.000 C 
ATOM      8  C   UNL     1       0.507  10.639  18.653  0.00  0.00    +0.000 C 
ATOM      9  H   UNL     1       1.733   7.128  19.979  0.00  0.00    +0.000 HD
ENDROOT
BRANCH   1  15
ATOM     10  N   UNL     1       6.512   6.638  16.325  0.00  0.00    +0.000 N 
ATOM     11  C   UNL     1       6.166   5.492  16.985  0.00  0.00    +0.000 C 
ATOM     12  O   UNL     1       6.818   4.463  17.008  0.00  0.00    +0.000 OA
ATOM     13  N   UNL     1       4.896   5.584  17.591  0.00  0.00    +0.000 N 
ATOM     14  C   UNL     1       4.326   6.737  18.094  0.00  0.00    +0.000 A 
ATOM     15  C   UNL     1       3.061   6.476  18.559  0.00  0.00    +0.000 A 
ATOM     16  C   UNL     1       2.832   5.079  18.353  0.00  0.00    +0.000 A 
ATOM     17  C   UNL     1       1.736   4.217  18.585  0.00  0.00    +0.000 A 
ATOM     18  C   UNL     1       1.814   2.871  18.200  0.00  0.00    +0.000 A 
ATOM     19  C   UNL     1       2.965   2.369  17.606  0.00  0.00    +0.000 A 
ATOM     20  C   UNL     1       4.070   3.192  17.387  0.00  0.00    +0.000 A 
ATOM     21  C   UNL     1       3.983   4.545  17.769  0.00  0.00    +0.000 A 
ATOM     22  H   UNL     1       7.336   6.590  15.741  0.00  0.00    +0.000 HD
ATOM     23  H   UNL     1       5.812   7.328  16.074  0.00  0.00    +0.000 HD
ENDBRANCH   1  15
BRANCH   8  24
ATOM     24  C   UNL     1       1.573  11.732  18.410  0.00  0.00    +0.000 C 
ATOM     25  O   UNL     1       2.639  11.505  17.838  0.00  0.00    +0.000 OA
ATOM     26  N   UNL     1       1.287  12.933  19.030  0.00  0.00    +0.000 N 
ATOM     27  H   UNL     1       0.331  13.137  19.285  0.00  0.00    +0.000 HD
BRANCH  26  28
ATOM     28  C   UNL     1       2.233  14.025  19.056  0.00  0.00    +0.000 C 
BRANCH  28  29
ATOM     29  C   UNL     1       1.653  15.320  18.561  0.00  0.00    +0.000 A 
ATOM     30  C   UNL     1       2.476  16.272  17.939  0.00  0.00    +0.000 A 
ATOM     31  C   UNL     1       1.961  17.506  17.538  0.00  0.00    +0.000 A 
ATOM     32  C   UNL     1       0.615  17.804  17.748  0.00  0.00    +0.000 A 
ATOM     33  C   UNL     1      -0.208  16.854  18.344  0.00  0.00    +0.000 A 
ATOM     34  C   UNL     1       0.293  15.616  18.736  0.00  0.00    +0.000 A 
BRANCH  33  35
ATOM     35  O   UNL     1      -1.529  17.105  18.577  0.00  0.00    +0.000 OA
ATOM     36  H   UNL     1      -2.051  16.453  18.081  0.00  0.00    +0.000 HD
ENDBRANCH  33  35
ENDBRANCH  28  29
ENDBRANCH  26  28
ENDBRANCH   8  24
BRANCH   6  37
ATOM     37  N   UNL     1       0.982  11.569  21.575  0.00  0.00    +0.000 NA
ATOM     38  H   UNL     1       0.690  11.869  22.517  0.00  0.00    +0.000 HD
ATOM     39  H   UNL     1       1.009  12.433  21.035  0.00  0.00    +0.000 HD
ENDBRANCH   6  37
TORSDOF 6
ENDMDL
MODEL 5
REMARK VINA RESULT:      -8.8      6.097     10.418
REMARK  Name = 
REMARK  6 active torsions:
REMARK  status: ('A' for Active; 'I' for Inactive)
REMARK    1  A    between atoms: C_6  and  N_7
REMARK    2  A    between atoms: C_12  and  N_13
REMARK    3  A    between atoms: C_15  and  C_16
REMARK    4  A    between atoms: N_18  and  C_19
REMARK    5  A    between atoms: C_19  and  C_20
REMARK    6  A    between atoms: C_24  and  O_25
REMARK                            x       y       z     vdW  Elec       q    Type
REMARK                         _______ _______ _______ _____ _____    ______ ____
ROOT
ATOM      1  N   UNL     1       2.209   7.295  19.202  0.00  0.00    +0.000 N 
ATOM      2  C   UNL     1       1.766   8.445  18.587  0.00  0.00    +0.000 C 
ATOM      3  O   UNL     1       1.963   8.729  17.406  0.00  0.00    +0.000 OA
ATOM      4  N   UNL     1       1.031   9.299  19.374  0.00  0.00    +0.000 N 
ATOM      5  C   UNL     1       0.630   9.156  20.765  0.00  0.00    +0.000 C 
ATOM      6  C   UNL     1       0.032  10.523  21.147  0.00  0.00    +0.000 C 
ATOM      7  C   UNL     1      -0.561  10.995  19.813  0.00  0.00    +0.000 C 
ATOM      8  C   UNL     1       0.437  10.490  18.765  0.00  0.00    +0.000 C 
ATOM      9  H   UNL     1       1.793   7.022  20.078  0.00  0.00    +0.000 HD
ENDROOT
BRANCH   1  15
ATOM     10  N   UNL     1       6.447   6.569  16.272  0.00  0.00    +0.000 N 
ATOM     11  C   UNL     1       6.130   5.419  16.939  0.00  0.00    +0.000 C 
ATOM     12  O   UNL     1       6.790   4.395  16.939  0.00  0.00    +0.000 OA
ATOM     13  N   UNL     1       4.877   5.499  17.581  0.00  0.00    +0.000 N 
ATOM     14  C   UNL     1       4.313   6.646  18.105  0.00  0.00    +0.000 A 
ATOM     15  C   UNL     1       3.065   6.375  18.606  0.00  0.00    +0.000 A 
ATOM     16  C   UNL     1       2.840   4.976  18.402  0.00  0.00    +0.000 A 
ATOM     17  C   UNL     1       1.757   4.105  18.662  0.00  0.00    +0.000 A 
ATOM     18  C   UNL     1       1.834   2.762  18.270  0.00  0.00    +0.000 A 
ATOM     19  C   UNL     1       2.970   2.270  17.641  0.00  0.00    +0.000 A 
ATOM     20  C   UNL     1       4.063   3.101  17.393  0.00  0.00    +0.000 A 
ATOM     21  C   UNL     1       3.978   4.452  17.782  0.00  0.00    +0.000 A 
ATOM     22  H   UNL     1       7.255   6.529  15.665  0.00  0.00    +0.000 HD
ATOM     23  H   UNL     1       5.736   7.254  16.044  0.00  0.00    +0.000 HD
ENDBRANCH   1  15
BRANCH   8  24
ATOM     24  C   UNL     1       1.469  11.598  18.457  0.00  0.00    +0.000 C 
ATOM     25  O   UNL     1       2.589  11.358  18.005  0.00  0.00    +0.000 OA
ATOM     26  N   UNL     1       1.078  12.854  18.882  0.00  0.00    +0.000 N 
ATOM     27  H   UNL     1       0.096  13.035  19.033  0.00  0.00    +0.000 HD
BRANCH  26  28
ATOM     28  C   UNL     1       1.968  13.991  18.831  0.00  0.00    +0.000 C 
BRANCH  28  29
ATOM     29  C   UNL     1       1.244  15.302  18.701  0.00  0.00    +0.000 A 
ATOM     30  C   UNL     1      -0.084  15.424  19.140  0.00  0.00    +0.000 A 
ATOM     31  C   UNL     1      -0.787  16.617  18.960  0.00  0.00    +0.000 A 
ATOM     32  C   UNL     1      -0.171  17.705  18.343  0.00  0.00    +0.000 A 
ATOM     33  C   UNL     1       1.152  17.595  17.927  0.00  0.00    +0.000 A 
ATOM     34  C   UNL     1       1.865  16.413  18.113  0.00  0.00    +0.000 A 
BRANCH  33  35
ATOM     35  O   UNL     1       1.791  18.630  17.312  0.00  0.00    +0.000 OA
ATOM     36  H   UNL     1       2.743  18.436  17.306  0.00  0.00    +0.000 HD
ENDBRANCH  33  35
ENDBRANCH  28  29
ENDBRANCH  26  28
ENDBRANCH   8  24
BRANCH   6  37
ATOM     37  N   UNL     1       1.032  11.471  21.648  0.00  0.00    +0.000 NA
ATOM     38  H   UNL     1       0.565  12.304  22.036  0.00  0.00    +0.000 HD
ATOM     39  H   UNL     1       1.594  11.834  20.879  0.00  0.00    +0.000 HD
ENDBRANCH   6  37
TORSDOF 6
ENDMDL
MODEL 6
REMARK VINA RESULT:      -8.6      5.940      7.363
REMARK  Name = 
REMARK  6 active torsions:
REMARK  status: ('A' for Active; 'I' for Inactive)
REMARK    1  A    between atoms: C_6  and  N_7
REMARK    2  A    between atoms: C_12  and  N_13
REMARK    3  A    between atoms: C_15  and  C_16
REMARK    4  A    between atoms: N_18  and  C_19
REMARK    5  A    between atoms: C_19  and  C_20
REMARK    6  A    between atoms: C_24  and  O_25
REMARK                            x       y       z     vdW  Elec       q    Type
REMARK                         _______ _______ _______ _____ _____    ______ ____
ROOT
ATOM      1  N   UNL     1       1.956   7.076  20.416  0.00  0.00    +0.000 N 
ATOM      2  C   UNL     1       2.820   6.501  19.510  0.00  0.00    +0.000 C 
ATOM      3  O   UNL     1       3.343   7.093  18.566  0.00  0.00    +0.000 OA
ATOM      4  N   UNL     1       3.117   5.177  19.725  0.00  0.00    +0.000 N 
ATOM      5  C   UNL     1       2.668   4.292  20.789  0.00  0.00    +0.000 C 
ATOM      6  C   UNL     1       3.146   2.890  20.366  0.00  0.00    +0.000 C 
ATOM      7  C   UNL     1       4.432   3.212  19.592  0.00  0.00    +0.000 C 
ATOM      8  C   UNL     1       4.108   4.524  18.869  0.00  0.00    +0.000 C 
ATOM      9  H   UNL     1       1.782   6.604  21.288  0.00  0.00    +0.000 HD
ENDROOT
BRANCH   1  15
ATOM     10  N   UNL     1       2.100  11.574  17.804  0.00  0.00    +0.000 N 
ATOM     11  C   UNL     1       0.954  11.493  18.545  0.00  0.00    +0.000 C 
ATOM     12  O   UNL     1       0.041  12.300  18.529  0.00  0.00    +0.000 OA
ATOM     13  N   UNL     1       0.962  10.394  19.428  0.00  0.00    +0.000 N 
ATOM     14  C   UNL     1       1.594   9.186  19.203  0.00  0.00    +0.000 A 
ATOM     15  C   UNL     1       1.446   8.364  20.293  0.00  0.00    +0.000 A 
ATOM     16  C   UNL     1       0.663   9.090  21.247  0.00  0.00    +0.000 A 
ATOM     17  C   UNL     1       0.202   8.815  22.554  0.00  0.00    +0.000 A 
ATOM     18  C   UNL     1      -0.508   9.793  23.263  0.00  0.00    +0.000 A 
ATOM     19  C   UNL     1      -0.780  11.028  22.688  0.00  0.00    +0.000 A 
ATOM     20  C   UNL     1      -0.357  11.318  21.391  0.00  0.00    +0.000 A 
ATOM     21  C   UNL     1       0.363  10.334  20.686  0.00  0.00    +0.000 A 
ATOM     22  H   UNL     1       2.228  12.419  17.265  0.00  0.00    +0.000 HD
ATOM     23  H   UNL     1       2.938  11.076  18.082  0.00  0.00    +0.000 HD
ENDBRANCH   1  15
BRANCH   8  24
ATOM     24  C   UNL     1       3.581   4.217  17.448  0.00  0.00    +0.000 C 
ATOM     25  O   UNL     1       2.402   3.944  17.221  0.00  0.00    +0.000 OA
ATOM     26  N   UNL     1       4.578   4.120  16.496  0.00  0.00    +0.000 N 
ATOM     27  H   UNL     1       5.470   4.559  16.675  0.00  0.00    +0.000 HD
BRANCH  26  28
ATOM     28  C   UNL     1       4.307   3.682  15.146  0.00  0.00    +0.000 C 
BRANCH  28  29
ATOM     29  C   UNL     1       5.414   4.012  14.185  0.00  0.00    +0.000 A 
ATOM     30  C   UNL     1       5.432   3.443  12.902  0.00  0.00    +0.000 A 
ATOM     31  C   UNL     1       6.492   3.689  12.028  0.00  0.00    +0.000 A 
ATOM     32  C   UNL     1       7.547   4.511  12.422  0.00  0.00    +0.000 A 
ATOM     33  C   UNL     1       7.523   5.095  13.685  0.00  0.00    +0.000 A 
ATOM     34  C   UNL     1       6.463   4.865  14.559  0.00  0.00    +0.000 A 
BRANCH  33  35
ATOM     35  O   UNL     1       8.536   5.899  14.115  0.00  0.00    +0.000 OA
ATOM     36  H   UNL     1       9.322   5.709  13.575  0.00  0.00    +0.000 HD
ENDBRANCH  33  35
ENDBRANCH  28  29
ENDBRANCH  26  28
ENDBRANCH   8  24
BRANCH   6  37
ATOM     37  N   UNL     1       2.180   2.182  19.520  0.00  0.00    +0.000 NA
ATOM     38  H   UNL     1       1.221   2.481  19.754  0.00  0.00    +0.000 HD
ATOM     39  H   UNL     1       2.189   1.185  19.730  0.00  0.00    +0.000 HD
ENDBRANCH   6  37
TORSDOF 6
ENDMDL
MODEL 7
REMARK VINA RESULT:      -8.6      1.625      2.660
REMARK  Name = 
REMARK  6 active torsions:
REMARK  status: ('A' for Active; 'I' for Inactive)
REMARK    1  A    between atoms: C_6  and  N_7
REMARK    2  A    between atoms: C_12  and  N_13
REMARK    3  A    between atoms: C_15  and  C_16
REMARK    4  A    between atoms: N_18  and  C_19
REMARK    5  A    between atoms: C_19  and  C_20
REMARK    6  A    between atoms: C_24  and  O_25
REMARK                            x       y       z     vdW  Elec       q    Type
REMARK                         _______ _______ _______ _____ _____    ______ ____
ROOT
ATOM      1  N   UNL     1       8.990   8.944  19.286  0.00  0.00    +0.000 N 
ATOM      2  C   UNL     1       8.101   8.592  18.293  0.00  0.00    +0.000 C 
ATOM      3  O   UNL     1       7.552   9.386  17.529  0.00  0.00    +0.000 OA
ATOM      4  N   UNL     1       7.856   7.247  18.160  0.00  0.00    +0.000 N 
ATOM      5  C   UNL     1       8.419   6.129  18.901  0.00  0.00    +0.000 C 
ATOM      6  C   UNL     1       7.596   4.905  18.459  0.00  0.00    +0.000 C 
ATOM      7  C   UNL     1       7.234   5.271  17.013  0.00  0.00    +0.000 C 
ATOM      8  C   UNL     1       7.006   6.786  17.062  0.00  0.00    +0.000 C 
ATOM      9  H   UNL     1       9.580   8.231  19.684  0.00  0.00    +0.000 HD
ENDROOT
BRANCH   1  15
ATOM     10  N   UNL     1       7.892  12.886  22.499  0.00  0.00    +0.000 N 
ATOM     11  C   UNL     1       9.092  13.101  21.879  0.00  0.00    +0.000 C 
ATOM     12  O   UNL     1       9.854  14.023  22.110  0.00  0.00    +0.000 OA
ATOM     13  N   UNL     1       9.337  12.170  20.848  0.00  0.00    +0.000 N 
ATOM     14  C   UNL     1       8.898  10.860  20.826  0.00  0.00    +0.000 A 
ATOM     15  C   UNL     1       9.268  10.257  19.649  0.00  0.00    +0.000 A 
ATOM     16  C   UNL     1       9.993  11.237  18.900  0.00  0.00    +0.000 A 
ATOM     17  C   UNL     1      10.597  11.250  17.622  0.00  0.00    +0.000 A 
ATOM     18  C   UNL     1      11.190  12.426  17.143  0.00  0.00    +0.000 A 
ATOM     19  C   UNL     1      11.206  13.579  17.918  0.00  0.00    +0.000 A 
ATOM     20  C   UNL     1      10.638  13.588  19.192  0.00  0.00    +0.000 A 
ATOM     21  C   UNL     1      10.037  12.405  19.665  0.00  0.00    +0.000 A 
ATOM     22  H   UNL     1       7.583  13.604  23.140  0.00  0.00    +0.000 HD
ATOM     23  H   UNL     1       7.173  12.319  22.064  0.00  0.00    +0.000 HD
ENDBRANCH   1  15
BRANCH   8  24
ATOM     24  C   UNL     1       5.505   7.076  17.288  0.00  0.00    +0.000 C 
ATOM     25  O   UNL     1       5.083   8.187  17.611  0.00  0.00    +0.000 OA
ATOM     26  N   UNL     1       4.709   5.947  17.249  0.00  0.00    +0.000 N 
ATOM     27  H   UNL     1       5.051   5.124  16.772  0.00  0.00    +0.000 HD
BRANCH  26  28
ATOM     28  C   UNL     1       3.307   5.986  17.595  0.00  0.00    +0.000 C 
BRANCH  28  29
ATOM     29  C   UNL     1       2.764   4.646  18.008  0.00  0.00    +0.000 A 
ATOM     30  C   UNL     1       3.154   3.483  17.327  0.00  0.00    +0.000 A 
ATOM     31  C   UNL     1       2.602   2.244  17.659  0.00  0.00    +0.000 A 
ATOM     32  C   UNL     1       1.656   2.151  18.679  0.00  0.00    +0.000 A 
ATOM     33  C   UNL     1       1.283   3.298  19.370  0.00  0.00    +0.000 A 
ATOM     34  C   UNL     1       1.837   4.537  19.055  0.00  0.00    +0.000 A 
BRANCH  33  35
ATOM     35  O   UNL     1       0.355   3.255  20.369  0.00  0.00    +0.000 OA
ATOM     36  H   UNL     1      -0.301   2.575  20.142  0.00  0.00    +0.000 HD
ENDBRANCH  33  35
ENDBRANCH  28  29
ENDBRANCH  26  28
ENDBRANCH   8  24
BRANCH   6  37
ATOM     37  N   UNL     1       6.393   4.694  19.270  0.00  0.00    +0.000 NA
ATOM     38  H   UNL     1       5.818   5.550  19.277  0.00  0.00    +0.000 HD
ATOM     39  H   UNL     1       6.645   4.555  20.247  0.00  0.00    +0.000 HD
ENDBRANCH   6  37
TORSDOF 6
ENDMDL
MODEL 8
REMARK VINA RESULT:      -8.6      5.531      7.473
REMARK  Name = 
REMARK  6 active torsions:
REMARK  status: ('A' for Active; 'I' for Inactive)
REMARK    1  A    between atoms: C_6  and  N_7
REMARK    2  A    between atoms: C_12  and  N_13
REMARK    3  A    between atoms: C_15  and  C_16
REMARK    4  A    between atoms: N_18  and  C_19
REMARK    5  A    between atoms: C_19  and  C_20
REMARK    6  A    between atoms: C_24  and  O_25
REMARK                            x       y       z     vdW  Elec       q    Type
REMARK                         _______ _______ _______ _____ _____    ______ ____
ROOT
ATOM      1  N   UNL     1       1.089   7.084  20.665  0.00  0.00    +0.000 N 
ATOM      2  C   UNL     1       2.157   6.393  20.136  0.00  0.00    +0.000 C 
ATOM      3  O   UNL     1       3.110   6.911  19.555  0.00  0.00    +0.000 OA
ATOM      4  N   UNL     1       2.134   5.031  20.313  0.00  0.00    +0.000 N 
ATOM      5  C   UNL     1       1.153   4.207  21.002  0.00  0.00    +0.000 C 
ATOM      6  C   UNL     1       1.548   2.756  20.667  0.00  0.00    +0.000 C 
ATOM      7  C   UNL     1       3.072   2.866  20.522  0.00  0.00    +0.000 C 
ATOM      8  C   UNL     1       3.282   4.239  19.872  0.00  0.00    +0.000 C 
ATOM      9  H   UNL     1       0.497   6.623  21.336  0.00  0.00    +0.000 HD
ENDROOT
BRANCH   1  15
ATOM     10  N   UNL     1       2.350  11.350  17.965  0.00  0.00    +0.000 N 
ATOM     11  C   UNL     1       1.174  11.543  18.634  0.00  0.00    +0.000 C 
ATOM     12  O   UNL     1       0.460  12.526  18.541  0.00  0.00    +0.000 OA
ATOM     13  N   UNL     1       0.894  10.500  19.541  0.00  0.00    +0.000 N 
ATOM     14  C   UNL     1       1.261   9.178  19.384  0.00  0.00    +0.000 A 
ATOM     15  C   UNL     1       0.878   8.446  20.481  0.00  0.00    +0.000 A 
ATOM     16  C   UNL     1       0.218   9.357  21.366  0.00  0.00    +0.000 A 
ATOM     17  C   UNL     1      -0.365   9.234  22.648  0.00  0.00    +0.000 A 
ATOM     18  C   UNL     1      -0.886  10.367  23.288  0.00  0.00    +0.000 A 
ATOM     19  C   UNL     1      -0.851  11.610  22.669  0.00  0.00    +0.000 A 
ATOM     20  C   UNL     1      -0.303  11.756  21.394  0.00  0.00    +0.000 A 
ATOM     21  C   UNL     1       0.226  10.615  20.759  0.00  0.00    +0.000 A 
ATOM     22  H   UNL     1       2.689  12.127  17.415  0.00  0.00    +0.000 HD
ATOM     23  H   UNL     1       3.044  10.694  18.307  0.00  0.00    +0.000 HD
ENDBRANCH   1  15
BRANCH   8  24
ATOM     24  C   UNL     1       3.361   4.077  18.336  0.00  0.00    +0.000 C 
ATOM     25  O   UNL     1       2.460   4.445  17.582  0.00  0.00    +0.000 OA
ATOM     26  N   UNL     1       4.453   3.345  17.910  0.00  0.00    +0.000 N 
ATOM     27  H   UNL     1       5.255   3.263  18.520  0.00  0.00    +0.000 HD
BRANCH  26  28
ATOM     28  C   UNL     1       4.617   2.948  16.532  0.00  0.00    +0.000 C 
BRANCH  28  29
ATOM     29  C   UNL     1       5.543   3.850  15.764  0.00  0.00    +0.000 A 
ATOM     30  C   UNL     1       5.791   3.617  14.403  0.00  0.00    +0.000 A 
ATOM     31  C   UNL     1       6.702   4.406  13.699  0.00  0.00    +0.000 A 
ATOM     32  C   UNL     1       7.374   5.443  14.345  0.00  0.00    +0.000 A 
ATOM     33  C   UNL     1       7.115   5.691  15.689  0.00  0.00    +0.000 A 
ATOM     34  C   UNL     1       6.198   4.916  16.397  0.00  0.00    +0.000 A 
BRANCH  33  35
ATOM     35  O   UNL     1       7.755   6.688  16.364  0.00  0.00    +0.000 OA
ATOM     36  H   UNL     1       7.771   6.453  17.307  0.00  0.00    +0.000 HD
ENDBRANCH  33  35
ENDBRANCH  28  29
ENDBRANCH  26  28
ENDBRANCH   8  24
BRANCH   6  37
ATOM     37  N   UNL     1       0.932   2.262  19.431  0.00  0.00    +0.000 NA
ATOM     38  H   UNL     1       1.570   2.410  18.635  0.00  0.00    +0.000 HD
ATOM     39  H   UNL     1       0.109   2.816  19.199  0.00  0.00    +0.000 HD
ENDBRANCH   6  37
TORSDOF 6
ENDMDL
MODEL 9
REMARK VINA RESULT:      -8.5      5.776      7.412
REMARK  Name = 
REMARK  6 active torsions:
REMARK  status: ('A' for Active; 'I' for Inactive)
REMARK    1  A    between atoms: C_6  and  N_7
REMARK    2  A    between atoms: C_12  and  N_13
REMARK    3  A    between atoms: C_15  and  C_16
REMARK    4  A    between atoms: N_18  and  C_19
REMARK    5  A    between atoms: C_19  and  C_20
REMARK    6  A    between atoms: C_24  and  O_25
REMARK                            x       y       z     vdW  Elec       q    Type
REMARK                         _______ _______ _______ _____ _____    ______ ____
ROOT
ATOM      1  N   UNL     1       1.617   7.001  20.634  0.00  0.00    +0.000 N 
ATOM      2  C   UNL     1       2.584   6.360  19.890  0.00  0.00    +0.000 C 
ATOM      3  O   UNL     1       3.317   6.911  19.069  0.00  0.00    +0.000 OA
ATOM      4  N   UNL     1       2.728   5.015  20.129  0.00  0.00    +0.000 N 
ATOM      5  C   UNL     1       2.022   4.166  21.075  0.00  0.00    +0.000 C 
ATOM      6  C   UNL     1       2.454   2.731  20.719  0.00  0.00    +0.000 C 
ATOM      7  C   UNL     1       3.881   2.948  20.198  0.00  0.00    +0.000 C 
ATOM      8  C   UNL     1       3.803   4.287  19.455  0.00  0.00    +0.000 C 
ATOM      9  H   UNL     1       1.249   6.541  21.451  0.00  0.00    +0.000 HD
ENDROOT
BRANCH   1  15
ATOM     10  N   UNL     1       2.313  11.360  17.879  0.00  0.00    +0.000 N 
ATOM     11  C   UNL     1       1.137  11.421  18.573  0.00  0.00    +0.000 C 
ATOM     12  O   UNL     1       0.312  12.314  18.491  0.00  0.00    +0.000 OA
ATOM     13  N   UNL     1       1.001  10.361  19.493  0.00  0.00    +0.000 N 
ATOM     14  C   UNL     1       1.516   9.089  19.336  0.00  0.00    +0.000 A 
ATOM     15  C   UNL     1       1.245   8.328  20.446  0.00  0.00    +0.000 A 
ATOM     16  C   UNL     1       0.503   9.163  21.341  0.00  0.00    +0.000 A 
ATOM     17  C   UNL     1      -0.032   8.985  22.637  0.00  0.00    +0.000 A 
ATOM     18  C   UNL     1      -0.668  10.056  23.282  0.00  0.00    +0.000 A 
ATOM     19  C   UNL     1      -0.791  11.289  22.654  0.00  0.00    +0.000 A 
ATOM     20  C   UNL     1      -0.292  11.486  21.366  0.00  0.00    +0.000 A 
ATOM     21  C   UNL     1       0.351  10.409  20.726  0.00  0.00    +0.000 A 
ATOM     22  H   UNL     1       2.546  12.167  17.316  0.00  0.00    +0.000 HD
ATOM     23  H   UNL     1       3.086  10.792  18.209  0.00  0.00    +0.000 HD
ENDBRANCH   1  15
BRANCH   8  24
ATOM     24  C   UNL     1       3.522   4.030  17.956  0.00  0.00    +0.000 C 
ATOM     25  O   UNL     1       2.388   3.849  17.514  0.00  0.00    +0.000 OA
ATOM     26  N   UNL     1       4.666   3.868  17.198  0.00  0.00    +0.000 N 
ATOM     27  H   UNL     1       5.540   4.238  17.544  0.00  0.00    +0.000 HD
BRANCH  26  28
ATOM     28  C   UNL     1       4.614   3.462  15.812  0.00  0.00    +0.000 C 
BRANCH  28  29
ATOM     29  C   UNL     1       5.739   4.026  14.990  0.00  0.00    +0.000 A 
ATOM     30  C   UNL     1       6.610   4.979  15.540  0.00  0.00    +0.000 A 
ATOM     31  C   UNL     1       7.615   5.559  14.763  0.00  0.00    +0.000 A 
ATOM     32  C   UNL     1       7.765   5.191  13.427  0.00  0.00    +0.000 A 
ATOM     33  C   UNL     1       6.917   4.231  12.884  0.00  0.00    +0.000 A 
ATOM     34  C   UNL     1       5.920   3.638  13.654  0.00  0.00    +0.000 A 
BRANCH  33  35
ATOM     35  O   UNL     1       7.022   3.848  11.579  0.00  0.00    +0.000 OA
ATOM     36  H   UNL     1       7.576   4.499  11.117  0.00  0.00    +0.000 HD
ENDBRANCH  33  35
ENDBRANCH  28  29
ENDBRANCH  26  28
ENDBRANCH   8  24
BRANCH   6  37
ATOM     37  N   UNL     1       1.605   2.110  19.697  0.00  0.00    +0.000 NA
ATOM     38  H   UNL     1       0.934   1.465  20.141  0.00  0.00    +0.000 HD
ATOM     39  H   UNL     1       2.162   1.511  19.089  0.00  0.00    +0.000 HD
ENDBRANCH   6  37
TORSDOF 6
ENDMDL
