MODEL 1
REMARK VINA RESULT:      -7.9      0.000      0.000
REMARK  Name = 
REMARK  4 active torsions:
REMARK  status: ('A' for Active; 'I' for Inactive)
REMARK    1  A    between atoms: O_1  and  C_2
REMARK    2  A    between atoms: C_4  and  N_5
REMARK    3  A    between atoms: N_5  and  C_6
REMARK    4  A    between atoms: C_15  and  O_16
REMARK                            x       y       z     vdW  Elec       q    Type
REMARK                         _______ _______ _______ _____ _____    ______ ____
ROOT
ATOM      1  C   UNL     1       7.415   6.905  17.561  0.00  0.00    +0.000 A 
ATOM      2  C   UNL     1       6.667   5.937  16.945  0.00  0.00    +0.000 A 
ATOM      3  C   UNL     1       6.419   4.792  17.683  0.00  0.00    +0.000 A 
ATOM      4  N   UNL     1       6.932   4.608  18.910  0.00  0.00    +0.000 NA
ATOM      5  C   UNL     1       7.663   5.626  19.379  0.00  0.00    +0.000 A 
ATOM      6  N   UNL     1       7.929   6.785  18.782  0.00  0.00    +0.000 NA
ENDROOT
BRANCH   1   7
ATOM      7  O   UNL     1       7.664   8.096  16.941  0.00  0.00    +0.000 OA
ATOM      8  H   UNL     1       7.820   8.773  17.616  0.00  0.00    +0.000 HD
ENDBRANCH   1   7
BRANCH   3   9
ATOM      9  N   UNL     1       5.619   3.763  17.148  0.00  0.00    +0.000 N 
ATOM     10  H   UNL     1       6.195   2.934  17.021  0.00  0.00    +0.000 HD
BRANCH   9  11
ATOM     11  C   UNL     1       4.295   3.454  17.528  0.00  0.00    +0.000 A 
ATOM     12  C   UNL     1       4.042   2.260  18.217  0.00  0.00    +0.000 A 
ATOM     13  C   UNL     1       2.736   1.907  18.577  0.00  0.00    +0.000 A 
ATOM     14  C   UNL     1       1.685   2.764  18.271  0.00  0.00    +0.000 A 
ATOM     15  F   UNL     1       0.434   2.418  18.602  0.00  0.00    +0.000 F 
ATOM     16  C   UNL     1       1.931   3.970  17.630  0.00  0.00    +0.000 A 
ATOM     17  F   UNL     1       0.921   4.800  17.337  0.00  0.00    +0.000 F 
ATOM     18  C   UNL     1       3.226   4.326  17.273  0.00  0.00    +0.000 A 
ENDBRANCH   9  11
ENDBRANCH   3   9
BRANCH   5  19
ATOM     19  O   UNL     1       8.176   5.434  20.622  0.00  0.00    +0.000 OA
ATOM     20  H   UNL     1       7.662   4.656  20.889  0.00  0.00    +0.000 HD
ENDBRANCH   5  19
TORSDOF 4
ENDMDL
MODEL 2
REMARK VINA RESULT:      -7.7      1.116      1.756
REMARK  Name = 
REMARK  4 active torsions:
REMARK  status: ('A' for Active; 'I' for Inactive)
REMARK    1  A    between atoms: O_1  and  C_2
REMARK    2  A    between atoms: C_4  and  N_5
REMARK    3  A    between atoms: N_5  and  C_6
REMARK    4  A    between atoms: C_15  and  O_16
REMARK                            x       y       z     vdW  Elec       q    Type
REMARK                         _______ _______ _______ _____ _____    ______ ____
ROOT
ATOM      1  C   UNL     1       7.392   6.770  17.593  0.00  0.00    +0.000 A 
ATOM      2  C   UNL     1       6.494   5.856  17.110  0.00  0.00    +0.000 A 
ATOM      3  C   UNL     1       6.176   4.806  17.954  0.00  0.00    +0.000 A 
ATOM      4  N   UNL     1       6.758   4.652  19.154  0.00  0.00    +0.000 NA
ATOM      5  C   UNL     1       7.633   5.607  19.487  0.00  0.00    +0.000 A 
ATOM      6  N   UNL     1       7.982   6.679  18.782  0.00  0.00    +0.000 NA
ENDROOT
BRANCH   1   7
ATOM      7  O   UNL     1       7.725   7.876  16.863  0.00  0.00    +0.000 OA
ATOM      8  H   UNL     1       7.191   7.888  16.055  0.00  0.00    +0.000 HD
ENDBRANCH   1   7
BRANCH   3   9
ATOM      9  N   UNL     1       5.226   3.843  17.561  0.00  0.00    +0.000 N 
ATOM     10  H   UNL     1       5.711   2.975  17.343  0.00  0.00    +0.000 HD
BRANCH   9  11
ATOM     11  C   UNL     1       3.963   3.628  18.153  0.00  0.00    +0.000 A 
ATOM     12  C   UNL     1       2.806   3.989  17.448  0.00  0.00    +0.000 A 
ATOM     13  C   UNL     1       1.540   3.822  18.021  0.00  0.00    +0.000 A 
ATOM     14  C   UNL     1       1.430   3.266  19.290  0.00  0.00    +0.000 A 
ATOM     15  F   UNL     1       0.219   3.121  19.844  0.00  0.00    +0.000 F 
ATOM     16  C   UNL     1       2.565   2.862  19.977  0.00  0.00    +0.000 A 
ATOM     17  F   UNL     1       2.463   2.323  21.199  0.00  0.00    +0.000 F 
ATOM     18  C   UNL     1       3.825   3.024  19.411  0.00  0.00    +0.000 A 
ENDBRANCH   9  11
ENDBRANCH   3   9
BRANCH   5  19
ATOM     19  O   UNL     1       8.216   5.446  20.704  0.00  0.00    +0.000 OA
ATOM     20  H   UNL     1       7.477   5.041  21.184  0.00  0.00    +0.000 HD
ENDBRANCH   5  19
TORSDOF 4
ENDMDL
MODEL 3
REMARK VINA RESULT:      -7.7      1.036      1.036
REMARK  Name = 
REMARK  4 active torsions:
REMARK  status: ('A' for Active; 'I' for Inactive)
REMARK    1  A    between atoms: O_1  and  C_2
REMARK    2  A    between atoms: C_4  and  N_5
REMARK    3  A    between atoms: N_5  and  C_6
REMARK    4  A    between atoms: C_15  and  O_16
REMARK                            x       y       z     vdW  Elec       q    Type
REMARK                         _______ _______ _______ _____ _____    ______ ____
ROOT
ATOM      1  C   UNL     1       7.371   6.816  17.582  0.00  0.00    +0.000 A 
ATOM      2  C   UNL     1       6.488   5.902  17.070  0.00  0.00    +0.000 A 
ATOM      3  C   UNL     1       6.185   4.823  17.882  0.00  0.00    +0.000 A 
ATOM      4  N   UNL     1       6.765   4.644  19.079  0.00  0.00    +0.000 NA
ATOM      5  C   UNL     1       7.625   5.602  19.442  0.00  0.00    +0.000 A 
ATOM      6  N   UNL     1       7.959   6.700  18.770  0.00  0.00    +0.000 NA
ENDROOT
BRANCH   1   7
ATOM      7  O   UNL     1       7.689   7.947  16.885  0.00  0.00    +0.000 OA
ATOM      8  H   UNL     1       7.673   8.702  17.492  0.00  0.00    +0.000 HD
ENDBRANCH   1   7
BRANCH   3   9
ATOM      9  N   UNL     1       5.250   3.858  17.458  0.00  0.00    +0.000 N 
ATOM     10  H   UNL     1       5.748   3.001  17.226  0.00  0.00    +0.000 HD
BRANCH   9  11
ATOM     11  C   UNL     1       3.984   3.615  18.031  0.00  0.00    +0.000 A 
ATOM     12  C   UNL     1       3.353   2.384  17.801  0.00  0.00    +0.000 A 
ATOM     13  C   UNL     1       2.082   2.125  18.326  0.00  0.00    +0.000 A 
ATOM     14  C   UNL     1       1.453   3.088  19.107  0.00  0.00    +0.000 A 
ATOM     15  F   UNL     1       0.229   2.845  19.595  0.00  0.00    +0.000 F 
ATOM     16  C   UNL     1       2.088   4.291  19.379  0.00  0.00    +0.000 A 
ATOM     17  F   UNL     1       1.486   5.220  20.133  0.00  0.00    +0.000 F 
ATOM     18  C   UNL     1       3.352   4.552  18.861  0.00  0.00    +0.000 A 
ENDBRANCH   9  11
ENDBRANCH   3   9
BRANCH   5  19
ATOM     19  O   UNL     1       8.207   5.415  20.656  0.00  0.00    +0.000 OA
ATOM     20  H   UNL     1       8.989   4.910  20.383  0.00  0.00    +0.000 HD
ENDBRANCH   5  19
TORSDOF 4
ENDMDL
MODEL 4
REMARK VINA RESULT:      -7.7      1.595      2.309
REMARK  Name = 
REMARK  4 active torsions:
REMARK  status: ('A' for Active; 'I' for Inactive)
REMARK    1  A    between atoms: O_1  and  C_2
REMARK    2  A    between atoms: C_4  and  N_5
REMARK    3  A    between atoms: N_5  and  C_6
REMARK    4  A    between atoms: C_15  and  O_16
REMARK                            x       y       z     vdW  Elec       q    Type
REMARK                         _______ _______ _______ _____ _____    ______ ____
ROOT
ATOM      1  C   UNL     1       7.626   6.511  18.226  0.00  0.00    +0.000 A 
ATOM      2  C   UNL     1       6.985   5.580  19.000  0.00  0.00    +0.000 A 
ATOM      3  C   UNL     1       6.218   4.646  18.323  0.00  0.00    +0.000 A 
ATOM      4  N   UNL     1       6.059   4.682  16.991  0.00  0.00    +0.000 NA
ATOM      5  C   UNL     1       6.724   5.659  16.366  0.00  0.00    +0.000 A 
ATOM      6  N   UNL     1       7.522   6.579  16.902  0.00  0.00    +0.000 NA
ENDROOT
BRANCH   1   7
ATOM      7  O   UNL     1       8.455   7.437  18.792  0.00  0.00    +0.000 OA
ATOM      8  H   UNL     1       8.075   7.722  19.636  0.00  0.00    +0.000 HD
ENDBRANCH   1   7
BRANCH   3   9
ATOM      9  N   UNL     1       5.560   3.622  19.033  0.00  0.00    +0.000 N 
ATOM     10  H   UNL     1       5.916   3.604  19.987  0.00  0.00    +0.000 HD
BRANCH   9  11
ATOM     11  C   UNL     1       4.186   3.307  18.959  0.00  0.00    +0.000 A 
ATOM     12  C   UNL     1       3.750   2.363  18.018  0.00  0.00    +0.000 A 
ATOM     13  C   UNL     1       2.391   2.055  17.894  0.00  0.00    +0.000 A 
ATOM     14  C   UNL     1       1.468   2.670  18.733  0.00  0.00    +0.000 A 
ATOM     15  F   UNL     1       0.166   2.386  18.602  0.00  0.00    +0.000 F 
ATOM     16  C   UNL     1       1.894   3.571  19.698  0.00  0.00    +0.000 A 
ATOM     17  F   UNL     1       1.009   4.164  20.510  0.00  0.00    +0.000 F 
ATOM     18  C   UNL     1       3.244   3.880  19.826  0.00  0.00    +0.000 A 
ENDBRANCH   9  11
ENDBRANCH   3   9
BRANCH   5  19
ATOM     19  O   UNL     1       6.560   5.688  15.017  0.00  0.00    +0.000 OA
ATOM     20  H   UNL     1       5.656   5.342  14.958  0.00  0.00    +0.000 HD
ENDBRANCH   5  19
TORSDOF 4
ENDMDL
MODEL 5
REMARK VINA RESULT:      -7.7      1.609      1.824
REMARK  Name = 
REMARK  4 active torsions:
REMARK  status: ('A' for Active; 'I' for Inactive)
REMARK    1  A    between atoms: O_1  and  C_2
REMARK    2  A    between atoms: C_4  and  N_5
REMARK    3  A    between atoms: N_5  and  C_6
REMARK    4  A    between atoms: C_15  and  O_16
REMARK                            x       y       z     vdW  Elec       q    Type
REMARK                         _______ _______ _______ _____ _____    ______ ____
ROOT
ATOM      1  C   UNL     1       6.619   5.646  16.362  0.00  0.00    +0.000 A 
ATOM      2  C   UNL     1       5.952   4.645  17.016  0.00  0.00    +0.000 A 
ATOM      3  C   UNL     1       6.153   4.569  18.384  0.00  0.00    +0.000 A 
ATOM      4  N   UNL     1       7.000   5.386  19.029  0.00  0.00    +0.000 NA
ATOM      5  C   UNL     1       7.601   6.301  18.261  0.00  0.00    +0.000 A 
ATOM      6  N   UNL     1       7.453   6.498  16.954  0.00  0.00    +0.000 NA
ENDROOT
BRANCH   1   7
ATOM      7  O   UNL     1       6.441   5.845  15.022  0.00  0.00    +0.000 OA
ATOM      8  H   UNL     1       6.787   6.719  14.788  0.00  0.00    +0.000 HD
ENDBRANCH   1   7
BRANCH   3   9
ATOM      9  N   UNL     1       5.471   3.600  19.147  0.00  0.00    +0.000 N 
ATOM     10  H   UNL     1       5.796   3.654  20.110  0.00  0.00    +0.000 HD
BRANCH   9  11
ATOM     11  C   UNL     1       4.100   3.278  19.052  0.00  0.00    +0.000 A 
ATOM     12  C   UNL     1       3.697   2.246  18.193  0.00  0.00    +0.000 A 
ATOM     13  C   UNL     1       2.342   1.926  18.049  0.00  0.00    +0.000 A 
ATOM     14  C   UNL     1       1.391   2.621  18.787  0.00  0.00    +0.000 A 
ATOM     15  F   UNL     1       0.093   2.324  18.636  0.00  0.00    +0.000 F 
ATOM     16  C   UNL     1       1.783   3.613  19.674  0.00  0.00    +0.000 A 
ATOM     17  F   UNL     1       0.869   4.283  20.389  0.00  0.00    +0.000 F 
ATOM     18  C   UNL     1       3.127   3.933  19.822  0.00  0.00    +0.000 A 
ENDBRANCH   9  11
ENDBRANCH   3   9
BRANCH   5  19
ATOM     19  O   UNL     1       8.455   7.126  18.921  0.00  0.00    +0.000 OA
ATOM     20  H   UNL     1       8.966   6.467  19.417  0.00  0.00    +0.000 HD
ENDBRANCH   5  19
TORSDOF 4
ENDMDL
MODEL 6
REMARK VINA RESULT:      -7.6      1.403      2.079
REMARK  Name = 
REMARK  4 active torsions:
REMARK  status: ('A' for Active; 'I' for Inactive)
REMARK    1  A    between atoms: O_1  and  C_2
REMARK    2  A    between atoms: C_4  and  N_5
REMARK    3  A    between atoms: N_5  and  C_6
REMARK    4  A    between atoms: C_15  and  O_16
REMARK                            x       y       z     vdW  Elec       q    Type
REMARK                         _______ _______ _______ _____ _____    ______ ____
ROOT
ATOM      1  C   UNL     1       7.438   6.648  17.695  0.00  0.00    +0.000 A 
ATOM      2  C   UNL     1       6.775   5.779  18.522  0.00  0.00    +0.000 A 
ATOM      3  C   UNL     1       6.241   4.652  17.922  0.00  0.00    +0.000 A 
ATOM      4  N   UNL     1       6.311   4.445  16.598  0.00  0.00    +0.000 NA
ATOM      5  C   UNL     1       6.967   5.386  15.910  0.00  0.00    +0.000 A 
ATOM      6  N   UNL     1       7.556   6.482  16.381  0.00  0.00    +0.000 NA
ENDROOT
BRANCH   1   7
ATOM      7  O   UNL     1       8.053   7.759  18.198  0.00  0.00    +0.000 OA
ATOM      8  H   UNL     1       7.375   8.390  18.482  0.00  0.00    +0.000 HD
ENDBRANCH   1   7
BRANCH   3   9
ATOM      9  N   UNL     1       5.583   3.679  18.701  0.00  0.00    +0.000 N 
ATOM     10  H   UNL     1       5.949   3.718  19.650  0.00  0.00    +0.000 HD
BRANCH   9  11
ATOM     11  C   UNL     1       4.206   3.371  18.661  0.00  0.00    +0.000 A 
ATOM     12  C   UNL     1       3.742   2.224  19.321  0.00  0.00    +0.000 A 
ATOM     13  C   UNL     1       2.388   1.872  19.270  0.00  0.00    +0.000 A 
ATOM     14  C   UNL     1       1.493   2.682  18.582  0.00  0.00    +0.000 A 
ATOM     15  F   UNL     1       0.201   2.334  18.521  0.00  0.00    +0.000 F 
ATOM     16  C   UNL     1       1.934   3.843  17.964  0.00  0.00    +0.000 A 
ATOM     17  F   UNL     1       1.074   4.628  17.302  0.00  0.00    +0.000 F 
ATOM     18  C   UNL     1       3.278   4.199  18.013  0.00  0.00    +0.000 A 
ENDBRANCH   9  11
ENDBRANCH   3   9
BRANCH   5  19
ATOM     19  O   UNL     1       7.036   5.169  14.570  0.00  0.00    +0.000 OA
ATOM     20  H   UNL     1       7.847   4.639  14.535  0.00  0.00    +0.000 HD
ENDBRANCH   5  19
TORSDOF 4
ENDMDL
MODEL 7
REMARK VINA RESULT:      -7.6      2.174      2.635
REMARK  Name = 
REMARK  4 active torsions:
REMARK  status: ('A' for Active; 'I' for Inactive)
REMARK    1  A    between atoms: O_1  and  C_2
REMARK    2  A    between atoms: C_4  and  N_5
REMARK    3  A    between atoms: N_5  and  C_6
REMARK    4  A    between atoms: C_15  and  O_16
REMARK                            x       y       z     vdW  Elec       q    Type
REMARK                         _______ _______ _______ _____ _____    ______ ____
ROOT
ATOM      1  C   UNL     1       6.726   5.205  15.325  0.00  0.00    +0.000 A 
ATOM      2  C   UNL     1       5.437   5.557  15.629  0.00  0.00    +0.000 A 
ATOM      3  C   UNL     1       5.101   5.546  16.972  0.00  0.00    +0.000 A 
ATOM      4  N   UNL     1       5.965   5.155  17.922  0.00  0.00    +0.000 NA
ATOM      5  C   UNL     1       7.181   4.816  17.480  0.00  0.00    +0.000 A 
ATOM      6  N   UNL     1       7.629   4.831  16.227  0.00  0.00    +0.000 NA
ENDROOT
BRANCH   1   7
ATOM      7  O   UNL     1       7.175   5.243  14.036  0.00  0.00    +0.000 OA
ATOM      8  H   UNL     1       8.142   5.188  14.040  0.00  0.00    +0.000 HD
ENDBRANCH   1   7
BRANCH   3   9
ATOM      9  N   UNL     1       3.812   5.939  17.383  0.00  0.00    +0.000 N 
ATOM     10  H   UNL     1       3.304   6.291  16.574  0.00  0.00    +0.000 HD
BRANCH   9  11
ATOM     11  C   UNL     1       2.979   5.247  18.289  0.00  0.00    +0.000 A 
ATOM     12  C   UNL     1       2.934   5.661  19.628  0.00  0.00    +0.000 A 
ATOM     13  C   UNL     1       2.146   4.975  20.560  0.00  0.00    +0.000 A 
ATOM     14  C   UNL     1       1.381   3.892  20.146  0.00  0.00    +0.000 A 
ATOM     15  F   UNL     1       0.640   3.227  21.042  0.00  0.00    +0.000 F 
ATOM     16  C   UNL     1       1.383   3.503  18.814  0.00  0.00    +0.000 A 
ATOM     17  F   UNL     1       0.644   2.460  18.411  0.00  0.00    +0.000 F 
ATOM     18  C   UNL     1       2.162   4.182  17.884  0.00  0.00    +0.000 A 
ENDBRANCH   9  11
ENDBRANCH   3   9
BRANCH   5  19
ATOM     19  O   UNL     1       8.051   4.424  18.447  0.00  0.00    +0.000 OA
ATOM     20  H   UNL     1       7.425   4.033  19.077  0.00  0.00    +0.000 HD
ENDBRANCH   5  19
TORSDOF 4
ENDMDL
MODEL 8
REMARK VINA RESULT:      -7.6      1.463      1.810
REMARK  Name = 
REMARK  4 active torsions:
REMARK  status: ('A' for Active; 'I' for Inactive)
REMARK    1  A    between atoms: O_1  and  C_2
REMARK    2  A    between atoms: C_4  and  N_5
REMARK    3  A    between atoms: N_5  and  C_6
REMARK    4  A    between atoms: C_15  and  O_16
REMARK                            x       y       z     vdW  Elec       q    Type
REMARK                         _______ _______ _______ _____ _____    ______ ____
ROOT
ATOM      1  C   UNL     1       7.004   5.249  15.683  0.00  0.00    +0.000 A 
ATOM      2  C   UNL     1       6.370   4.296  16.436  0.00  0.00    +0.000 A 
ATOM      3  C   UNL     1       6.254   4.563  17.790  0.00  0.00    +0.000 A 
ATOM      4  N   UNL     1       6.785   5.661  18.350  0.00  0.00    +0.000 NA
ATOM      5  C   UNL     1       7.397   6.493  17.500  0.00  0.00    +0.000 A 
ATOM      6  N   UNL     1       7.529   6.365  16.182  0.00  0.00    +0.000 NA
ENDROOT
BRANCH   1   7
ATOM      7  O   UNL     1       7.115   5.110  14.329  0.00  0.00    +0.000 OA
ATOM      8  H   UNL     1       7.862   5.645  14.021  0.00  0.00    +0.000 HD
ENDBRANCH   1   7
BRANCH   3   9
ATOM      9  N   UNL     1       5.576   3.661  18.634  0.00  0.00    +0.000 N 
ATOM     10  H   UNL     1       5.934   3.767  19.581  0.00  0.00    +0.000 HD
BRANCH   9  11
ATOM     11  C   UNL     1       4.195   3.369  18.602  0.00  0.00    +0.000 A 
ATOM     12  C   UNL     1       3.723   2.224  19.261  0.00  0.00    +0.000 A 
ATOM     13  C   UNL     1       2.366   1.887  19.219  0.00  0.00    +0.000 A 
ATOM     14  C   UNL     1       1.474   2.710  18.541  0.00  0.00    +0.000 A 
ATOM     15  F   UNL     1       0.178   2.377  18.488  0.00  0.00    +0.000 F 
ATOM     16  C   UNL     1       1.924   3.869  17.925  0.00  0.00    +0.000 A 
ATOM     17  F   UNL     1       1.067   4.667  17.274  0.00  0.00    +0.000 F 
ATOM     18  C   UNL     1       3.271   4.210  17.966  0.00  0.00    +0.000 A 
ENDBRANCH   9  11
ENDBRANCH   3   9
BRANCH   5  19
ATOM     19  O   UNL     1       7.930   7.603  18.074  0.00  0.00    +0.000 OA
ATOM     20  H   UNL     1       8.410   7.190  18.808  0.00  0.00    +0.000 HD
ENDBRANCH   5  19
TORSDOF 4
ENDMDL
MODEL 9
REMARK VINA RESULT:      -7.5      2.172      2.536
REMARK  Name = 
REMARK  4 active torsions:
REMARK  status: ('A' for Active; 'I' for Inactive)
REMARK    1  A    between atoms: O_1  and  C_2
REMARK    2  A    between atoms: C_4  and  N_5
REMARK    3  A    between atoms: N_5  and  C_6
REMARK    4  A    between atoms: C_15  and  O_16
REMARK                            x       y       z     vdW  Elec       q    Type
REMARK                         _______ _______ _______ _____ _____    ______ ____
ROOT
ATOM      1  C   UNL     1       6.758   5.122  14.952  0.00  0.00    +0.000 A 
ATOM      2  C   UNL     1       5.509   5.485  15.382  0.00  0.00    +0.000 A 
ATOM      3  C   UNL     1       5.275   5.376  16.742  0.00  0.00    +0.000 A 
ATOM      4  N   UNL     1       6.193   4.885  17.589  0.00  0.00    +0.000 NA
ATOM      5  C   UNL     1       7.360   4.548  17.028  0.00  0.00    +0.000 A 
ATOM      6  N   UNL     1       7.713   4.651  15.750  0.00  0.00    +0.000 NA
ENDROOT
BRANCH   1   7
ATOM      7  O   UNL     1       7.110   5.251  13.639  0.00  0.00    +0.000 OA
ATOM      8  H   UNL     1       6.438   5.783  13.187  0.00  0.00    +0.000 HD
ENDBRANCH   1   7
BRANCH   3   9
ATOM      9  N   UNL     1       4.034   5.771  17.281  0.00  0.00    +0.000 N 
ATOM     10  H   UNL     1       3.598   6.436  16.645  0.00  0.00    +0.000 HD
BRANCH   9  11
ATOM     11  C   UNL     1       3.096   4.930  17.917  0.00  0.00    +0.000 A 
ATOM     12  C   UNL     1       2.802   3.681  17.351  0.00  0.00    +0.000 A 
ATOM     13  C   UNL     1       1.851   2.839  17.937  0.00  0.00    +0.000 A 
ATOM     14  C   UNL     1       1.213   3.234  19.107  0.00  0.00    +0.000 A 
ATOM     15  F   UNL     1       0.291   2.433  19.658  0.00  0.00    +0.000 F 
ATOM     16  C   UNL     1       1.529   4.447  19.701  0.00  0.00    +0.000 A 
ATOM     17  F   UNL     1       0.919   4.830  20.830  0.00  0.00    +0.000 F 
ATOM     18  C   UNL     1       2.476   5.287  19.123  0.00  0.00    +0.000 A 
ENDBRANCH   9  11
ENDBRANCH   3   9
BRANCH   5  19
ATOM     19  O   UNL     1       8.285   4.055  17.892  0.00  0.00    +0.000 OA
ATOM     20  H   UNL     1       8.545   3.255  17.409  0.00  0.00    +0.000 HD
ENDBRANCH   5  19
TORSDOF 4
ENDMDL
