MODEL 1
REMARK VINA RESULT:      -6.7      0.000      0.000
REMARK  Name = 
REMARK  1 active torsions:
REMARK  status: ('A' for Active; 'I' for Inactive)
REMARK    1  A    between atoms: N_1  and  C_2
REMARK                            x       y       z     vdW  Elec       q    Type
REMARK                         _______ _______ _______ _____ _____    ______ ____
ROOT
ATOM      1  C   UNL     1       2.631   3.048  20.514  0.00  0.00    +0.000 C 
ATOM      2  C   UNL     1       2.229   4.528  20.651  0.00  0.00    +0.000 C 
ATOM      3  C   UNL     1       1.722   5.163  19.347  0.00  0.00    +0.000 C 
ATOM      4  C   UNL     1       2.837   5.589  18.400  0.00  0.00    +0.000 A 
ATOM      5  C   UNL     1       3.007   6.967  18.087  0.00  0.00    +0.000 A 
ATOM      6 BR   UNL     1       1.906   8.381  18.790  0.00  0.00    +0.000 Br
ATOM      7  C   UNL     1       4.020   7.374  17.221  0.00  0.00    +0.000 A 
ATOM      8  C   UNL     1       4.877   6.447  16.652  0.00  0.00    +0.000 A 
ATOM      9  C   UNL     1       4.740   5.089  16.930  0.00  0.00    +0.000 A 
ATOM     10 BR   UNL     1       6.004   3.929  16.059  0.00  0.00    +0.000 Br
ATOM     11  C   UNL     1       3.715   4.634  17.806  0.00  0.00    +0.000 A 
ATOM     12  C   UNL     1       3.563   3.151  18.078  0.00  0.00    +0.000 C 
ATOM     13  C   UNL     1       3.747   2.807  19.525  0.00  0.00    +0.000 C 
ATOM     14  O   UNL     1       4.758   2.214  19.875  0.00  0.00    +0.000 OA
ENDROOT
BRANCH   1  15
ATOM     15  N   UNL     1       2.982   2.492  21.824  0.00  0.00    +0.000 NA
ATOM     16  H   UNL     1       2.255   2.753  22.532  0.00  0.00    +0.000 HD
ATOM     17  H   UNL     1       3.910   2.864  22.135  0.00  0.00    +0.000 HD
ENDBRANCH   1  15
TORSDOF 1
ENDMDL
MODEL 2
REMARK VINA RESULT:      -6.3      1.887      3.537
REMARK  Name = 
REMARK  1 active torsions:
REMARK  status: ('A' for Active; 'I' for Inactive)
REMARK    1  A    between atoms: N_1  and  C_2
REMARK                            x       y       z     vdW  Elec       q    Type
REMARK                         _______ _______ _______ _____ _____    ______ ____
ROOT
ATOM      1  C   UNL     1       2.595   2.569  19.240  0.00  0.00    +0.000 C 
ATOM      2  C   UNL     1       3.320   3.038  17.966  0.00  0.00    +0.000 C 
ATOM      3  C   UNL     1       4.355   4.148  18.205  0.00  0.00    +0.000 C 
ATOM      4  C   UNL     1       3.744   5.538  18.329  0.00  0.00    +0.000 A 
ATOM      5  C   UNL     1       4.057   6.534  17.360  0.00  0.00    +0.000 A 
ATOM      6 BR   UNL     1       5.228   6.253  15.858  0.00  0.00    +0.000 Br
ATOM      7  C   UNL     1       3.510   7.811  17.460  0.00  0.00    +0.000 A 
ATOM      8  C   UNL     1       2.652   8.133  18.499  0.00  0.00    +0.000 A 
ATOM      9  C   UNL     1       2.325   7.188  19.467  0.00  0.00    +0.000 A 
ATOM     10 BR   UNL     1       1.126   7.790  20.847  0.00  0.00    +0.000 Br
ATOM     11  C   UNL     1       2.868   5.874  19.403  0.00  0.00    +0.000 A 
ATOM     12  C   UNL     1       2.523   4.865  20.480  0.00  0.00    +0.000 C 
ATOM     13  C   UNL     1       1.816   3.659  19.937  0.00  0.00    +0.000 C 
ATOM     14  O   UNL     1       0.626   3.506  20.174  0.00  0.00    +0.000 OA
ENDROOT
BRANCH   1  15
ATOM     15  N   UNL     1       1.721   1.431  18.940  0.00  0.00    +0.000 NA
ATOM     16  H   UNL     1       1.005   1.706  18.228  0.00  0.00    +0.000 HD
ATOM     17  H   UNL     1       1.233   1.114  19.810  0.00  0.00    +0.000 HD
ENDBRANCH   1  15
TORSDOF 1
ENDMDL
MODEL 3
REMARK VINA RESULT:      -6.2      3.098      4.322
REMARK  Name = 
REMARK  1 active torsions:
REMARK  status: ('A' for Active; 'I' for Inactive)
REMARK    1  A    between atoms: N_1  and  C_2
REMARK                            x       y       z     vdW  Elec       q    Type
REMARK                         _______ _______ _______ _____ _____    ______ ____
ROOT
ATOM      1  C   UNL     1       6.741   5.540  15.943  0.00  0.00    +0.000 C 
ATOM      2  C   UNL     1       5.765   6.724  16.059  0.00  0.00    +0.000 C 
ATOM      3  C   UNL     1       5.168   6.910  17.463  0.00  0.00    +0.000 C 
ATOM      4  C   UNL     1       4.009   5.968  17.764  0.00  0.00    +0.000 A 
ATOM      5  C   UNL     1       2.709   6.502  17.994  0.00  0.00    +0.000 A 
ATOM      6 BR   UNL     1       2.287   8.380  17.952  0.00  0.00    +0.000 Br
ATOM      7  C   UNL     1       1.638   5.656  18.274  0.00  0.00    +0.000 A 
ATOM      8  C   UNL     1       1.818   4.283  18.330  0.00  0.00    +0.000 A 
ATOM      9  C   UNL     1       3.075   3.724  18.115  0.00  0.00    +0.000 A 
ATOM     10 BR   UNL     1       3.163   1.805  18.233  0.00  0.00    +0.000 Br
ATOM     11  C   UNL     1       4.194   4.555  17.832  0.00  0.00    +0.000 A 
ATOM     12  C   UNL     1       5.560   3.932  17.626  0.00  0.00    +0.000 C 
ATOM     13  C   UNL     1       6.119   4.202  16.261  0.00  0.00    +0.000 C 
ATOM     14  O   UNL     1       6.181   3.289  15.450  0.00  0.00    +0.000 OA
ENDROOT
BRANCH   1  15
ATOM     15  N   UNL     1       7.354   5.514  14.611  0.00  0.00    +0.000 NA
ATOM     16  H   UNL     1       8.344   5.180  14.679  0.00  0.00    +0.000 HD
ATOM     17  H   UNL     1       7.344   6.472  14.192  0.00  0.00    +0.000 HD
ENDBRANCH   1  15
TORSDOF 1
ENDMDL
MODEL 4
REMARK VINA RESULT:      -6.2      3.026      4.557
REMARK  Name = 
REMARK  1 active torsions:
REMARK  status: ('A' for Active; 'I' for Inactive)
REMARK    1  A    between atoms: N_1  and  C_2
REMARK                            x       y       z     vdW  Elec       q    Type
REMARK                         _______ _______ _______ _____ _____    ______ ____
ROOT
ATOM      1  C   UNL     1       6.179   4.842  17.266  0.00  0.00    +0.000 C 
ATOM      2  C   UNL     1       5.691   3.982  18.445  0.00  0.00    +0.000 C 
ATOM      3  C   UNL     1       4.181   3.701  18.433  0.00  0.00    +0.000 C 
ATOM      4  C   UNL     1       3.341   4.854  18.970  0.00  0.00    +0.000 A 
ATOM      5  C   UNL     1       2.573   4.673  20.155  0.00  0.00    +0.000 A 
ATOM      6 BR   UNL     1       2.511   3.035  21.166  0.00  0.00    +0.000 Br
ATOM      7  C   UNL     1       1.796   5.714  20.659  0.00  0.00    +0.000 A 
ATOM      8  C   UNL     1       1.760   6.941  20.017  0.00  0.00    +0.000 A 
ATOM      9  C   UNL     1       2.494   7.156  18.854  0.00  0.00    +0.000 A 
ATOM     10 BR   UNL     1       2.334   8.910  18.080  0.00  0.00    +0.000 Br
ATOM     11  C   UNL     1       3.294   6.115  18.306  0.00  0.00    +0.000 A 
ATOM     12  C   UNL     1       4.067   6.356  17.025  0.00  0.00    +0.000 C 
ATOM     13  C   UNL     1       5.548   6.213  17.206  0.00  0.00    +0.000 C 
ATOM     14  O   UNL     1       6.253   7.212  17.179  0.00  0.00    +0.000 OA
ENDROOT
BRANCH   1  15
ATOM     15  N   UNL     1       7.641   4.956  17.287  0.00  0.00    +0.000 NA
ATOM     16  H   UNL     1       7.957   5.657  16.577  0.00  0.00    +0.000 HD
ATOM     17  H   UNL     1       8.076   4.029  17.069  0.00  0.00    +0.000 HD
ENDBRANCH   1  15
TORSDOF 1
ENDMDL
MODEL 5
REMARK VINA RESULT:      -6.1      1.846      3.493
REMARK  Name = 
REMARK  1 active torsions:
REMARK  status: ('A' for Active; 'I' for Inactive)
REMARK    1  A    between atoms: N_1  and  C_2
REMARK                            x       y       z     vdW  Elec       q    Type
REMARK                         _______ _______ _______ _____ _____    ______ ____
ROOT
ATOM      1  C   UNL     1       2.561   2.662  19.282  0.00  0.00    +0.000 C 
ATOM      2  C   UNL     1       3.990   2.561  18.722  0.00  0.00    +0.000 C 
ATOM      3  C   UNL     1       4.943   3.652  19.234  0.00  0.00    +0.000 C 
ATOM      4  C   UNL     1       4.790   4.985  18.511  0.00  0.00    +0.000 A 
ATOM      5  C   UNL     1       5.874   5.497  17.742  0.00  0.00    +0.000 A 
ATOM      6 BR   UNL     1       7.569   4.610  17.535  0.00  0.00    +0.000 Br
ATOM      7  C   UNL     1       5.753   6.716  17.078  0.00  0.00    +0.000 A 
ATOM      8  C   UNL     1       4.578   7.447  17.153  0.00  0.00    +0.000 A 
ATOM      9  C   UNL     1       3.499   6.981  17.898  0.00  0.00    +0.000 A 
ATOM     10 BR   UNL     1       1.943   8.114  17.907  0.00  0.00    +0.000 Br
ATOM     11  C   UNL     1       3.586   5.744  18.595  0.00  0.00    +0.000 A 
ATOM     12  C   UNL     1       2.411   5.264  19.423  0.00  0.00    +0.000 C 
ATOM     13  C   UNL     1       1.860   3.955  18.941  0.00  0.00    +0.000 C 
ATOM     14  O   UNL     1       0.774   3.935  18.379  0.00  0.00    +0.000 OA
ENDROOT
BRANCH   1  15
ATOM     15  N   UNL     1       1.758   1.517  18.842  0.00  0.00    +0.000 NA
ATOM     16  H   UNL     1       1.448   1.655  17.851  0.00  0.00    +0.000 HD
ATOM     17  H   UNL     1       0.914   1.413  19.452  0.00  0.00    +0.000 HD
ENDBRANCH   1  15
TORSDOF 1
ENDMDL
MODEL 6
REMARK VINA RESULT:      -5.9      2.991      5.114
REMARK  Name = 
REMARK  1 active torsions:
REMARK  status: ('A' for Active; 'I' for Inactive)
REMARK    1  A    between atoms: N_1  and  C_2
REMARK                            x       y       z     vdW  Elec       q    Type
REMARK                         _______ _______ _______ _____ _____    ______ ____
ROOT
ATOM      1  C   UNL     1       6.079   5.787  16.207  0.00  0.00    +0.000 C 
ATOM      2  C   UNL     1       5.894   4.332  16.675  0.00  0.00    +0.000 C 
ATOM      3  C   UNL     1       4.437   3.845  16.644  0.00  0.00    +0.000 C 
ATOM      4  C   UNL     1       3.615   4.300  17.844  0.00  0.00    +0.000 A 
ATOM      5  C   UNL     1       3.098   3.331  18.751  0.00  0.00    +0.000 A 
ATOM      6 BR   UNL     1       3.366   1.433  18.577  0.00  0.00    +0.000 Br
ATOM      7  C   UNL     1       2.341   3.729  19.851  0.00  0.00    +0.000 A 
ATOM      8  C   UNL     1       2.082   5.070  20.082  0.00  0.00    +0.000 A 
ATOM      9  C   UNL     1       2.566   6.046  19.216  0.00  0.00    +0.000 A 
ATOM     10 BR   UNL     1       2.116   7.861  19.669  0.00  0.00    +0.000 Br
ATOM     11  C   UNL     1       3.338   5.679  18.078  0.00  0.00    +0.000 A 
ATOM     12  C   UNL     1       3.836   6.751  17.130  0.00  0.00    +0.000 C 
ATOM     13  C   UNL     1       5.332   6.798  17.044  0.00  0.00    +0.000 C 
ATOM     14  O   UNL     1       5.931   7.735  17.553  0.00  0.00    +0.000 OA
ENDROOT
BRANCH   1  15
ATOM     15  N   UNL     1       7.504   6.127  16.150  0.00  0.00    +0.000 NA
ATOM     16  H   UNL     1       8.053   5.313  15.783  0.00  0.00    +0.000 HD
ATOM     17  H   UNL     1       7.854   6.370  17.106  0.00  0.00    +0.000 HD
ENDBRANCH   1  15
TORSDOF 1
ENDMDL
MODEL 7
REMARK VINA RESULT:      -5.6      1.361      1.407
REMARK  Name = 
REMARK  1 active torsions:
REMARK  status: ('A' for Active; 'I' for Inactive)
REMARK    1  A    between atoms: N_1  and  C_2
REMARK                            x       y       z     vdW  Elec       q    Type
REMARK                         _______ _______ _______ _____ _____    ______ ____
ROOT
ATOM      1  C   UNL     1       1.713   2.468  18.588  0.00  0.00    +0.000 C 
ATOM      2  C   UNL     1       1.447   3.881  19.136  0.00  0.00    +0.000 C 
ATOM      3  C   UNL     1       1.449   4.980  18.062  0.00  0.00    +0.000 C 
ATOM      4  C   UNL     1       2.845   5.436  17.656  0.00  0.00    +0.000 A 
ATOM      5  C   UNL     1       3.250   6.777  17.914  0.00  0.00    +0.000 A 
ATOM      6 BR   UNL     1       2.139   8.100  18.763  0.00  0.00    +0.000 Br
ATOM      7  C   UNL     1       4.521   7.213  17.546  0.00  0.00    +0.000 A 
ATOM      8  C   UNL     1       5.411   6.350  16.927  0.00  0.00    +0.000 A 
ATOM      9  C   UNL     1       5.051   5.033  16.655  0.00  0.00    +0.000 A 
ATOM     10 BR   UNL     1       6.394   3.964  15.788  0.00  0.00    +0.000 Br
ATOM     11  C   UNL     1       3.759   4.553  17.010  0.00  0.00    +0.000 A 
ATOM     12  C   UNL     1       3.373   3.125  16.683  0.00  0.00    +0.000 C 
ATOM     13  C   UNL     1       3.052   2.318  17.906  0.00  0.00    +0.000 C 
ATOM     14  O   UNL     1       3.832   1.449  18.270  0.00  0.00    +0.000 OA
ENDROOT
BRANCH   1  15
ATOM     15  N   UNL     1       1.571   1.472  19.655  0.00  0.00    +0.000 NA
ATOM     16  H   UNL     1       2.493   1.011  19.841  0.00  0.00    +0.000 HD
ATOM     17  H   UNL     1       0.875   0.743  19.376  0.00  0.00    +0.000 HD
ENDBRANCH   1  15
TORSDOF 1
ENDMDL
MODEL 8
REMARK VINA RESULT:      -5.6      2.864      4.220
REMARK  Name = 
REMARK  1 active torsions:
REMARK  status: ('A' for Active; 'I' for Inactive)
REMARK    1  A    between atoms: N_1  and  C_2
REMARK                            x       y       z     vdW  Elec       q    Type
REMARK                         _______ _______ _______ _____ _____    ______ ____
ROOT
ATOM      1  C   UNL     1       5.186   6.294  16.611  0.00  0.00    +0.000 C 
ATOM      2  C   UNL     1       4.134   7.114  17.380  0.00  0.00    +0.000 C 
ATOM      3  C   UNL     1       4.095   6.827  18.889  0.00  0.00    +0.000 C 
ATOM      4  C   UNL     1       3.324   5.563  19.250  0.00  0.00    +0.000 A 
ATOM      5  C   UNL     1       2.138   5.661  20.032  0.00  0.00    +0.000 A 
ATOM      6 BR   UNL     1       1.406   7.317  20.686  0.00  0.00    +0.000 Br
ATOM      7  C   UNL     1       1.423   4.516  20.375  0.00  0.00    +0.000 A 
ATOM      8  C   UNL     1       1.851   3.265  19.961  0.00  0.00    +0.000 A 
ATOM      9  C   UNL     1       3.009   3.128  19.199  0.00  0.00    +0.000 A 
ATOM     10 BR   UNL     1       3.474   1.327  18.708  0.00  0.00    +0.000 Br
ATOM     11  C   UNL     1       3.770   4.274  18.834  0.00  0.00    +0.000 A 
ATOM     12  C   UNL     1       5.041   4.105  18.027  0.00  0.00    +0.000 C 
ATOM     13  C   UNL     1       4.980   4.800  16.699  0.00  0.00    +0.000 C 
ATOM     14  O   UNL     1       4.889   4.133  15.679  0.00  0.00    +0.000 OA
ENDROOT
BRANCH   1  15
ATOM     15  N   UNL     1       5.239   6.719  15.209  0.00  0.00    +0.000 NA
ATOM     16  H   UNL     1       5.651   7.679  15.140  0.00  0.00    +0.000 HD
ATOM     17  H   UNL     1       4.276   6.731  14.800  0.00  0.00    +0.000 HD
ENDBRANCH   1  15
TORSDOF 1
ENDMDL
