MODEL 1
REMARK VINA RESULT:      -7.5      0.000      0.000
REMARK  Name = 
REMARK  12 active torsions:
REMARK  status: ('A' for Active; 'I' for Inactive)
REMARK    1  A    between atoms: C_1  and  C_2
REMARK    2  A    between atoms: C_2  and  C_3
REMARK    3  A    between atoms: C_4  and  C_5
REMARK    4  A    between atoms: C_5  and  C_6
REMARK    5  A    between atoms: C_6  and  C_7
REMARK    6  A    between atoms: C_7  and  C_8
REMARK    7  A    between atoms: C_7  and  C_9
REMARK    8  A    between atoms: C_12  and  C_13
REMARK    9  A    between atoms: C_15  and  O_16
REMARK   10  A    between atoms: O_16  and  C_17
REMARK   11  A    between atoms: C_17  and  C_19
REMARK   12  A    between atoms: C_25  and  C_26
REMARK                            x       y       z     vdW  Elec       q    Type
REMARK                         _______ _______ _______ _____ _____    ______ ____
ROOT
ATOM      1  C   UNL     1       5.720   7.078  17.305  0.00  0.00    +0.000 C 
ATOM      2  C   UNL     1       4.513   7.601  18.113  0.00  0.00    +0.000 C 
ATOM      3  C   UNL     1       3.985   6.562  19.097  0.00  0.00    +0.000 C 
ATOM      4  C   UNL     1       3.452   5.328  18.382  0.00  0.00    +0.000 C 
ATOM      5  C   UNL     1       2.026   5.617  17.890  0.00  0.00    +0.000 C 
ATOM      6  C   UNL     1       4.377   4.864  17.265  0.00  0.00    +0.000 A 
ATOM      7  C   UNL     1       4.121   3.610  16.656  0.00  0.00    +0.000 A 
ATOM      8  C   UNL     1       4.776   3.204  15.497  0.00  0.00    +0.000 A 
ATOM      9  C   UNL     1       5.747   4.034  14.936  0.00  0.00    +0.000 A 
ATOM     10  C   UNL     1       6.376   3.654  13.624  0.00  0.00    +0.000 C 
ATOM     11  C   UNL     1       6.081   5.238  15.578  0.00  0.00    +0.000 A 
ATOM     12  C   UNL     1       5.420   5.675  16.753  0.00  0.00    +0.000 A 
ENDROOT
BRANCH   1  13
ATOM     13  C   UNL     1       7.064   7.387  18.081  0.00  0.00    +0.000 C 
ATOM     14  C   UNL     1       7.768   6.177  18.704  0.00  0.00    +0.000 C 
BRANCH  13  15
ATOM     15  C   UNL     1       8.058   8.291  17.316  0.00  0.00    +0.000 C 
BRANCH  15  16
ATOM     16  C   UNL     1       8.008   9.750  17.801  0.00  0.00    +0.000 C 
BRANCH  16  20
ATOM     17  C   UNL     1      10.658  11.453  20.078  0.00  0.00    +0.000 C 
ATOM     18  C   UNL     1       9.687  11.253  18.951  0.00  0.00    +0.000 C 
ATOM     19  C   UNL     1       9.463  12.408  18.015  0.00  0.00    +0.000 C 
ATOM     20  C   UNL     1       9.067  10.067  18.811  0.00  0.00    +0.000 C 
ENDBRANCH  16  20
ENDBRANCH  15  16
ENDBRANCH  13  15
ENDBRANCH   1  13
BRANCH   7  21
ATOM     21  O   UNL     1       3.089   2.819  17.234  0.00  0.00    +0.000 OA
BRANCH  21  22
ATOM     22  C   UNL     1       3.247   1.880  18.257  0.00  0.00    +0.000 C 
ATOM     23  O   UNL     1       3.909   0.851  18.192  0.00  0.00    +0.000 OA
BRANCH  22  24
ATOM     24  C   UNL     1       2.565   2.348  19.443  0.00  0.00    +0.000 A 
ATOM     25  C   UNL     1       1.222   2.584  19.680  0.00  0.00    +0.000 A 
ATOM     26  C   UNL     1       1.098   2.914  21.051  0.00  0.00    +0.000 A 
ATOM     27  C   UNL     1       2.376   2.925  21.557  0.00  0.00    +0.000 A 
ATOM     28  O   UNL     1       3.272   2.589  20.595  0.00  0.00    +0.000 OA
ENDBRANCH  22  24
ENDBRANCH  21  22
ENDBRANCH   7  21
TORSDOF 7
ENDMDL
MODEL 2
REMARK VINA RESULT:      -7.4      0.644      1.027
REMARK  Name = 
REMARK  12 active torsions:
REMARK  status: ('A' for Active; 'I' for Inactive)
REMARK    1  A    between atoms: C_1  and  C_2
REMARK    2  A    between atoms: C_2  and  C_3
REMARK    3  A    between atoms: C_4  and  C_5
REMARK    4  A    between atoms: C_5  and  C_6
REMARK    5  A    between atoms: C_6  and  C_7
REMARK    6  A    between atoms: C_7  and  C_8
REMARK    7  A    between atoms: C_7  and  C_9
REMARK    8  A    between atoms: C_12  and  C_13
REMARK    9  A    between atoms: C_15  and  O_16
REMARK   10  A    between atoms: O_16  and  C_17
REMARK   11  A    between atoms: C_17  and  C_19
REMARK   12  A    between atoms: C_25  and  C_26
REMARK                            x       y       z     vdW  Elec       q    Type
REMARK                         _______ _______ _______ _____ _____    ______ ____
ROOT
ATOM      1  C   UNL     1       5.563   7.134  17.289  0.00  0.00    +0.000 C 
ATOM      2  C   UNL     1       4.330   7.633  18.074  0.00  0.00    +0.000 C 
ATOM      3  C   UNL     1       3.827   6.596  19.074  0.00  0.00    +0.000 C 
ATOM      4  C   UNL     1       3.344   5.331  18.379  0.00  0.00    +0.000 C 
ATOM      5  C   UNL     1       1.914   5.562  17.867  0.00  0.00    +0.000 C 
ATOM      6  C   UNL     1       4.295   4.876  17.281  0.00  0.00    +0.000 A 
ATOM      7  C   UNL     1       4.088   3.602  16.696  0.00  0.00    +0.000 A 
ATOM      8  C   UNL     1       4.770   3.195  15.553  0.00  0.00    +0.000 A 
ATOM      9  C   UNL     1       5.718   4.046  14.984  0.00  0.00    +0.000 A 
ATOM     10  C   UNL     1       6.374   3.661  13.687  0.00  0.00    +0.000 C 
ATOM     11  C   UNL     1       6.005   5.273  15.605  0.00  0.00    +0.000 A 
ATOM     12  C   UNL     1       5.316   5.712  16.764  0.00  0.00    +0.000 A 
ENDROOT
BRANCH   1  13
ATOM     13  C   UNL     1       6.887   7.505  18.073  0.00  0.00    +0.000 C 
ATOM     14  C   UNL     1       7.763   6.322  18.500  0.00  0.00    +0.000 C 
BRANCH  13  15
ATOM     15  C   UNL     1       7.728   8.628  17.424  0.00  0.00    +0.000 C 
BRANCH  15  16
ATOM     16  C   UNL     1       8.711   9.266  18.419  0.00  0.00    +0.000 C 
BRANCH  16  20
ATOM     17  C   UNL     1       9.766  13.004  18.555  0.00  0.00    +0.000 C 
ATOM     18  C   UNL     1       9.448  11.611  19.016  0.00  0.00    +0.000 C 
ATOM     19  C   UNL     1       9.664  11.295  20.470  0.00  0.00    +0.000 C 
ATOM     20  C   UNL     1       8.980  10.710  18.133  0.00  0.00    +0.000 C 
ENDBRANCH  16  20
ENDBRANCH  15  16
ENDBRANCH  13  15
ENDBRANCH   1  13
BRANCH   7  21
ATOM     21  O   UNL     1       3.077   2.789  17.279  0.00  0.00    +0.000 OA
BRANCH  21  22
ATOM     22  C   UNL     1       3.262   1.851  18.299  0.00  0.00    +0.000 C 
ATOM     23  O   UNL     1       3.926   0.824  18.220  0.00  0.00    +0.000 OA
BRANCH  22  24
ATOM     24  C   UNL     1       2.606   2.317  19.500  0.00  0.00    +0.000 A 
ATOM     25  C   UNL     1       3.118   2.626  20.748  0.00  0.00    +0.000 A 
ATOM     26  C   UNL     1       2.048   3.152  21.512  0.00  0.00    +0.000 A 
ATOM     27  C   UNL     1       0.933   3.074  20.712  0.00  0.00    +0.000 A 
ATOM     28  O   UNL     1       1.256   2.567  19.495  0.00  0.00    +0.000 OA
ENDBRANCH  22  24
ENDBRANCH  21  22
ENDBRANCH   7  21
TORSDOF 7
ENDMDL
MODEL 3
REMARK VINA RESULT:      -7.3      3.644      7.344
REMARK  Name = 
REMARK  12 active torsions:
REMARK  status: ('A' for Active; 'I' for Inactive)
REMARK    1  A    between atoms: C_1  and  C_2
REMARK    2  A    between atoms: C_2  and  C_3
REMARK    3  A    between atoms: C_4  and  C_5
REMARK    4  A    between atoms: C_5  and  C_6
REMARK    5  A    between atoms: C_6  and  C_7
REMARK    6  A    between atoms: C_7  and  C_8
REMARK    7  A    between atoms: C_7  and  C_9
REMARK    8  A    between atoms: C_12  and  C_13
REMARK    9  A    between atoms: C_15  and  O_16
REMARK   10  A    between atoms: O_16  and  C_17
REMARK   11  A    between atoms: C_17  and  C_19
REMARK   12  A    between atoms: C_25  and  C_26
REMARK                            x       y       z     vdW  Elec       q    Type
REMARK                         _______ _______ _______ _____ _____    ______ ____
ROOT
ATOM      1  C   UNL     1       1.618   8.233  20.165  0.00  0.00    +0.000 C 
ATOM      2  C   UNL     1       2.380   9.103  19.142  0.00  0.00    +0.000 C 
ATOM      3  C   UNL     1       2.176   8.619  17.710  0.00  0.00    +0.000 C 
ATOM      4  C   UNL     1       2.734   7.217  17.503  0.00  0.00    +0.000 C 
ATOM      5  C   UNL     1       4.250   7.317  17.275  0.00  0.00    +0.000 C 
ATOM      6  C   UNL     1       2.372   6.277  18.644  0.00  0.00    +0.000 A 
ATOM      7  C   UNL     1       2.638   4.894  18.487  0.00  0.00    +0.000 A 
ATOM      8  C   UNL     1       2.537   3.998  19.548  0.00  0.00    +0.000 A 
ATOM      9  C   UNL     1       2.123   4.462  20.797  0.00  0.00    +0.000 A 
ATOM     10  C   UNL     1       2.122   3.523  21.971  0.00  0.00    +0.000 C 
ATOM     11  C   UNL     1       1.763   5.812  20.947  0.00  0.00    +0.000 A 
ATOM     12  C   UNL     1       1.866   6.743  19.884  0.00  0.00    +0.000 A 
ENDROOT
BRANCH   1  13
ATOM     13  C   UNL     1       0.154   8.800  20.369  0.00  0.00    +0.000 C 
ATOM     14  C   UNL     1      -0.450   8.600  21.764  0.00  0.00    +0.000 C 
BRANCH  13  15
ATOM     15  C   UNL     1      -0.055  10.245  19.863  0.00  0.00    +0.000 C 
BRANCH  15  16
ATOM     16  C   UNL     1      -1.468  10.464  19.298  0.00  0.00    +0.000 C 
BRANCH  16  20
ATOM     17  C   UNL     1      -2.644   9.863  15.642  0.00  0.00    +0.000 C 
ATOM     18  C   UNL     1      -2.706  10.166  17.111  0.00  0.00    +0.000 C 
ATOM     19  C   UNL     1      -4.046  10.521  17.691  0.00  0.00    +0.000 C 
ATOM     20  C   UNL     1      -1.583  10.100  17.850  0.00  0.00    +0.000 C 
ENDBRANCH  16  20
ENDBRANCH  15  16
ENDBRANCH  13  15
ENDBRANCH   1  13
BRANCH   7  21
ATOM     21  O   UNL     1       3.105   4.475  17.211  0.00  0.00    +0.000 OA
BRANCH  21  22
ATOM     22  C   UNL     1       4.046   3.469  16.969  0.00  0.00    +0.000 C 
ATOM     23  O   UNL     1       3.906   2.279  17.224  0.00  0.00    +0.000 OA
BRANCH  22  24
ATOM     24  C   UNL     1       5.191   4.040  16.295  0.00  0.00    +0.000 A 
ATOM     25  C   UNL     1       6.432   4.413  16.781  0.00  0.00    +0.000 A 
ATOM     26  C   UNL     1       7.212   4.797  15.663  0.00  0.00    +0.000 A 
ATOM     27  C   UNL     1       6.384   4.700  14.570  0.00  0.00    +0.000 A 
ATOM     28  O   UNL     1       5.159   4.248  14.938  0.00  0.00    +0.000 OA
ENDBRANCH  22  24
ENDBRANCH  21  22
ENDBRANCH   7  21
TORSDOF 7
ENDMDL
MODEL 4
REMARK VINA RESULT:      -7.3      3.854      7.117
REMARK  Name = 
REMARK  12 active torsions:
REMARK  status: ('A' for Active; 'I' for Inactive)
REMARK    1  A    between atoms: C_1  and  C_2
REMARK    2  A    between atoms: C_2  and  C_3
REMARK    3  A    between atoms: C_4  and  C_5
REMARK    4  A    between atoms: C_5  and  C_6
REMARK    5  A    between atoms: C_6  and  C_7
REMARK    6  A    between atoms: C_7  and  C_8
REMARK    7  A    between atoms: C_7  and  C_9
REMARK    8  A    between atoms: C_12  and  C_13
REMARK    9  A    between atoms: C_15  and  O_16
REMARK   10  A    between atoms: O_16  and  C_17
REMARK   11  A    between atoms: C_17  and  C_19
REMARK   12  A    between atoms: C_25  and  C_26
REMARK                            x       y       z     vdW  Elec       q    Type
REMARK                         _______ _______ _______ _____ _____    ______ ____
ROOT
ATOM      1  C   UNL     1       3.944   5.483  17.286  0.00  0.00    +0.000 C 
ATOM      2  C   UNL     1       3.812   6.771  16.445  0.00  0.00    +0.000 C 
ATOM      3  C   UNL     1       4.037   8.028  17.279  0.00  0.00    +0.000 C 
ATOM      4  C   UNL     1       2.984   8.179  18.368  0.00  0.00    +0.000 C 
ATOM      5  C   UNL     1       1.717   8.791  17.750  0.00  0.00    +0.000 C 
ATOM      6  C   UNL     1       2.710   6.869  19.092  0.00  0.00    +0.000 A 
ATOM      7  C   UNL     1       1.916   6.901  20.265  0.00  0.00    +0.000 A 
ATOM      8  C   UNL     1       1.442   5.740  20.869  0.00  0.00    +0.000 A 
ATOM      9  C   UNL     1       1.790   4.500  20.331  0.00  0.00    +0.000 A 
ATOM     10  C   UNL     1       1.190   3.249  20.909  0.00  0.00    +0.000 C 
ATOM     11  C   UNL     1       2.655   4.446  19.225  0.00  0.00    +0.000 A 
ATOM     12  C   UNL     1       3.142   5.616  18.589  0.00  0.00    +0.000 A 
ENDROOT
BRANCH   1  13
ATOM     13  C   UNL     1       5.450   4.996  17.292  0.00  0.00    +0.000 C 
ATOM     14  C   UNL     1       6.058   4.725  18.673  0.00  0.00    +0.000 C 
BRANCH  13  15
ATOM     15  C   UNL     1       5.762   3.852  16.300  0.00  0.00    +0.000 C 
BRANCH  15  16
ATOM     16  C   UNL     1       6.164   4.380  14.913  0.00  0.00    +0.000 C 
BRANCH  16  20
ATOM     17  C   UNL     1       4.714   3.022  11.572  0.00  0.00    +0.000 C 
ATOM     18  C   UNL     1       5.676   3.646  12.541  0.00  0.00    +0.000 C 
ATOM     19  C   UNL     1       7.038   4.016  12.026  0.00  0.00    +0.000 C 
ATOM     20  C   UNL     1       5.291   3.859  13.814  0.00  0.00    +0.000 C 
ENDBRANCH  16  20
ENDBRANCH  15  16
ENDBRANCH  13  15
ENDBRANCH   1  13
BRANCH   7  21
ATOM     21  O   UNL     1       1.544   8.186  20.749  0.00  0.00    +0.000 OA
BRANCH  21  22
ATOM     22  C   UNL     1       0.254   8.590  21.105  0.00  0.00    +0.000 C 
ATOM     23  O   UNL     1      -0.605   7.882  21.616  0.00  0.00    +0.000 OA
BRANCH  22  24
ATOM     24  C   UNL     1       0.109  10.005  20.845  0.00  0.00    +0.000 A 
ATOM     25  C   UNL     1      -0.714  10.682  19.962  0.00  0.00    +0.000 A 
ATOM     26  C   UNL     1      -0.535  12.064  20.211  0.00  0.00    +0.000 A 
ATOM     27  C   UNL     1       0.432  12.154  21.184  0.00  0.00    +0.000 A 
ATOM     28  O   UNL     1       0.832  10.917  21.573  0.00  0.00    +0.000 OA
ENDBRANCH  22  24
ENDBRANCH  21  22
ENDBRANCH   7  21
TORSDOF 7
ENDMDL
MODEL 5
REMARK VINA RESULT:      -7.2      3.896      6.889
REMARK  Name = 
REMARK  12 active torsions:
REMARK  status: ('A' for Active; 'I' for Inactive)
REMARK    1  A    between atoms: C_1  and  C_2
REMARK    2  A    between atoms: C_2  and  C_3
REMARK    3  A    between atoms: C_4  and  C_5
REMARK    4  A    between atoms: C_5  and  C_6
REMARK    5  A    between atoms: C_6  and  C_7
REMARK    6  A    between atoms: C_7  and  C_8
REMARK    7  A    between atoms: C_7  and  C_9
REMARK    8  A    between atoms: C_12  and  C_13
REMARK    9  A    between atoms: C_15  and  O_16
REMARK   10  A    between atoms: O_16  and  C_17
REMARK   11  A    between atoms: C_17  and  C_19
REMARK   12  A    between atoms: C_25  and  C_26
REMARK                            x       y       z     vdW  Elec       q    Type
REMARK                         _______ _______ _______ _____ _____    ______ ____
ROOT
ATOM      1  C   UNL     1       4.309   5.949  17.831  0.00  0.00    +0.000 C 
ATOM      2  C   UNL     1       3.923   7.023  16.790  0.00  0.00    +0.000 C 
ATOM      3  C   UNL     1       3.683   8.386  17.432  0.00  0.00    +0.000 C 
ATOM      4  C   UNL     1       2.506   8.356  18.396  0.00  0.00    +0.000 C 
ATOM      5  C   UNL     1       1.204   8.482  17.592  0.00  0.00    +0.000 C 
ATOM      6  C   UNL     1       2.526   7.127  19.294  0.00  0.00    +0.000 A 
ATOM      7  C   UNL     1       1.618   7.072  20.381  0.00  0.00    +0.000 A 
ATOM      8  C   UNL     1       1.420   5.909  21.119  0.00  0.00    +0.000 A 
ATOM      9  C   UNL     1       2.165   4.769  20.812  0.00  0.00    +0.000 A 
ATOM     10  C   UNL     1       1.875   3.480  21.530  0.00  0.00    +0.000 C 
ATOM     11  C   UNL     1       3.137   4.833  19.800  0.00  0.00    +0.000 A 
ATOM     12  C   UNL     1       3.349   6.004  19.029  0.00  0.00    +0.000 A 
ENDROOT
BRANCH   1  13
ATOM     13  C   UNL     1       5.878   5.933  18.032  0.00  0.00    +0.000 C 
ATOM     14  C   UNL     1       6.422   4.833  18.950  0.00  0.00    +0.000 C 
BRANCH  13  15
ATOM     15  C   UNL     1       6.698   6.039  16.725  0.00  0.00    +0.000 C 
BRANCH  15  16
ATOM     16  C   UNL     1       7.144   4.662  16.207  0.00  0.00    +0.000 C 
BRANCH  16  20
ATOM     17  C   UNL     1       5.539   3.567  12.841  0.00  0.00    +0.000 C 
ATOM     18  C   UNL     1       6.468   4.247  13.805  0.00  0.00    +0.000 C 
ATOM     19  C   UNL     1       7.601   5.049  13.228  0.00  0.00    +0.000 C 
ATOM     20  C   UNL     1       6.255   4.126  15.128  0.00  0.00    +0.000 C 
ENDBRANCH  16  20
ENDBRANCH  15  16
ENDBRANCH  13  15
ENDBRANCH   1  13
BRANCH   7  21
ATOM     21  O   UNL     1       0.845   8.240  20.626  0.00  0.00    +0.000 OA
BRANCH  21  22
ATOM     22  C   UNL     1       1.166   9.268  21.518  0.00  0.00    +0.000 C 
ATOM     23  O   UNL     1       1.827   9.149  22.542  0.00  0.00    +0.000 OA
BRANCH  22  24
ATOM     24  C   UNL     1       0.656  10.520  21.005  0.00  0.00    +0.000 A 
ATOM     25  C   UNL     1      -0.334  10.779  20.074  0.00  0.00    +0.000 A 
ATOM     26  C   UNL     1      -0.509  12.184  20.041  0.00  0.00    +0.000 A 
ATOM     27  C   UNL     1       0.427  12.705  20.902  0.00  0.00    +0.000 A 
ATOM     28  O   UNL     1       1.140  11.710  21.488  0.00  0.00    +0.000 OA
ENDBRANCH  22  24
ENDBRANCH  21  22
ENDBRANCH   7  21
TORSDOF 7
ENDMDL
MODEL 6
REMARK VINA RESULT:      -7.2      2.876      6.997
REMARK  Name = 
REMARK  12 active torsions:
REMARK  status: ('A' for Active; 'I' for Inactive)
REMARK    1  A    between atoms: C_1  and  C_2
REMARK    2  A    between atoms: C_2  and  C_3
REMARK    3  A    between atoms: C_4  and  C_5
REMARK    4  A    between atoms: C_5  and  C_6
REMARK    5  A    between atoms: C_6  and  C_7
REMARK    6  A    between atoms: C_7  and  C_8
REMARK    7  A    between atoms: C_7  and  C_9
REMARK    8  A    between atoms: C_12  and  C_13
REMARK    9  A    between atoms: C_15  and  O_16
REMARK   10  A    between atoms: O_16  and  C_17
REMARK   11  A    between atoms: C_17  and  C_19
REMARK   12  A    between atoms: C_25  and  C_26
REMARK                            x       y       z     vdW  Elec       q    Type
REMARK                         _______ _______ _______ _____ _____    ______ ____
ROOT
ATOM      1  C   UNL     1       1.902   4.157  18.101  0.00  0.00    +0.000 C 
ATOM      2  C   UNL     1       2.539   2.962  17.359  0.00  0.00    +0.000 C 
ATOM      3  C   UNL     1       4.029   2.829  17.654  0.00  0.00    +0.000 C 
ATOM      4  C   UNL     1       4.812   4.038  17.161  0.00  0.00    +0.000 C 
ATOM      5  C   UNL     1       5.074   3.878  15.656  0.00  0.00    +0.000 C 
ATOM      6  C   UNL     1       4.120   5.351  17.501  0.00  0.00    +0.000 A 
ATOM      7  C   UNL     1       4.832   6.559  17.296  0.00  0.00    +0.000 A 
ATOM      8  C   UNL     1       4.213   7.804  17.377  0.00  0.00    +0.000 A 
ATOM      9  C   UNL     1       2.860   7.872  17.710  0.00  0.00    +0.000 A 
ATOM     10  C   UNL     1       2.159   9.203  17.687  0.00  0.00    +0.000 C 
ATOM     11  C   UNL     1       2.161   6.691  18.009  0.00  0.00    +0.000 A 
ATOM     12  C   UNL     1       2.769   5.413  17.924  0.00  0.00    +0.000 A 
ENDROOT
BRANCH   1  13
ATOM     13  C   UNL     1       1.399   3.698  19.529  0.00  0.00    +0.000 C 
ATOM     14  C   UNL     1       1.670   2.234  19.893  0.00  0.00    +0.000 C 
BRANCH  13  15
ATOM     15  C   UNL     1       1.782   4.651  20.685  0.00  0.00    +0.000 C 
BRANCH  15  16
ATOM     16  C   UNL     1       0.821   5.847  20.794  0.00  0.00    +0.000 C 
BRANCH  16  20
ATOM     17  C   UNL     1       1.743   9.418  22.018  0.00  0.00    +0.000 C 
ATOM     18  C   UNL     1       0.908   8.249  21.583  0.00  0.00    +0.000 C 
ATOM     19  C   UNL     1      -0.586   8.407  21.628  0.00  0.00    +0.000 C 
ATOM     20  C   UNL     1       1.513   7.121  21.165  0.00  0.00    +0.000 C 
ENDBRANCH  16  20
ENDBRANCH  15  16
ENDBRANCH  13  15
ENDBRANCH   1  13
BRANCH   7  21
ATOM     21  O   UNL     1       6.196   6.439  16.910  0.00  0.00    +0.000 OA
BRANCH  21  22
ATOM     22  C   UNL     1       7.290   6.341  17.774  0.00  0.00    +0.000 C 
ATOM     23  O   UNL     1       7.757   5.303  18.227  0.00  0.00    +0.000 OA
BRANCH  22  24
ATOM     24  C   UNL     1       7.841   7.659  17.997  0.00  0.00    +0.000 A 
ATOM     25  C   UNL     1       7.606   8.858  17.348  0.00  0.00    +0.000 A 
ATOM     26  C   UNL     1       8.319   9.856  18.056  0.00  0.00    +0.000 A 
ATOM     27  C   UNL     1       8.999   9.201  19.055  0.00  0.00    +0.000 A 
ATOM     28  O   UNL     1       8.722   7.873  19.028  0.00  0.00    +0.000 OA
ENDBRANCH  22  24
ENDBRANCH  21  22
ENDBRANCH   7  21
TORSDOF 7
ENDMDL
MODEL 7
REMARK VINA RESULT:      -7.1      7.004      9.074
REMARK  Name = 
REMARK  12 active torsions:
REMARK  status: ('A' for Active; 'I' for Inactive)
REMARK    1  A    between atoms: C_1  and  C_2
REMARK    2  A    between atoms: C_2  and  C_3
REMARK    3  A    between atoms: C_4  and  C_5
REMARK    4  A    between atoms: C_5  and  C_6
REMARK    5  A    between atoms: C_6  and  C_7
REMARK    6  A    between atoms: C_7  and  C_8
REMARK    7  A    between atoms: C_7  and  C_9
REMARK    8  A    between atoms: C_12  and  C_13
REMARK    9  A    between atoms: C_15  and  O_16
REMARK   10  A    between atoms: O_16  and  C_17
REMARK   11  A    between atoms: C_17  and  C_19
REMARK   12  A    between atoms: C_25  and  C_26
REMARK                            x       y       z     vdW  Elec       q    Type
REMARK                         _______ _______ _______ _____ _____    ______ ____
ROOT
ATOM      1  C   UNL     1      -2.397  12.594  21.028  0.00  0.00    +0.000 C 
ATOM      2  C   UNL     1      -1.939  11.963  22.361  0.00  0.00    +0.000 C 
ATOM      3  C   UNL     1      -0.448  11.644  22.365  0.00  0.00    +0.000 C 
ATOM      4  C   UNL     1      -0.091  10.602  21.314  0.00  0.00    +0.000 C 
ATOM      5  C   UNL     1      -0.412   9.207  21.870  0.00  0.00    +0.000 C 
ATOM      6  C   UNL     1      -0.770  10.873  19.979  0.00  0.00    +0.000 A 
ATOM      7  C   UNL     1      -0.367  10.114  18.852  0.00  0.00    +0.000 A 
ATOM      8  C   UNL     1      -1.071  10.143  17.651  0.00  0.00    +0.000 A 
ATOM      9  C   UNL     1      -2.186  10.974  17.534  0.00  0.00    +0.000 A 
ATOM     10  C   UNL     1      -3.016  10.925  16.281  0.00  0.00    +0.000 C 
ATOM     11  C   UNL     1      -2.544  11.805  18.609  0.00  0.00    +0.000 A 
ATOM     12  C   UNL     1      -1.847  11.784  19.843  0.00  0.00    +0.000 A 
ENDROOT
BRANCH   1  13
ATOM     13  C   UNL     1      -2.240  14.167  21.094  0.00  0.00    +0.000 C 
ATOM     14  C   UNL     1      -3.544  14.963  21.212  0.00  0.00    +0.000 C 
BRANCH  13  15
ATOM     15  C   UNL     1      -1.177  14.667  22.099  0.00  0.00    +0.000 C 
BRANCH  15  16
ATOM     16  C   UNL     1      -0.003  15.372  21.399  0.00  0.00    +0.000 C 
BRANCH  16  20
ATOM     17  C   UNL     1       1.376  13.408  18.342  0.00  0.00    +0.000 C 
ATOM     18  C   UNL     1       1.273  13.956  19.736  0.00  0.00    +0.000 C 
ATOM     19  C   UNL     1       2.305  13.512  20.734  0.00  0.00    +0.000 C 
ATOM     20  C   UNL     1       0.285  14.818  20.038  0.00  0.00    +0.000 C 
ENDBRANCH  16  20
ENDBRANCH  15  16
ENDBRANCH  13  15
ENDBRANCH   1  13
BRANCH   7  21
ATOM     21  O   UNL     1       0.744   9.244  19.033  0.00  0.00    +0.000 OA
BRANCH  21  22
ATOM     22  C   UNL     1       1.868   9.162  18.206  0.00  0.00    +0.000 C 
ATOM     23  O   UNL     1       2.287  10.050  17.473  0.00  0.00    +0.000 OA
BRANCH  22  24
ATOM     24  C   UNL     1       2.513   7.883  18.404  0.00  0.00    +0.000 A 
ATOM     25  C   UNL     1       3.452   7.216  17.637  0.00  0.00    +0.000 A 
ATOM     26  C   UNL     1       3.829   6.060  18.362  0.00  0.00    +0.000 A 
ATOM     27  C   UNL     1       3.054   6.053  19.498  0.00  0.00    +0.000 A 
ATOM     28  O   UNL     1       2.252   7.147  19.533  0.00  0.00    +0.000 OA
ENDBRANCH  22  24
ENDBRANCH  21  22
ENDBRANCH   7  21
TORSDOF 7
ENDMDL
MODEL 8
REMARK VINA RESULT:      -7.1      7.772     10.276
REMARK  Name = 
REMARK  12 active torsions:
REMARK  status: ('A' for Active; 'I' for Inactive)
REMARK    1  A    between atoms: C_1  and  C_2
REMARK    2  A    between atoms: C_2  and  C_3
REMARK    3  A    between atoms: C_4  and  C_5
REMARK    4  A    between atoms: C_5  and  C_6
REMARK    5  A    between atoms: C_6  and  C_7
REMARK    6  A    between atoms: C_7  and  C_8
REMARK    7  A    between atoms: C_7  and  C_9
REMARK    8  A    between atoms: C_12  and  C_13
REMARK    9  A    between atoms: C_15  and  O_16
REMARK   10  A    between atoms: O_16  and  C_17
REMARK   11  A    between atoms: C_17  and  C_19
REMARK   12  A    between atoms: C_25  and  C_26
REMARK                            x       y       z     vdW  Elec       q    Type
REMARK                         _______ _______ _______ _____ _____    ______ ____
ROOT
ATOM      1  C   UNL     1       0.951  10.709  18.523  0.00  0.00    +0.000 C 
ATOM      2  C   UNL     1       1.613  11.938  19.183  0.00  0.00    +0.000 C 
ATOM      3  C   UNL     1       0.942  12.314  20.501  0.00  0.00    +0.000 C 
ATOM      4  C   UNL     1      -0.508  12.732  20.296  0.00  0.00    +0.000 C 
ATOM      5  C   UNL     1      -0.541  14.197  19.837  0.00  0.00    +0.000 C 
ATOM      6  C   UNL     1      -1.248  11.801  19.346  0.00  0.00    +0.000 A 
ATOM      7  C   UNL     1      -2.653  11.938  19.228  0.00  0.00    +0.000 A 
ATOM      8  C   UNL     1      -3.380  11.282  18.238  0.00  0.00    +0.000 A 
ATOM      9  C   UNL     1      -2.715  10.429  17.357  0.00  0.00    +0.000 A 
ATOM     10  C   UNL     1      -3.473   9.807  16.217  0.00  0.00    +0.000 C 
ATOM     11  C   UNL     1      -1.337  10.207  17.518  0.00  0.00    +0.000 A 
ATOM     12  C   UNL     1      -0.577  10.871  18.513  0.00  0.00    +0.000 A 
ENDROOT
BRANCH   1  13
ATOM     13  C   UNL     1       1.635   9.382  19.047  0.00  0.00    +0.000 C 
ATOM     14  C   UNL     1       0.987   8.739  20.278  0.00  0.00    +0.000 C 
BRANCH  13  15
ATOM     15  C   UNL     1       1.934   8.333  17.950  0.00  0.00    +0.000 C 
BRANCH  15  16
ATOM     16  C   UNL     1       2.868   7.219  18.452  0.00  0.00    +0.000 C 
BRANCH  16  20
ATOM     17  C   UNL     1       2.330   3.468  17.588  0.00  0.00    +0.000 C 
ATOM     18  C   UNL     1       2.981   4.819  17.660  0.00  0.00    +0.000 C 
ATOM     19  C   UNL     1       4.361   4.956  17.081  0.00  0.00    +0.000 C 
ATOM     20  C   UNL     1       2.317   5.846  18.222  0.00  0.00    +0.000 C 
ENDBRANCH  16  20
ENDBRANCH  15  16
ENDBRANCH  13  15
ENDBRANCH   1  13
BRANCH   7  21
ATOM     21  O   UNL     1      -3.282  12.856  20.115  0.00  0.00    +0.000 OA
BRANCH  21  22
ATOM     22  C   UNL     1      -4.130  12.525  21.176  0.00  0.00    +0.000 C 
ATOM     23  O   UNL     1      -3.786  12.323  22.335  0.00  0.00    +0.000 OA
BRANCH  22  24
ATOM     24  C   UNL     1      -5.499  12.531  20.712  0.00  0.00    +0.000 A 
ATOM     25  C   UNL     1      -6.179  13.436  19.914  0.00  0.00    +0.000 A 
ATOM     26  C   UNL     1      -7.461  12.887  19.672  0.00  0.00    +0.000 A 
ATOM     27  C   UNL     1      -7.515  11.714  20.387  0.00  0.00    +0.000 A 
ATOM     28  O   UNL     1      -6.338  11.490  21.023  0.00  0.00    +0.000 OA
ENDBRANCH  22  24
ENDBRANCH  21  22
ENDBRANCH   7  21
TORSDOF 7
ENDMDL
MODEL 9
REMARK VINA RESULT:      -7.1      7.894     10.423
REMARK  Name = 
REMARK  12 active torsions:
REMARK  status: ('A' for Active; 'I' for Inactive)
REMARK    1  A    between atoms: C_1  and  C_2
REMARK    2  A    between atoms: C_2  and  C_3
REMARK    3  A    between atoms: C_4  and  C_5
REMARK    4  A    between atoms: C_5  and  C_6
REMARK    5  A    between atoms: C_6  and  C_7
REMARK    6  A    between atoms: C_7  and  C_8
REMARK    7  A    between atoms: C_7  and  C_9
REMARK    8  A    between atoms: C_12  and  C_13
REMARK    9  A    between atoms: C_15  and  O_16
REMARK   10  A    between atoms: O_16  and  C_17
REMARK   11  A    between atoms: C_17  and  C_19
REMARK   12  A    between atoms: C_25  and  C_26
REMARK                            x       y       z     vdW  Elec       q    Type
REMARK                         _______ _______ _______ _____ _____    ______ ____
ROOT
ATOM      1  C   UNL     1       0.971  10.737  18.509  0.00  0.00    +0.000 C 
ATOM      2  C   UNL     1       1.639  11.978  19.141  0.00  0.00    +0.000 C 
ATOM      3  C   UNL     1       0.976  12.383  20.454  0.00  0.00    +0.000 C 
ATOM      4  C   UNL     1      -0.474  12.799  20.249  0.00  0.00    +0.000 C 
ATOM      5  C   UNL     1      -0.507  14.255  19.760  0.00  0.00    +0.000 C 
ATOM      6  C   UNL     1      -1.222  11.851  19.323  0.00  0.00    +0.000 A 
ATOM      7  C   UNL     1      -2.627  11.988  19.210  0.00  0.00    +0.000 A 
ATOM      8  C   UNL     1      -3.361  11.314  18.238  0.00  0.00    +0.000 A 
ATOM      9  C   UNL     1      -2.702  10.441  17.370  0.00  0.00    +0.000 A 
ATOM     10  C   UNL     1      -3.468   9.798  16.248  0.00  0.00    +0.000 C 
ATOM     11  C   UNL     1      -1.324  10.220  17.529  0.00  0.00    +0.000 A 
ATOM     12  C   UNL     1      -0.557  10.903  18.505  0.00  0.00    +0.000 A 
ENDROOT
BRANCH   1  13
ATOM     13  C   UNL     1       1.655   9.420  19.057  0.00  0.00    +0.000 C 
ATOM     14  C   UNL     1       0.997   8.789  20.290  0.00  0.00    +0.000 C 
BRANCH  13  15
ATOM     15  C   UNL     1       1.969   8.359  17.977  0.00  0.00    +0.000 C 
BRANCH  15  16
ATOM     16  C   UNL     1       2.864   7.230  18.515  0.00  0.00    +0.000 C 
BRANCH  16  20
ATOM     17  C   UNL     1       1.434   3.626  18.253  0.00  0.00    +0.000 C 
ATOM     18  C   UNL     1       1.929   4.905  18.862  0.00  0.00    +0.000 C 
ATOM     19  C   UNL     1       1.853   5.037  20.358  0.00  0.00    +0.000 C 
ATOM     20  C   UNL     1       2.425   5.871  18.067  0.00  0.00    +0.000 C 
ENDBRANCH  16  20
ENDBRANCH  15  16
ENDBRANCH  13  15
ENDBRANCH   1  13
BRANCH   7  21
ATOM     21  O   UNL     1      -3.249  12.925  20.082  0.00  0.00    +0.000 OA
BRANCH  21  22
ATOM     22  C   UNL     1      -3.871  12.631  21.299  0.00  0.00    +0.000 C 
ATOM     23  O   UNL     1      -3.301  12.393  22.357  0.00  0.00    +0.000 OA
BRANCH  22  24
ATOM     24  C   UNL     1      -5.304  12.724  21.136  0.00  0.00    +0.000 A 
ATOM     25  C   UNL     1      -6.201  11.871  20.517  0.00  0.00    +0.000 A 
ATOM     26  C   UNL     1      -7.496  12.387  20.762  0.00  0.00    +0.000 A 
ATOM     27  C   UNL     1      -7.313  13.557  21.459  0.00  0.00    +0.000 A 
ATOM     28  O   UNL     1      -5.994  13.775  21.688  0.00  0.00    +0.000 OA
ENDBRANCH  22  24
ENDBRANCH  21  22
ENDBRANCH   7  21
TORSDOF 7
ENDMDL
