MODEL 1
REMARK VINA RESULT:      -5.7      0.000      0.000
REMARK  Name = 
REMARK  3 active torsions:
REMARK  status: ('A' for Active; 'I' for Inactive)
REMARK    1  A    between atoms: O_1  and  C_2
REMARK    2  A    between atoms: C_2  and  C_3
REMARK    3  A    between atoms: C_5  and  C_6
REMARK                            x       y       z     vdW  Elec       q    Type
REMARK                         _______ _______ _______ _____ _____    ______ ____
ROOT
ATOM      1  C   UNL     1       6.717   4.625  15.902  0.00  0.00    +0.000 A 
ATOM      2  C   UNL     1       6.100   3.741  14.988  0.00  0.00    +0.000 A 
ATOM      3  C   UNL     1       6.552   4.147  13.756  0.00  0.00    +0.000 A 
ATOM      4  O   UNL     1       7.384   5.209  13.917  0.00  0.00    +0.000 OA
ATOM      5  N   UNL     1       7.491   5.515  15.263  0.00  0.00    +0.000 NA
ENDROOT
BRANCH   3   6
ATOM      6  C   UNL     1       6.330   3.687  12.376  0.00  0.00    +0.000 C 
ATOM      7  F   UNL     1       7.001   4.454  11.475  0.00  0.00    +0.000 F 
ATOM      8  F   UNL     1       6.751   2.410  12.183  0.00  0.00    +0.000 F 
ATOM      9  F   UNL     1       5.020   3.732  12.022  0.00  0.00    +0.000 F 
ENDBRANCH   3   6
BRANCH   1  10
ATOM     10  C   UNL     1       6.600   4.657  17.386  0.00  0.00    +0.000 C 
BRANCH  10  11
ATOM     11  O   UNL     1       7.806   4.247  18.033  0.00  0.00    +0.000 OA
ATOM     12  H   UNL     1       8.242   5.060  18.340  0.00  0.00    +0.000 HD
ENDBRANCH  10  11
ENDBRANCH   1  10
TORSDOF 3
ENDMDL
MODEL 2
REMARK VINA RESULT:      -5.6      0.159      1.137
REMARK  Name = 
REMARK  3 active torsions:
REMARK  status: ('A' for Active; 'I' for Inactive)
REMARK    1  A    between atoms: O_1  and  C_2
REMARK    2  A    between atoms: C_2  and  C_3
REMARK    3  A    between atoms: C_5  and  C_6
REMARK                            x       y       z     vdW  Elec       q    Type
REMARK                         _______ _______ _______ _____ _____    ______ ____
ROOT
ATOM      1  C   UNL     1       6.682   4.524  15.968  0.00  0.00    +0.000 A 
ATOM      2  C   UNL     1       6.068   3.723  14.979  0.00  0.00    +0.000 A 
ATOM      3  C   UNL     1       6.607   4.162  13.795  0.00  0.00    +0.000 A 
ATOM      4  O   UNL     1       7.487   5.165  14.053  0.00  0.00    +0.000 OA
ATOM      5  N   UNL     1       7.538   5.397  15.417  0.00  0.00    +0.000 NA
ENDROOT
BRANCH   3   6
ATOM      6  C   UNL     1       6.435   3.784  12.383  0.00  0.00    +0.000 C 
ATOM      7  F   UNL     1       6.904   2.532  12.135  0.00  0.00    +0.000 F 
ATOM      8  F   UNL     1       5.132   3.790  12.002  0.00  0.00    +0.000 F 
ATOM      9  F   UNL     1       7.098   4.619  11.542  0.00  0.00    +0.000 F 
ENDBRANCH   3   6
BRANCH   1  10
ATOM     10  C   UNL     1       6.488   4.489  17.444  0.00  0.00    +0.000 C 
BRANCH  10  11
ATOM     11  O   UNL     1       7.716   4.293  18.148  0.00  0.00    +0.000 OA
ATOM     12  H   UNL     1       7.822   3.332  18.249  0.00  0.00    +0.000 HD
ENDBRANCH  10  11
ENDBRANCH   1  10
TORSDOF 3
ENDMDL
MODEL 3
REMARK VINA RESULT:      -5.6      3.534      4.610
REMARK  Name = 
REMARK  3 active torsions:
REMARK  status: ('A' for Active; 'I' for Inactive)
REMARK    1  A    between atoms: O_1  and  C_2
REMARK    2  A    between atoms: C_2  and  C_3
REMARK    3  A    between atoms: C_5  and  C_6
REMARK                            x       y       z     vdW  Elec       q    Type
REMARK                         _______ _______ _______ _____ _____    ______ ____
ROOT
ATOM      1  C   UNL     1       6.358   4.164  13.988  0.00  0.00    +0.000 A 
ATOM      2  C   UNL     1       6.179   3.812  15.346  0.00  0.00    +0.000 A 
ATOM      3  C   UNL     1       7.010   4.660  16.035  0.00  0.00    +0.000 A 
ATOM      4  O   UNL     1       7.652   5.469  15.151  0.00  0.00    +0.000 OA
ATOM      5  N   UNL     1       7.246   5.162  13.863  0.00  0.00    +0.000 NA
ENDROOT
BRANCH   3   6
ATOM      6  C   UNL     1       7.326   4.860  17.459  0.00  0.00    +0.000 C 
ATOM      7  F   UNL     1       7.660   6.151  17.725  0.00  0.00    +0.000 F 
ATOM      8  F   UNL     1       6.278   4.558  18.267  0.00  0.00    +0.000 F 
ATOM      9  F   UNL     1       8.374   4.098  17.865  0.00  0.00    +0.000 F 
ENDBRANCH   3   6
BRANCH   1  10
ATOM     10  C   UNL     1       5.705   3.582  12.784  0.00  0.00    +0.000 C 
BRANCH  10  11
ATOM     11  O   UNL     1       6.523   2.601  12.145  0.00  0.00    +0.000 OA
ATOM     12  H   UNL     1       6.334   1.757  12.587  0.00  0.00    +0.000 HD
ENDBRANCH  10  11
ENDBRANCH   1  10
TORSDOF 3
ENDMDL
MODEL 4
REMARK VINA RESULT:      -5.5      3.535      4.612
REMARK  Name = 
REMARK  3 active torsions:
REMARK  status: ('A' for Active; 'I' for Inactive)
REMARK    1  A    between atoms: O_1  and  C_2
REMARK    2  A    between atoms: C_2  and  C_3
REMARK    3  A    between atoms: C_5  and  C_6
REMARK                            x       y       z     vdW  Elec       q    Type
REMARK                         _______ _______ _______ _____ _____    ______ ____
ROOT
ATOM      1  C   UNL     1       6.357   4.131  13.998  0.00  0.00    +0.000 A 
ATOM      2  C   UNL     1       6.197   3.775  15.357  0.00  0.00    +0.000 A 
ATOM      3  C   UNL     1       7.020   4.636  16.039  0.00  0.00    +0.000 A 
ATOM      4  O   UNL     1       7.639   5.457  15.149  0.00  0.00    +0.000 OA
ATOM      5  N   UNL     1       7.227   5.143  13.865  0.00  0.00    +0.000 NA
ENDROOT
BRANCH   3   6
ATOM      6  C   UNL     1       7.346   4.840  17.460  0.00  0.00    +0.000 C 
ATOM      7  F   UNL     1       6.304   4.510  18.269  0.00  0.00    +0.000 F 
ATOM      8  F   UNL     1       8.400   4.084  17.861  0.00  0.00    +0.000 F 
ATOM      9  F   UNL     1       7.656   6.133  17.737  0.00  0.00    +0.000 F 
ENDBRANCH   3   6
BRANCH   1  10
ATOM     10  C   UNL     1       5.703   3.539  12.800  0.00  0.00    +0.000 C 
BRANCH  10  11
ATOM     11  O   UNL     1       6.563   2.634  12.104  0.00  0.00    +0.000 OA
ATOM     12  H   UNL     1       6.117   1.770  12.115  0.00  0.00    +0.000 HD
ENDBRANCH  10  11
ENDBRANCH   1  10
TORSDOF 3
ENDMDL
MODEL 5
REMARK VINA RESULT:      -5.5      0.359      1.187
REMARK  Name = 
REMARK  3 active torsions:
REMARK  status: ('A' for Active; 'I' for Inactive)
REMARK    1  A    between atoms: O_1  and  C_2
REMARK    2  A    between atoms: C_2  and  C_3
REMARK    3  A    between atoms: C_5  and  C_6
REMARK                            x       y       z     vdW  Elec       q    Type
REMARK                         _______ _______ _______ _____ _____    ______ ____
ROOT
ATOM      1  C   UNL     1       6.581   4.865  15.918  0.00  0.00    +0.000 A 
ATOM      2  C   UNL     1       5.951   4.010  14.986  0.00  0.00    +0.000 A 
ATOM      3  C   UNL     1       6.588   4.267  13.796  0.00  0.00    +0.000 A 
ATOM      4  O   UNL     1       7.537   5.218  13.998  0.00  0.00    +0.000 OA
ATOM      5  N   UNL     1       7.537   5.599  15.329  0.00  0.00    +0.000 NA
ENDROOT
BRANCH   3   6
ATOM      6  C   UNL     1       6.457   3.746  12.426  0.00  0.00    +0.000 C 
ATOM      7  F   UNL     1       5.165   3.762  12.001  0.00  0.00    +0.000 F 
ATOM      8  F   UNL     1       7.167   4.475  11.527  0.00  0.00    +0.000 F 
ATOM      9  F   UNL     1       6.883   2.461  12.321  0.00  0.00    +0.000 F 
ENDBRANCH   3   6
BRANCH   1  10
ATOM     10  C   UNL     1       6.307   5.015  17.374  0.00  0.00    +0.000 C 
BRANCH  10  11
ATOM     11  O   UNL     1       6.926   3.986  18.149  0.00  0.00    +0.000 OA
ATOM     12  H   UNL     1       7.009   3.215  17.563  0.00  0.00    +0.000 HD
ENDBRANCH  10  11
ENDBRANCH   1  10
TORSDOF 3
ENDMDL
MODEL 6
REMARK VINA RESULT:      -5.4     13.570     14.107
REMARK  Name = 
REMARK  3 active torsions:
REMARK  status: ('A' for Active; 'I' for Inactive)
REMARK    1  A    between atoms: O_1  and  C_2
REMARK    2  A    between atoms: C_2  and  C_3
REMARK    3  A    between atoms: C_5  and  C_6
REMARK                            x       y       z     vdW  Elec       q    Type
REMARK                         _______ _______ _______ _____ _____    ______ ____
ROOT
ATOM      1  C   UNL     1       7.448   5.286  28.161  0.00  0.00    +0.000 A 
ATOM      2  C   UNL     1       8.825   5.461  28.430  0.00  0.00    +0.000 A 
ATOM      3  C   UNL     1       9.436   4.402  27.804  0.00  0.00    +0.000 A 
ATOM      4  O   UNL     1       8.490   3.637  27.200  0.00  0.00    +0.000 OA
ATOM      5  N   UNL     1       7.238   4.187  27.421  0.00  0.00    +0.000 NA
ENDROOT
BRANCH   3   6
ATOM      6  C   UNL     1      10.832   3.957  27.663  0.00  0.00    +0.000 C 
ATOM      7  F   UNL     1      11.695   5.008  27.625  0.00  0.00    +0.000 F 
ATOM      8  F   UNL     1      11.230   3.169  28.694  0.00  0.00    +0.000 F 
ATOM      9  F   UNL     1      11.034   3.251  26.521  0.00  0.00    +0.000 F 
ENDBRANCH   3   6
BRANCH   1  10
ATOM     10  C   UNL     1       6.304   6.139  28.584  0.00  0.00    +0.000 C 
BRANCH  10  11
ATOM     11  O   UNL     1       5.108   5.837  27.863  0.00  0.00    +0.000 OA
ATOM     12  H   UNL     1       5.130   6.381  27.057  0.00  0.00    +0.000 HD
ENDBRANCH  10  11
ENDBRANCH   1  10
TORSDOF 3
ENDMDL
MODEL 7
REMARK VINA RESULT:      -5.4      2.176      2.985
REMARK  Name = 
REMARK  3 active torsions:
REMARK  status: ('A' for Active; 'I' for Inactive)
REMARK    1  A    between atoms: O_1  and  C_2
REMARK    2  A    between atoms: C_2  and  C_3
REMARK    3  A    between atoms: C_5  and  C_6
REMARK                            x       y       z     vdW  Elec       q    Type
REMARK                         _______ _______ _______ _____ _____    ______ ____
ROOT
ATOM      1  C   UNL     1       7.505   5.297  18.216  0.00  0.00    +0.000 A 
ATOM      2  C   UNL     1       6.656   5.734  17.174  0.00  0.00    +0.000 A 
ATOM      3  C   UNL     1       6.954   4.909  16.117  0.00  0.00    +0.000 A 
ATOM      4  O   UNL     1       7.922   4.033  16.497  0.00  0.00    +0.000 OA
ATOM      5  N   UNL     1       8.273   4.273  17.814  0.00  0.00    +0.000 NA
ENDROOT
BRANCH   3   6
ATOM      6  C   UNL     1       6.461   4.788  14.736  0.00  0.00    +0.000 C 
ATOM      7  F   UNL     1       6.197   3.495  14.406  0.00  0.00    +0.000 F 
ATOM      8  F   UNL     1       5.309   5.479  14.536  0.00  0.00    +0.000 F 
ATOM      9  F   UNL     1       7.360   5.242  13.826  0.00  0.00    +0.000 F 
ENDBRANCH   3   6
BRANCH   1  10
ATOM     10  C   UNL     1       7.617   5.821  19.605  0.00  0.00    +0.000 C 
BRANCH  10  11
ATOM     11  O   UNL     1       8.654   5.176  20.346  0.00  0.00    +0.000 OA
ATOM     12  H   UNL     1       9.450   5.724  20.235  0.00  0.00    +0.000 HD
ENDBRANCH  10  11
ENDBRANCH   1  10
TORSDOF 3
ENDMDL
MODEL 8
REMARK VINA RESULT:      -5.4      3.461      4.540
REMARK  Name = 
REMARK  3 active torsions:
REMARK  status: ('A' for Active; 'I' for Inactive)
REMARK    1  A    between atoms: O_1  and  C_2
REMARK    2  A    between atoms: C_2  and  C_3
REMARK    3  A    between atoms: C_5  and  C_6
REMARK                            x       y       z     vdW  Elec       q    Type
REMARK                         _______ _______ _______ _____ _____    ______ ____
ROOT
ATOM      1  C   UNL     1       6.462   4.245  13.750  0.00  0.00    +0.000 A 
ATOM      2  C   UNL     1       6.230   3.803  15.073  0.00  0.00    +0.000 A 
ATOM      3  C   UNL     1       6.988   4.639  15.854  0.00  0.00    +0.000 A 
ATOM      4  O   UNL     1       7.637   5.526  15.055  0.00  0.00    +0.000 OA
ATOM      5  N   UNL     1       7.311   5.283  13.732  0.00  0.00    +0.000 NA
ENDROOT
BRANCH   3   6
ATOM      6  C   UNL     1       7.223   4.763  17.302  0.00  0.00    +0.000 C 
ATOM      7  F   UNL     1       8.315   4.056  17.698  0.00  0.00    +0.000 F 
ATOM      8  F   UNL     1       7.438   6.049  17.682  0.00  0.00    +0.000 F 
ATOM      9  F   UNL     1       6.178   4.301  18.035  0.00  0.00    +0.000 F 
ENDBRANCH   3   6
BRANCH   1  10
ATOM     10  C   UNL     1       5.896   3.712  12.481  0.00  0.00    +0.000 C 
BRANCH  10  11
ATOM     11  O   UNL     1       6.146   2.315  12.320  0.00  0.00    +0.000 OA
ATOM     12  H   UNL     1       7.093   2.185  12.499  0.00  0.00    +0.000 HD
ENDBRANCH  10  11
ENDBRANCH   1  10
TORSDOF 3
ENDMDL
MODEL 9
REMARK VINA RESULT:      -5.3      6.174      7.379
REMARK  Name = 
REMARK  3 active torsions:
REMARK  status: ('A' for Active; 'I' for Inactive)
REMARK    1  A    between atoms: O_1  and  C_2
REMARK    2  A    between atoms: C_2  and  C_3
REMARK    3  A    between atoms: C_5  and  C_6
REMARK                            x       y       z     vdW  Elec       q    Type
REMARK                         _______ _______ _______ _____ _____    ______ ____
ROOT
ATOM      1  C   UNL     1       4.451   3.859  18.719  0.00  0.00    +0.000 A 
ATOM      2  C   UNL     1       3.071   4.163  18.683  0.00  0.00    +0.000 A 
ATOM      3  C   UNL     1       2.523   3.400  19.684  0.00  0.00    +0.000 A 
ATOM      4  O   UNL     1       3.508   2.679  20.283  0.00  0.00    +0.000 OA
ATOM      5  N   UNL     1       4.721   2.963  19.680  0.00  0.00    +0.000 NA
ENDROOT
BRANCH   3   6
ATOM      6  C   UNL     1       1.160   3.217  20.211  0.00  0.00    +0.000 C 
ATOM      7  F   UNL     1       1.157   2.490  21.360  0.00  0.00    +0.000 F 
ATOM      8  F   UNL     1       0.557   4.398  20.501  0.00  0.00    +0.000 F 
ATOM      9  F   UNL     1       0.354   2.562  19.337  0.00  0.00    +0.000 F 
ENDBRANCH   3   6
BRANCH   1  10
ATOM     10  C   UNL     1       5.543   4.398  17.863  0.00  0.00    +0.000 C 
BRANCH  10  11
ATOM     11  O   UNL     1       6.838   4.120  18.399  0.00  0.00    +0.000 OA
ATOM     12  H   UNL     1       7.075   3.228  18.094  0.00  0.00    +0.000 HD
ENDBRANCH  10  11
ENDBRANCH   1  10
TORSDOF 3
ENDMDL
