MODEL 1
REMARK VINA RESULT:      -8.4      0.000      0.000
REMARK  Name = 
REMARK  7 active torsions:
REMARK  status: ('A' for Active; 'I' for Inactive)
REMARK    1  A    between atoms: C_1  and  C_2
REMARK    2  A    between atoms: N_7  and  C_8
REMARK    3  A    between atoms: C_8  and  C_9
REMARK    4  A    between atoms: C_9  and  C_10
REMARK    5  A    between atoms: C_10  and  C_11
REMARK    6  A    between atoms: C_11  and  C_12
REMARK    7  A    between atoms: C_12  and  C_13
REMARK                            x       y       z     vdW  Elec       q    Type
REMARK                         _______ _______ _______ _____ _____    ______ ____
ROOT
ATOM      1  C   UNL     1       5.559   5.087  18.116  0.00  0.00    +0.000 C 
ATOM      2  O   UNL     1       6.128   4.048  18.457  0.00  0.00    +0.000 OA
ATOM      3  N   UNL     1       4.313   5.377  18.630  0.00  0.00    +0.000 N 
ATOM      4  C   UNL     1       3.546   6.525  18.474  0.00  0.00    +0.000 A 
ATOM      5  C   UNL     1       3.769   7.668  17.685  0.00  0.00    +0.000 A 
ATOM      6  C   UNL     1       2.837   8.715  17.725  0.00  0.00    +0.000 A 
ATOM      7  C   UNL     1       1.697   8.626  18.537  0.00  0.00    +0.000 A 
ATOM      8  C   UNL     1       1.469   7.480  19.313  0.00  0.00    +0.000 A 
ATOM      9  C   UNL     1       2.408   6.440  19.255  0.00  0.00    +0.000 A 
ATOM     10  C   UNL     1       2.434   5.221  19.884  0.00  0.00    +0.000 A 
ATOM     11  C   UNL     1       1.552   4.633  20.789  0.00  0.00    +0.000 A 
ATOM     12  C   UNL     1       1.871   3.359  21.289  0.00  0.00    +0.000 A 
ATOM     13  C   UNL     1       3.044   2.701  20.877  0.00  0.00    +0.000 A 
ATOM     14  C   UNL     1       3.914   3.308  19.966  0.00  0.00    +0.000 A 
ATOM     15  C   UNL     1       3.591   4.594  19.476  0.00  0.00    +0.000 A 
ENDROOT
BRANCH   1  16
ATOM     16  C   UNL     1       6.326   6.036  17.250  0.00  0.00    +0.000 C 
BRANCH  16  17
ATOM     17  C   UNL     1       7.531   6.595  17.945  0.00  0.00    +0.000 C 
BRANCH  17  18
ATOM     18  C   UNL     1       7.734   8.045  17.548  0.00  0.00    +0.000 C 
BRANCH  18  19
ATOM     19  C   UNL     1       8.561   8.732  18.615  0.00  0.00    +0.000 C 
BRANCH  19  20
ATOM     20  C   UNL     1       8.732  10.221  18.293  0.00  0.00    +0.000 C 
BRANCH  20  27
ATOM     21  C   UNL     1      10.669  15.138  20.693  0.00  0.00    +0.000 C 
ATOM     22  C   UNL     1      10.423  14.669  19.299  0.00  0.00    +0.000 C 
ATOM     23  O   UNL     1      10.967  15.300  18.386  0.00  0.00    +0.000 OA
ATOM     24  N   UNL     1       9.760  13.514  19.013  0.00  0.00    +0.000 N 
ATOM     25  C   UNL     1       9.750  12.970  17.675  0.00  0.00    +0.000 C 
ATOM     26  C   UNL     1      10.594  11.686  17.748  0.00  0.00    +0.000 C 
ATOM     27  N   UNL     1      10.048  10.734  18.742  0.00  0.00    +0.000 NA
ATOM     28  C   UNL     1      10.013  11.370  20.084  0.00  0.00    +0.000 C 
ATOM     29  C   UNL     1       9.189  12.657  20.065  0.00  0.00    +0.000 C 
ENDBRANCH  20  27
ENDBRANCH  19  20
ENDBRANCH  18  19
ENDBRANCH  17  18
ENDBRANCH  16  17
ENDBRANCH   1  16
TORSDOF 6
ENDMDL
MODEL 2
REMARK VINA RESULT:      -8.3      0.935      1.039
REMARK  Name = 
REMARK  7 active torsions:
REMARK  status: ('A' for Active; 'I' for Inactive)
REMARK    1  A    between atoms: C_1  and  C_2
REMARK    2  A    between atoms: N_7  and  C_8
REMARK    3  A    between atoms: C_8  and  C_9
REMARK    4  A    between atoms: C_9  and  C_10
REMARK    5  A    between atoms: C_10  and  C_11
REMARK    6  A    between atoms: C_11  and  C_12
REMARK    7  A    between atoms: C_12  and  C_13
REMARK                            x       y       z     vdW  Elec       q    Type
REMARK                         _______ _______ _______ _____ _____    ______ ____
ROOT
ATOM      1  C   UNL     1       6.082   5.215  17.989  0.00  0.00    +0.000 C 
ATOM      2  O   UNL     1       6.763   4.242  18.321  0.00  0.00    +0.000 OA
ATOM      3  N   UNL     1       4.796   5.338  18.471  0.00  0.00    +0.000 N 
ATOM      4  C   UNL     1       3.902   6.390  18.323  0.00  0.00    +0.000 A 
ATOM      5  C   UNL     1       4.008   7.576  17.572  0.00  0.00    +0.000 A 
ATOM      6  C   UNL     1       2.956   8.502  17.610  0.00  0.00    +0.000 A 
ATOM      7  C   UNL     1       1.812   8.253  18.383  0.00  0.00    +0.000 A 
ATOM      8  C   UNL     1       1.702   7.064  19.121  0.00  0.00    +0.000 A 
ATOM      9  C   UNL     1       2.760   6.146  19.064  0.00  0.00    +0.000 A 
ATOM     10  C   UNL     1       2.916   4.921  19.661  0.00  0.00    +0.000 A 
ATOM     11  C   UNL     1       2.086   4.204  20.521  0.00  0.00    +0.000 A 
ATOM     12  C   UNL     1       2.541   2.963  20.997  0.00  0.00    +0.000 A 
ATOM     13  C   UNL     1       3.796   2.463  20.605  0.00  0.00    +0.000 A 
ATOM     14  C   UNL     1       4.613   3.196  19.738  0.00  0.00    +0.000 A 
ATOM     15  C   UNL     1       4.151   4.449  19.273  0.00  0.00    +0.000 A 
ENDROOT
BRANCH   1  16
ATOM     16  C   UNL     1       6.754   6.274  17.175  0.00  0.00    +0.000 C 
BRANCH  16  17
ATOM     17  C   UNL     1       7.825   6.990  17.941  0.00  0.00    +0.000 C 
BRANCH  17  18
ATOM     18  C   UNL     1       7.737   8.483  17.687  0.00  0.00    +0.000 C 
BRANCH  18  19
ATOM     19  C   UNL     1       8.651   9.199  18.661  0.00  0.00    +0.000 C 
BRANCH  19  20
ATOM     20  C   UNL     1       9.232  10.468  18.027  0.00  0.00    +0.000 C 
BRANCH  20  27
ATOM     21  C   UNL     1      10.442  16.126  18.484  0.00  0.00    +0.000 C 
ATOM     22  C   UNL     1      11.116  14.948  17.866  0.00  0.00    +0.000 C 
ATOM     23  O   UNL     1      12.319  15.060  17.601  0.00  0.00    +0.000 OA
ATOM     24  N   UNL     1      10.508  13.738  17.722  0.00  0.00    +0.000 N 
ATOM     25  C   UNL     1      11.260  12.564  17.345  0.00  0.00    +0.000 C 
ATOM     26  C   UNL     1      11.270  11.665  18.592  0.00  0.00    +0.000 C 
ATOM     27  N   UNL     1       9.896  11.331  19.032  0.00  0.00    +0.000 NA
ATOM     28  C   UNL     1       9.147  12.576  19.336  0.00  0.00    +0.000 C 
ATOM     29  C   UNL     1       9.111  13.510  18.126  0.00  0.00    +0.000 C 
ENDBRANCH  20  27
ENDBRANCH  19  20
ENDBRANCH  18  19
ENDBRANCH  17  18
ENDBRANCH  16  17
ENDBRANCH   1  16
TORSDOF 6
ENDMDL
MODEL 3
REMARK VINA RESULT:      -8.2      5.509      8.068
REMARK  Name = 
REMARK  7 active torsions:
REMARK  status: ('A' for Active; 'I' for Inactive)
REMARK    1  A    between atoms: C_1  and  C_2
REMARK    2  A    between atoms: N_7  and  C_8
REMARK    3  A    between atoms: C_8  and  C_9
REMARK    4  A    between atoms: C_9  and  C_10
REMARK    5  A    between atoms: C_10  and  C_11
REMARK    6  A    between atoms: C_11  and  C_12
REMARK    7  A    between atoms: C_12  and  C_13
REMARK                            x       y       z     vdW  Elec       q    Type
REMARK                         _______ _______ _______ _____ _____    ______ ____
ROOT
ATOM      1  C   UNL     1       2.464   7.548  18.918  0.00  0.00    +0.000 C 
ATOM      2  O   UNL     1       1.638   7.728  19.815  0.00  0.00    +0.000 OA
ATOM      3  N   UNL     1       2.954   6.279  18.692  0.00  0.00    +0.000 N 
ATOM      4  C   UNL     1       3.793   5.830  17.680  0.00  0.00    +0.000 A 
ATOM      5  C   UNL     1       4.454   6.544  16.663  0.00  0.00    +0.000 A 
ATOM      6  C   UNL     1       5.237   5.840  15.736  0.00  0.00    +0.000 A 
ATOM      7  C   UNL     1       5.364   4.446  15.822  0.00  0.00    +0.000 A 
ATOM      8  C   UNL     1       4.716   3.737  16.845  0.00  0.00    +0.000 A 
ATOM      9  C   UNL     1       3.943   4.458  17.766  0.00  0.00    +0.000 A 
ATOM     10  C   UNL     1       3.223   4.036  18.855  0.00  0.00    +0.000 A 
ATOM     11  C   UNL     1       3.016   2.764  19.385  0.00  0.00    +0.000 A 
ATOM     12  C   UNL     1       2.190   2.646  20.516  0.00  0.00    +0.000 A 
ATOM     13  C   UNL     1       1.600   3.785  21.093  0.00  0.00    +0.000 A 
ATOM     14  C   UNL     1       1.823   5.053  20.548  0.00  0.00    +0.000 A 
ATOM     15  C   UNL     1       2.647   5.162  19.404  0.00  0.00    +0.000 A 
ENDROOT
BRANCH   1  16
ATOM     16  C   UNL     1       2.788   8.716  18.041  0.00  0.00    +0.000 C 
BRANCH  16  17
ATOM     17  C   UNL     1       1.647   9.683  17.934  0.00  0.00    +0.000 C 
BRANCH  17  18
ATOM     18  C   UNL     1       2.158  11.105  18.054  0.00  0.00    +0.000 C 
BRANCH  18  19
ATOM     19  C   UNL     1       1.150  11.923  18.835  0.00  0.00    +0.000 C 
BRANCH  19  20
ATOM     20  C   UNL     1       0.939  11.333  20.234  0.00  0.00    +0.000 C 
BRANCH  20  27
ATOM     21  C   UNL     1      -4.385  12.838  21.986  0.00  0.00    +0.000 C 
ATOM     22  C   UNL     1      -3.154  12.337  22.662  0.00  0.00    +0.000 C 
ATOM     23  O   UNL     1      -3.284  11.862  23.796  0.00  0.00    +0.000 OA
ATOM     24  N   UNL     1      -1.949  12.251  22.033  0.00  0.00    +0.000 N 
ATOM     25  C   UNL     1      -0.842  11.542  22.633  0.00  0.00    +0.000 C 
ATOM     26  C   UNL     1      -0.637  10.291  21.764  0.00  0.00    +0.000 C 
ATOM     27  N   UNL     1      -0.370  10.649  20.352  0.00  0.00    +0.000 NA
ATOM     28  C   UNL     1      -1.505  11.437  19.809  0.00  0.00    +0.000 C 
ATOM     29  C   UNL     1      -1.756  12.693  20.643  0.00  0.00    +0.000 C 
ENDBRANCH  20  27
ENDBRANCH  19  20
ENDBRANCH  18  19
ENDBRANCH  17  18
ENDBRANCH  16  17
ENDBRANCH   1  16
TORSDOF 6
ENDMDL
MODEL 4
REMARK VINA RESULT:      -8.2      2.175      3.308
REMARK  Name = 
REMARK  7 active torsions:
REMARK  status: ('A' for Active; 'I' for Inactive)
REMARK    1  A    between atoms: C_1  and  C_2
REMARK    2  A    between atoms: N_7  and  C_8
REMARK    3  A    between atoms: C_8  and  C_9
REMARK    4  A    between atoms: C_9  and  C_10
REMARK    5  A    between atoms: C_10  and  C_11
REMARK    6  A    between atoms: C_11  and  C_12
REMARK    7  A    between atoms: C_12  and  C_13
REMARK                            x       y       z     vdW  Elec       q    Type
REMARK                         _______ _______ _______ _____ _____    ______ ____
ROOT
ATOM      1  C   UNL     1       6.696   5.447  18.778  0.00  0.00    +0.000 C 
ATOM      2  O   UNL     1       6.292   5.581  19.935  0.00  0.00    +0.000 OA
ATOM      3  N   UNL     1       5.896   4.815  17.850  0.00  0.00    +0.000 N 
ATOM      4  C   UNL     1       6.097   4.654  16.485  0.00  0.00    +0.000 A 
ATOM      5  C   UNL     1       7.198   4.998  15.680  0.00  0.00    +0.000 A 
ATOM      6  C   UNL     1       7.140   4.746  14.302  0.00  0.00    +0.000 A 
ATOM      7  C   UNL     1       6.002   4.157  13.732  0.00  0.00    +0.000 A 
ATOM      8  C   UNL     1       4.909   3.801  14.537  0.00  0.00    +0.000 A 
ATOM      9  C   UNL     1       4.989   4.054  15.914  0.00  0.00    +0.000 A 
ATOM     10  C   UNL     1       4.094   3.805  16.923  0.00  0.00    +0.000 A 
ATOM     11  C   UNL     1       2.822   3.237  16.906  0.00  0.00    +0.000 A 
ATOM     12  C   UNL     1       2.125   3.138  18.123  0.00  0.00    +0.000 A 
ATOM     13  C   UNL     1       2.707   3.593  19.319  0.00  0.00    +0.000 A 
ATOM     14  C   UNL     1       3.987   4.156  19.316  0.00  0.00    +0.000 A 
ATOM     15  C   UNL     1       4.676   4.262  18.086  0.00  0.00    +0.000 A 
ENDROOT
BRANCH   1  16
ATOM     16  C   UNL     1       7.995   6.101  18.427  0.00  0.00    +0.000 C 
BRANCH  16  17
ATOM     17  C   UNL     1       7.812   7.506  17.936  0.00  0.00    +0.000 C 
BRANCH  17  18
ATOM     18  C   UNL     1       8.613   8.465  18.795  0.00  0.00    +0.000 C 
BRANCH  18  19
ATOM     19  C   UNL     1       8.602   9.832  18.140  0.00  0.00    +0.000 C 
BRANCH  19  20
ATOM     20  C   UNL     1       9.649  10.749  18.783  0.00  0.00    +0.000 C 
BRANCH  20  27
ATOM     21  C   UNL     1      12.326  15.877  19.252  0.00  0.00    +0.000 C 
ATOM     22  C   UNL     1      10.907  15.420  19.286  0.00  0.00    +0.000 C 
ATOM     23  O   UNL     1      10.033  16.276  19.111  0.00  0.00    +0.000 OA
ATOM     24  N   UNL     1      10.555  14.106  19.356  0.00  0.00    +0.000 N 
ATOM     25  C   UNL     1       9.189  13.687  19.146  0.00  0.00    +0.000 C 
ATOM     26  C   UNL     1       9.194  12.929  17.808  0.00  0.00    +0.000 C 
ATOM     27  N   UNL     1      10.131  11.783  17.837  0.00  0.00    +0.000 NA
ATOM     28  C   UNL     1      11.505  12.262  18.129  0.00  0.00    +0.000 C 
ATOM     29  C   UNL     1      11.555  13.030  19.450  0.00  0.00    +0.000 C 
ENDBRANCH  20  27
ENDBRANCH  19  20
ENDBRANCH  18  19
ENDBRANCH  17  18
ENDBRANCH  16  17
ENDBRANCH   1  16
TORSDOF 6
ENDMDL
MODEL 5
REMARK VINA RESULT:      -8.1      2.064     10.371
REMARK  Name = 
REMARK  7 active torsions:
REMARK  status: ('A' for Active; 'I' for Inactive)
REMARK    1  A    between atoms: C_1  and  C_2
REMARK    2  A    between atoms: N_7  and  C_8
REMARK    3  A    between atoms: C_8  and  C_9
REMARK    4  A    between atoms: C_9  and  C_10
REMARK    5  A    between atoms: C_10  and  C_11
REMARK    6  A    between atoms: C_11  and  C_12
REMARK    7  A    between atoms: C_12  and  C_13
REMARK                            x       y       z     vdW  Elec       q    Type
REMARK                         _______ _______ _______ _____ _____    ______ ____
ROOT
ATOM      1  C   UNL     1       9.914  11.156  18.865  0.00  0.00    +0.000 C 
ATOM      2  O   UNL     1      10.374  11.172  17.722  0.00  0.00    +0.000 OA
ATOM      3  N   UNL     1      10.049  12.270  19.666  0.00  0.00    +0.000 N 
ATOM      4  C   UNL     1       9.519  12.513  20.927  0.00  0.00    +0.000 A 
ATOM      5  C   UNL     1       8.783  11.672  21.782  0.00  0.00    +0.000 A 
ATOM      6  C   UNL     1       8.337  12.175  23.013  0.00  0.00    +0.000 A 
ATOM      7  C   UNL     1       8.622  13.495  23.390  0.00  0.00    +0.000 A 
ATOM      8  C   UNL     1       9.369  14.329  22.543  0.00  0.00    +0.000 A 
ATOM      9  C   UNL     1       9.812  13.807  21.320  0.00  0.00    +0.000 A 
ATOM     10  C   UNL     1      10.556  14.378  20.319  0.00  0.00    +0.000 A 
ATOM     11  C   UNL     1      11.097  15.656  20.190  0.00  0.00    +0.000 A 
ATOM     12  C   UNL     1      11.802  15.959  19.012  0.00  0.00    +0.000 A 
ATOM     13  C   UNL     1      11.960  14.991  18.004  0.00  0.00    +0.000 A 
ATOM     14  C   UNL     1      11.414  13.713  18.155  0.00  0.00    +0.000 A 
ATOM     15  C   UNL     1      10.696  13.421  19.338  0.00  0.00    +0.000 A 
ENDROOT
BRANCH   1  16
ATOM     16  C   UNL     1       9.118   9.954  19.266  0.00  0.00    +0.000 C 
BRANCH  16  17
ATOM     17  C   UNL     1       8.426   9.314  18.101  0.00  0.00    +0.000 C 
BRANCH  17  18
ATOM     18  C   UNL     1       8.097   7.869  18.421  0.00  0.00    +0.000 C 
BRANCH  18  19
ATOM     19  C   UNL     1       7.530   7.210  17.181  0.00  0.00    +0.000 C 
BRANCH  19  20
ATOM     20  C   UNL     1       6.636   6.022  17.557  0.00  0.00    +0.000 C 
BRANCH  20  27
ATOM     21  C   UNL     1       1.399   3.897  18.877  0.00  0.00    +0.000 C 
ATOM     22  C   UNL     1       2.547   3.435  18.044  0.00  0.00    +0.000 C 
ATOM     23  O   UNL     1       2.322   2.549  17.212  0.00  0.00    +0.000 OA
ATOM     24  N   UNL     1       3.766   4.041  18.064  0.00  0.00    +0.000 N 
ATOM     25  C   UNL     1       4.774   3.725  17.079  0.00  0.00    +0.000 C 
ATOM     26  C   UNL     1       4.903   4.984  16.205  0.00  0.00    +0.000 C 
ATOM     27  N   UNL     1       5.266   6.171  17.014  0.00  0.00    +0.000 NA
ATOM     28  C   UNL     1       4.234   6.405  18.056  0.00  0.00    +0.000 C 
ATOM     29  C   UNL     1       4.062   5.178  18.951  0.00  0.00    +0.000 C 
ENDBRANCH  20  27
ENDBRANCH  19  20
ENDBRANCH  18  19
ENDBRANCH  17  18
ENDBRANCH  16  17
ENDBRANCH   1  16
TORSDOF 6
ENDMDL
MODEL 6
REMARK VINA RESULT:      -8.0      5.631      8.426
REMARK  Name = 
REMARK  7 active torsions:
REMARK  status: ('A' for Active; 'I' for Inactive)
REMARK    1  A    between atoms: C_1  and  C_2
REMARK    2  A    between atoms: N_7  and  C_8
REMARK    3  A    between atoms: C_8  and  C_9
REMARK    4  A    between atoms: C_9  and  C_10
REMARK    5  A    between atoms: C_10  and  C_11
REMARK    6  A    between atoms: C_11  and  C_12
REMARK    7  A    between atoms: C_12  and  C_13
REMARK                            x       y       z     vdW  Elec       q    Type
REMARK                         _______ _______ _______ _____ _____    ______ ____
ROOT
ATOM      1  C   UNL     1       2.438   7.520  19.084  0.00  0.00    +0.000 C 
ATOM      2  O   UNL     1       1.639   7.632  20.017  0.00  0.00    +0.000 OA
ATOM      3  N   UNL     1       3.048   6.305  18.855  0.00  0.00    +0.000 N 
ATOM      4  C   UNL     1       3.882   5.925  17.812  0.00  0.00    +0.000 A 
ATOM      5  C   UNL     1       4.416   6.682  16.753  0.00  0.00    +0.000 A 
ATOM      6  C   UNL     1       5.226   6.045  15.801  0.00  0.00    +0.000 A 
ATOM      7  C   UNL     1       5.503   4.674  15.903  0.00  0.00    +0.000 A 
ATOM      8  C   UNL     1       4.981   3.923  16.967  0.00  0.00    +0.000 A 
ATOM      9  C   UNL     1       4.179   4.579  17.912  0.00  0.00    +0.000 A 
ATOM     10  C   UNL     1       3.558   4.107  19.041  0.00  0.00    +0.000 A 
ATOM     11  C   UNL     1       3.511   2.831  19.601  0.00  0.00    +0.000 A 
ATOM     12  C   UNL     1       2.755   2.651  20.771  0.00  0.00    +0.000 A 
ATOM     13  C   UNL     1       2.075   3.734  21.358  0.00  0.00    +0.000 A 
ATOM     14  C   UNL     1       2.138   5.006  20.783  0.00  0.00    +0.000 A 
ATOM     15  C   UNL     1       2.893   5.177  19.599  0.00  0.00    +0.000 A 
ENDROOT
BRANCH   1  16
ATOM     16  C   UNL     1       2.596   8.697  18.174  0.00  0.00    +0.000 C 
BRANCH  16  17
ATOM     17  C   UNL     1       1.283   9.333  17.829  0.00  0.00    +0.000 C 
BRANCH  17  18
ATOM     18  C   UNL     1       1.073  10.580  18.667  0.00  0.00    +0.000 C 
BRANCH  18  19
ATOM     19  C   UNL     1      -0.415  10.805  18.842  0.00  0.00    +0.000 C 
BRANCH  19  20
ATOM     20  C   UNL     1      -0.786  10.848  20.329  0.00  0.00    +0.000 C 
BRANCH  20  27
ATOM     21  C   UNL     1      -3.524  13.845  24.476  0.00  0.00    +0.000 C 
ATOM     22  C   UNL     1      -3.771  13.576  23.031  0.00  0.00    +0.000 C 
ATOM     23  O   UNL     1      -4.561  14.324  22.442  0.00  0.00    +0.000 OA
ATOM     24  N   UNL     1      -3.065  12.654  22.319  0.00  0.00    +0.000 N 
ATOM     25  C   UNL     1      -3.161  12.588  20.880  0.00  0.00    +0.000 C 
ATOM     26  C   UNL     1      -1.794  13.059  20.355  0.00  0.00    +0.000 C 
ATOM     27  N   UNL     1      -0.693  12.220  20.881  0.00  0.00    +0.000 NA
ATOM     28  C   UNL     1      -0.687  12.266  22.365  0.00  0.00    +0.000 C 
ATOM     29  C   UNL     1      -2.029  11.812  22.938  0.00  0.00    +0.000 C 
ENDBRANCH  20  27
ENDBRANCH  19  20
ENDBRANCH  18  19
ENDBRANCH  17  18
ENDBRANCH  16  17
ENDBRANCH   1  16
TORSDOF 6
ENDMDL
MODEL 7
REMARK VINA RESULT:      -8.0      5.611      8.869
REMARK  Name = 
REMARK  7 active torsions:
REMARK  status: ('A' for Active; 'I' for Inactive)
REMARK    1  A    between atoms: C_1  and  C_2
REMARK    2  A    between atoms: N_7  and  C_8
REMARK    3  A    between atoms: C_8  and  C_9
REMARK    4  A    between atoms: C_9  and  C_10
REMARK    5  A    between atoms: C_10  and  C_11
REMARK    6  A    between atoms: C_11  and  C_12
REMARK    7  A    between atoms: C_12  and  C_13
REMARK                            x       y       z     vdW  Elec       q    Type
REMARK                         _______ _______ _______ _____ _____    ______ ____
ROOT
ATOM      1  C   UNL     1       2.566   7.309  18.883  0.00  0.00    +0.000 C 
ATOM      2  O   UNL     1       1.766   7.453  19.810  0.00  0.00    +0.000 OA
ATOM      3  N   UNL     1       3.200   6.096  18.717  0.00  0.00    +0.000 N 
ATOM      4  C   UNL     1       4.041   5.679  17.693  0.00  0.00    +0.000 A 
ATOM      5  C   UNL     1       4.559   6.390  16.595  0.00  0.00    +0.000 A 
ATOM      6  C   UNL     1       5.381   5.721  15.676  0.00  0.00    +0.000 A 
ATOM      7  C   UNL     1       5.685   4.363  15.849  0.00  0.00    +0.000 A 
ATOM      8  C   UNL     1       5.179   3.658  16.952  0.00  0.00    +0.000 A 
ATOM      9  C   UNL     1       4.366   4.346  17.863  0.00  0.00    +0.000 A 
ATOM     10  C   UNL     1       3.755   3.921  19.016  0.00  0.00    +0.000 A 
ATOM     11  C   UNL     1       3.735   2.676  19.642  0.00  0.00    +0.000 A 
ATOM     12  C   UNL     1       2.983   2.542  20.822  0.00  0.00    +0.000 A 
ATOM     13  C   UNL     1       2.282   3.640  21.352  0.00  0.00    +0.000 A 
ATOM     14  C   UNL     1       2.319   4.882  20.711  0.00  0.00    +0.000 A 
ATOM     15  C   UNL     1       3.069   5.005  19.519  0.00  0.00    +0.000 A 
ENDROOT
BRANCH   1  16
ATOM     16  C   UNL     1       2.699   8.440  17.913  0.00  0.00    +0.000 C 
BRANCH  16  17
ATOM     17  C   UNL     1       1.457   9.273  17.834  0.00  0.00    +0.000 C 
BRANCH  17  18
ATOM     18  C   UNL     1       1.703  10.636  18.453  0.00  0.00    +0.000 C 
BRANCH  18  19
ATOM     19  C   UNL     1       0.528  10.988  19.342  0.00  0.00    +0.000 C 
BRANCH  19  20
ATOM     20  C   UNL     1      -0.795  10.595  18.674  0.00  0.00    +0.000 C 
BRANCH  20  27
ATOM     21  C   UNL     1      -5.845  13.386  19.296  0.00  0.00    +0.000 C 
ATOM     22  C   UNL     1      -5.386  12.192  18.529  0.00  0.00    +0.000 C 
ATOM     23  O   UNL     1      -6.102  11.809  17.597  0.00  0.00    +0.000 OA
ATOM     24  N   UNL     1      -4.168  11.615  18.721  0.00  0.00    +0.000 N 
ATOM     25  C   UNL     1      -3.661  10.619  17.804  0.00  0.00    +0.000 C 
ATOM     26  C   UNL     1      -2.487  11.293  17.075  0.00  0.00    +0.000 C 
ATOM     27  N   UNL     1      -1.450  11.755  18.026  0.00  0.00    +0.000 NA
ATOM     28  C   UNL     1      -2.042  12.719  18.989  0.00  0.00    +0.000 C 
ATOM     29  C   UNL     1      -3.221  12.099  19.738  0.00  0.00    +0.000 C 
ENDBRANCH  20  27
ENDBRANCH  19  20
ENDBRANCH  18  19
ENDBRANCH  17  18
ENDBRANCH  16  17
ENDBRANCH   1  16
TORSDOF 6
ENDMDL
MODEL 8
REMARK VINA RESULT:      -8.0      4.641      7.713
REMARK  Name = 
REMARK  7 active torsions:
REMARK  status: ('A' for Active; 'I' for Inactive)
REMARK    1  A    between atoms: C_1  and  C_2
REMARK    2  A    between atoms: N_7  and  C_8
REMARK    3  A    between atoms: C_8  and  C_9
REMARK    4  A    between atoms: C_9  and  C_10
REMARK    5  A    between atoms: C_10  and  C_11
REMARK    6  A    between atoms: C_11  and  C_12
REMARK    7  A    between atoms: C_12  and  C_13
REMARK                            x       y       z     vdW  Elec       q    Type
REMARK                         _______ _______ _______ _____ _____    ______ ____
ROOT
ATOM      1  C   UNL     1       1.624   7.938  19.933  0.00  0.00    +0.000 C 
ATOM      2  O   UNL     1       2.239   7.703  18.891  0.00  0.00    +0.000 OA
ATOM      3  N   UNL     1       1.242   9.232  20.218  0.00  0.00    +0.000 N 
ATOM      4  C   UNL     1       0.457   9.704  21.262  0.00  0.00    +0.000 A 
ATOM      5  C   UNL     1      -0.089   9.028  22.368  0.00  0.00    +0.000 A 
ATOM      6  C   UNL     1      -0.878   9.742  23.282  0.00  0.00    +0.000 A 
ATOM      7  C   UNL     1      -1.118  11.111  23.099  0.00  0.00    +0.000 A 
ATOM      8  C   UNL     1      -0.562  11.788  22.003  0.00  0.00    +0.000 A 
ATOM      9  C   UNL     1       0.230  11.059  21.104  0.00  0.00    +0.000 A 
ATOM     10  C   UNL     1       0.898  11.457  19.974  0.00  0.00    +0.000 A 
ATOM     11  C   UNL     1       0.994  12.699  19.350  0.00  0.00    +0.000 A 
ATOM     12  C   UNL     1       1.745  12.788  18.166  0.00  0.00    +0.000 A 
ATOM     13  C   UNL     1       2.386  11.652  17.638  0.00  0.00    +0.000 A 
ATOM     14  C   UNL     1       2.280  10.415  18.282  0.00  0.00    +0.000 A 
ATOM     15  C   UNL     1       1.513  10.333  19.467  0.00  0.00    +0.000 A 
ENDROOT
BRANCH   1  16
ATOM     16  C   UNL     1       1.220   6.765  20.769  0.00  0.00    +0.000 C 
BRANCH  16  17
ATOM     17  C   UNL     1       2.042   5.546  20.476  0.00  0.00    +0.000 C 
BRANCH  17  18
ATOM     18  C   UNL     1       1.136   4.357  20.219  0.00  0.00    +0.000 C 
BRANCH  18  19
ATOM     19  C   UNL     1       1.798   3.449  19.203  0.00  0.00    +0.000 C 
BRANCH  19  20
ATOM     20  C   UNL     1       2.601   4.267  18.185  0.00  0.00    +0.000 C 
BRANCH  20  27
ATOM     21  C   UNL     1       8.066   6.122  18.795  0.00  0.00    +0.000 C 
ATOM     22  C   UNL     1       7.035   6.210  17.721  0.00  0.00    +0.000 C 
ATOM     23  O   UNL     1       7.426   6.491  16.583  0.00  0.00    +0.000 OA
ATOM     24  N   UNL     1       5.734   5.857  17.915  0.00  0.00    +0.000 N 
ATOM     25  C   UNL     1       4.822   5.726  16.802  0.00  0.00    +0.000 C 
ATOM     26  C   UNL     1       4.521   4.221  16.695  0.00  0.00    +0.000 C 
ATOM     27  N   UNL     1       3.946   3.692  17.953  0.00  0.00    +0.000 NA
ATOM     28  C   UNL     1       4.892   3.920  19.075  0.00  0.00    +0.000 C 
ATOM     29  C   UNL     1       5.231   5.403  19.221  0.00  0.00    +0.000 C 
ENDBRANCH  20  27
ENDBRANCH  19  20
ENDBRANCH  18  19
ENDBRANCH  17  18
ENDBRANCH  16  17
ENDBRANCH   1  16
TORSDOF 6
ENDMDL
MODEL 9
REMARK VINA RESULT:      -8.0      2.222      3.353
REMARK  Name = 
REMARK  7 active torsions:
REMARK  status: ('A' for Active; 'I' for Inactive)
REMARK    1  A    between atoms: C_1  and  C_2
REMARK    2  A    between atoms: N_7  and  C_8
REMARK    3  A    between atoms: C_8  and  C_9
REMARK    4  A    between atoms: C_9  and  C_10
REMARK    5  A    between atoms: C_10  and  C_11
REMARK    6  A    between atoms: C_11  and  C_12
REMARK    7  A    between atoms: C_12  and  C_13
REMARK                            x       y       z     vdW  Elec       q    Type
REMARK                         _______ _______ _______ _____ _____    ______ ____
ROOT
ATOM      1  C   UNL     1       6.835   5.200  18.897  0.00  0.00    +0.000 C 
ATOM      2  O   UNL     1       6.487   5.333  20.073  0.00  0.00    +0.000 OA
ATOM      3  N   UNL     1       5.941   4.691  17.979  0.00  0.00    +0.000 N 
ATOM      4  C   UNL     1       6.077   4.561  16.603  0.00  0.00    +0.000 A 
ATOM      5  C   UNL     1       7.182   4.817  15.769  0.00  0.00    +0.000 A 
ATOM      6  C   UNL     1       7.050   4.624  14.386  0.00  0.00    +0.000 A 
ATOM      7  C   UNL     1       5.838   4.180  13.840  0.00  0.00    +0.000 A 
ATOM      8  C   UNL     1       4.741   3.912  14.673  0.00  0.00    +0.000 A 
ATOM      9  C   UNL     1       4.893   4.103  16.054  0.00  0.00    +0.000 A 
ATOM     10  C   UNL     1       4.012   3.912  17.087  0.00  0.00    +0.000 A 
ATOM     11  C   UNL     1       2.686   3.482  17.098  0.00  0.00    +0.000 A 
ATOM     12  C   UNL     1       2.024   3.412  18.336  0.00  0.00    +0.000 A 
ATOM     13  C   UNL     1       2.692   3.758  19.525  0.00  0.00    +0.000 A 
ATOM     14  C   UNL     1       4.023   4.183  19.492  0.00  0.00    +0.000 A 
ATOM     15  C   UNL     1       4.678   4.262  18.242  0.00  0.00    +0.000 A 
ENDROOT
BRANCH   1  16
ATOM     16  C   UNL     1       8.183   5.727  18.520  0.00  0.00    +0.000 C 
BRANCH  16  17
ATOM     17  C   UNL     1       8.297   7.206  18.728  0.00  0.00    +0.000 C 
BRANCH  17  18
ATOM     18  C   UNL     1       7.356   7.938  17.790  0.00  0.00    +0.000 C 
BRANCH  18  19
ATOM     19  C   UNL     1       7.949   9.292  17.461  0.00  0.00    +0.000 C 
BRANCH  19  20
ATOM     20  C   UNL     1       8.925   9.738  18.557  0.00  0.00    +0.000 C 
BRANCH  20  27
ATOM     21  C   UNL     1      11.783  14.759  18.004  0.00  0.00    +0.000 C 
ATOM     22  C   UNL     1      11.809  13.631  18.979  0.00  0.00    +0.000 C 
ATOM     23  O   UNL     1      12.333  13.845  20.078  0.00  0.00    +0.000 OA
ATOM     24  N   UNL     1      11.164  12.451  18.762  0.00  0.00    +0.000 N 
ATOM     25  C   UNL     1      11.010  11.479  19.820  0.00  0.00    +0.000 C 
ATOM     26  C   UNL     1       9.509  11.473  20.155  0.00  0.00    +0.000 C 
ATOM     27  N   UNL     1       8.689  11.141  18.968  0.00  0.00    +0.000 NA
ATOM     28  C   UNL     1       8.942  12.129  17.888  0.00  0.00    +0.000 C 
ATOM     29  C   UNL     1      10.425  12.179  17.520  0.00  0.00    +0.000 C 
ENDBRANCH  20  27
ENDBRANCH  19  20
ENDBRANCH  18  19
ENDBRANCH  17  18
ENDBRANCH  16  17
ENDBRANCH   1  16
TORSDOF 6
ENDMDL
