MODEL 1
REMARK VINA RESULT:      -8.0      0.000      0.000
REMARK  Name = 
REMARK  10 active torsions:
REMARK  status: ('A' for Active; 'I' for Inactive)
REMARK    1  A    between atoms: C_1  and  C_2
REMARK    2  A    between atoms: C_5  and  S_6
REMARK    3  A    between atoms: S_6  and  N_9
REMARK    4  A    between atoms: N_12  and  CA_13
REMARK    5  A    between atoms: CA_13  and  C_14
REMARK    6  A    between atoms: CA_13  and  C_23
REMARK    7  A    between atoms: C_14  and  C_15
REMARK    8  A    between atoms: C_18  and  O_19
REMARK    9  A    between atoms: C_20  and  O_21
REMARK   10  A    between atoms: C_23  and  OXT_25
REMARK                            x       y       z     vdW  Elec       q    Type
REMARK                         _______ _______ _______ _____ _____    ______ ____
ROOT
ATOM      1  N   UNL     1       1.210   9.107  20.002  0.00  0.00    +0.000 N 
ATOM      2  C   UNL     1       1.854   8.135  19.265  0.00  0.00    +0.000 C 
ATOM      3  O   UNL     1       2.279   8.331  18.135  0.00  0.00    +0.000 OA
ATOM      4  N   UNL     1       1.959   6.930  19.881  0.00  0.00    +0.000 N 
ATOM      5  H   UNL     1       0.772   8.923  20.895  0.00  0.00    +0.000 HD
ATOM      6  H   UNL     1       1.502   6.753  20.771  0.00  0.00    +0.000 HD
ENDROOT
BRANCH   1   7
ATOM      7  S   UNL     1       1.047  10.677  19.466  0.00  0.00    +0.000 S 
ATOM      8  O   UNL     1       2.017  10.898  18.416  0.00  0.00    +0.000 OA
ATOM      9  O   UNL     1       1.040  11.502  20.659  0.00  0.00    +0.000 OA
BRANCH   7  14
ATOM     10  C   UNL     1      -4.558  10.888  17.128  0.00  0.00    +0.000 C 
ATOM     11  C   UNL     1      -3.167  10.843  17.691  0.00  0.00    +0.000 A 
ATOM     12  C   UNL     1      -2.215   9.950  17.182  0.00  0.00    +0.000 A 
ATOM     13  C   UNL     1      -0.929   9.897  17.725  0.00  0.00    +0.000 A 
ATOM     14  C   UNL     1      -0.591  10.749  18.779  0.00  0.00    +0.000 A 
ATOM     15  C   UNL     1      -1.529  11.648  19.294  0.00  0.00    +0.000 A 
ATOM     16  C   UNL     1      -2.815  11.693  18.749  0.00  0.00    +0.000 A 
ENDBRANCH   7  14
ENDBRANCH   1   7
BRANCH   4  17
ATOM     17  CA  UNL     1       2.539   5.785  19.179  0.00  0.00    +0.000 C 
BRANCH  17  18
ATOM     18  C   UNL     1       1.664   4.547  19.396  0.00  0.00    +0.000 C 
ATOM     19  O   UNL     1       1.691   3.574  18.650  0.00  0.00    +0.000 OA
BRANCH  18  20
ATOM     20  OXT UNL     1       0.931   4.546  20.532  0.00  0.00    +0.000 OA
ATOM     21  HXT UNL     1       0.612   3.679  20.849  0.00  0.00    +0.000 HD
ENDBRANCH  18  20
ENDBRANCH  17  18
BRANCH  17  22
ATOM     22  C   UNL     1       4.040   5.577  19.465  0.00  0.00    +0.000 C 
BRANCH  22  23
ATOM     23  C   UNL     1       5.032   5.648  18.326  0.00  0.00    +0.000 A 
ATOM     24  C   UNL     1       4.655   6.260  17.112  0.00  0.00    +0.000 A 
ATOM     25  C   UNL     1       5.451   6.151  15.967  0.00  0.00    +0.000 A 
ATOM     26  C   UNL     1       6.631   5.424  16.034  0.00  0.00    +0.000 A 
ATOM     27  C   UNL     1       7.029   4.847  17.237  0.00  0.00    +0.000 A 
ATOM     28  C   UNL     1       6.256   4.971  18.388  0.00  0.00    +0.000 A 
BRANCH  26  29
ATOM     29  O   UNL     1       7.423   5.224  14.938  0.00  0.00    +0.000 OA
ATOM     30  H   UNL     1       7.961   4.429  15.094  0.00  0.00    +0.000 HD
ENDBRANCH  26  29
BRANCH  27  31
ATOM     31  O   UNL     1       8.169   4.097  17.283  0.00  0.00    +0.000 OA
ATOM     32  H   UNL     1       8.893   4.754  17.315  0.00  0.00    +0.000 HD
ENDBRANCH  27  31
ENDBRANCH  22  23
ENDBRANCH  17  22
ENDBRANCH   4  17
TORSDOF 9
ENDMDL
MODEL 2
REMARK VINA RESULT:      -7.8      1.837      4.106
REMARK  Name = 
REMARK  10 active torsions:
REMARK  status: ('A' for Active; 'I' for Inactive)
REMARK    1  A    between atoms: C_1  and  C_2
REMARK    2  A    between atoms: C_5  and  S_6
REMARK    3  A    between atoms: S_6  and  N_9
REMARK    4  A    between atoms: N_12  and  CA_13
REMARK    5  A    between atoms: CA_13  and  C_14
REMARK    6  A    between atoms: CA_13  and  C_23
REMARK    7  A    between atoms: C_14  and  C_15
REMARK    8  A    between atoms: C_18  and  O_19
REMARK    9  A    between atoms: C_20  and  O_21
REMARK   10  A    between atoms: C_23  and  OXT_25
REMARK                            x       y       z     vdW  Elec       q    Type
REMARK                         _______ _______ _______ _____ _____    ______ ____
ROOT
ATOM      1  N   UNL     1       1.557   9.218  18.358  0.00  0.00    +0.000 N 
ATOM      2  C   UNL     1       2.269   8.074  18.651  0.00  0.00    +0.000 C 
ATOM      3  O   UNL     1       2.352   7.616  19.783  0.00  0.00    +0.000 OA
ATOM      4  N   UNL     1       2.897   7.507  17.590  0.00  0.00    +0.000 N 
ATOM      5  H   UNL     1       1.565   9.655  17.445  0.00  0.00    +0.000 HD
ATOM      6  H   UNL     1       2.910   7.962  16.682  0.00  0.00    +0.000 HD
ENDROOT
BRANCH   1   7
ATOM      7  S   UNL     1       0.647  10.025  19.498  0.00  0.00    +0.000 S 
ATOM      8  O   UNL     1       1.334  11.254  19.835  0.00  0.00    +0.000 OA
ATOM      9  O   UNL     1       0.333   9.045  20.519  0.00  0.00    +0.000 OA
BRANCH   7  14
ATOM     10  C   UNL     1      -4.545  11.378  16.645  0.00  0.00    +0.000 C 
ATOM     11  C   UNL     1      -3.271  11.036  17.362  0.00  0.00    +0.000 A 
ATOM     12  C   UNL     1      -2.925  11.680  18.558  0.00  0.00    +0.000 A 
ATOM     13  C   UNL     1      -1.728  11.375  19.209  0.00  0.00    +0.000 A 
ATOM     14  C   UNL     1      -0.875  10.411  18.665  0.00  0.00    +0.000 A 
ATOM     15  C   UNL     1      -1.210   9.756  17.477  0.00  0.00    +0.000 A 
ATOM     16  C   UNL     1      -2.407  10.070  16.827  0.00  0.00    +0.000 A 
ENDBRANCH   7  14
ENDBRANCH   1   7
BRANCH   4  17
ATOM     17  CA  UNL     1       3.761   6.340  17.775  0.00  0.00    +0.000 C 
BRANCH  17  18
ATOM     18  C   UNL     1       5.071   6.539  17.006  0.00  0.00    +0.000 C 
ATOM     19  O   UNL     1       6.052   7.088  17.495  0.00  0.00    +0.000 OA
BRANCH  18  20
ATOM     20  OXT UNL     1       5.116   5.971  15.779  0.00  0.00    +0.000 OA
ATOM     21  HXT UNL     1       5.056   4.998  15.743  0.00  0.00    +0.000 HD
ENDBRANCH  18  20
ENDBRANCH  17  18
BRANCH  17  22
ATOM     22  C   UNL     1       3.052   4.996  17.513  0.00  0.00    +0.000 C 
BRANCH  22  23
ATOM     23  C   UNL     1       2.621   4.141  18.684  0.00  0.00    +0.000 A 
ATOM     24  C   UNL     1       1.317   4.280  19.203  0.00  0.00    +0.000 A 
ATOM     25  C   UNL     1       0.950   3.680  20.413  0.00  0.00    +0.000 A 
ATOM     26  C   UNL     1       1.894   2.939  21.110  0.00  0.00    +0.000 A 
ATOM     27  C   UNL     1       3.173   2.766  20.587  0.00  0.00    +0.000 A 
ATOM     28  C   UNL     1       3.539   3.339  19.373  0.00  0.00    +0.000 A 
BRANCH  26  29
ATOM     29  O   UNL     1       1.622   2.380  22.327  0.00  0.00    +0.000 OA
ATOM     30  H   UNL     1       1.965   1.469  22.326  0.00  0.00    +0.000 HD
ENDBRANCH  26  29
BRANCH  27  31
ATOM     31  O   UNL     1       4.108   2.073  21.300  0.00  0.00    +0.000 OA
ATOM     32  H   UNL     1       4.762   2.750  21.567  0.00  0.00    +0.000 HD
ENDBRANCH  27  31
ENDBRANCH  22  23
ENDBRANCH  17  22
ENDBRANCH   4  17
TORSDOF 9
ENDMDL
MODEL 3
REMARK VINA RESULT:      -7.8      1.908      3.815
REMARK  Name = 
REMARK  10 active torsions:
REMARK  status: ('A' for Active; 'I' for Inactive)
REMARK    1  A    between atoms: C_1  and  C_2
REMARK    2  A    between atoms: C_5  and  S_6
REMARK    3  A    between atoms: S_6  and  N_9
REMARK    4  A    between atoms: N_12  and  CA_13
REMARK    5  A    between atoms: CA_13  and  C_14
REMARK    6  A    between atoms: CA_13  and  C_23
REMARK    7  A    between atoms: C_14  and  C_15
REMARK    8  A    between atoms: C_18  and  O_19
REMARK    9  A    between atoms: C_20  and  O_21
REMARK   10  A    between atoms: C_23  and  OXT_25
REMARK                            x       y       z     vdW  Elec       q    Type
REMARK                         _______ _______ _______ _____ _____    ______ ____
ROOT
ATOM      1  N   UNL     1       1.641   9.432  18.429  0.00  0.00    +0.000 N 
ATOM      2  C   UNL     1       2.313   8.251  18.664  0.00  0.00    +0.000 C 
ATOM      3  O   UNL     1       2.306   7.688  19.751  0.00  0.00    +0.000 OA
ATOM      4  N   UNL     1       3.011   7.771  17.603  0.00  0.00    +0.000 N 
ATOM      5  H   UNL     1       1.723   9.950  17.563  0.00  0.00    +0.000 HD
ATOM      6  H   UNL     1       3.098   8.308  16.745  0.00  0.00    +0.000 HD
ENDROOT
BRANCH   1   7
ATOM      7  S   UNL     1       0.660  10.148  19.570  0.00  0.00    +0.000 S 
ATOM      8  O   UNL     1       1.282  11.388  19.985  0.00  0.00    +0.000 OA
ATOM      9  O   UNL     1       0.355   9.111  20.535  0.00  0.00    +0.000 OA
BRANCH   7  14
ATOM     10  C   UNL     1      -4.509  11.345  16.607  0.00  0.00    +0.000 C 
ATOM     11  C   UNL     1      -3.223  11.058  17.328  0.00  0.00    +0.000 A 
ATOM     12  C   UNL     1      -2.292  10.153  16.801  0.00  0.00    +0.000 A 
ATOM     13  C   UNL     1      -1.107   9.872  17.486  0.00  0.00    +0.000 A 
ATOM     14  C   UNL     1      -0.849  10.508  18.702  0.00  0.00    +0.000 A 
ATOM     15  C   UNL     1      -1.765  11.418  19.237  0.00  0.00    +0.000 A 
ATOM     16  C   UNL     1      -2.950  11.691  18.549  0.00  0.00    +0.000 A 
ENDBRANCH   7  14
ENDBRANCH   1   7
BRANCH   4  17
ATOM     17  CA  UNL     1       3.842   6.574  17.740  0.00  0.00    +0.000 C 
BRANCH  17  18
ATOM     18  C   UNL     1       5.126   6.740  16.920  0.00  0.00    +0.000 C 
ATOM     19  O   UNL     1       6.244   6.580  17.397  0.00  0.00    +0.000 OA
BRANCH  18  20
ATOM     20  OXT UNL     1       4.946   6.969  15.600  0.00  0.00    +0.000 OA
ATOM     21  HXT UNL     1       5.586   6.553  14.990  0.00  0.00    +0.000 HD
ENDBRANCH  18  20
ENDBRANCH  17  18
BRANCH  17  22
ATOM     22  C   UNL     1       3.079   5.257  17.493  0.00  0.00    +0.000 C 
BRANCH  22  23
ATOM     23  C   UNL     1       2.886   4.283  18.633  0.00  0.00    +0.000 A 
ATOM     24  C   UNL     1       1.723   4.364  19.428  0.00  0.00    +0.000 A 
ATOM     25  C   UNL     1       1.607   3.640  20.619  0.00  0.00    +0.000 A 
ATOM     26  C   UNL     1       2.660   2.831  21.020  0.00  0.00    +0.000 A 
ATOM     27  C   UNL     1       3.797   2.717  20.224  0.00  0.00    +0.000 A 
ATOM     28  C   UNL     1       3.912   3.415  19.026  0.00  0.00    +0.000 A 
BRANCH  26  29
ATOM     29  O   UNL     1       2.639   2.147  22.204  0.00  0.00    +0.000 OA
ATOM     30  H   UNL     1       2.685   2.794  22.929  0.00  0.00    +0.000 HD
ENDBRANCH  26  29
BRANCH  27  31
ATOM     31  O   UNL     1       4.847   1.953  20.649  0.00  0.00    +0.000 OA
ATOM     32  H   UNL     1       4.790   1.983  21.625  0.00  0.00    +0.000 HD
ENDBRANCH  27  31
ENDBRANCH  22  23
ENDBRANCH  17  22
ENDBRANCH   4  17
TORSDOF 9
ENDMDL
MODEL 4
REMARK VINA RESULT:      -7.6      0.896      1.491
REMARK  Name = 
REMARK  10 active torsions:
REMARK  status: ('A' for Active; 'I' for Inactive)
REMARK    1  A    between atoms: C_1  and  C_2
REMARK    2  A    between atoms: C_5  and  S_6
REMARK    3  A    between atoms: S_6  and  N_9
REMARK    4  A    between atoms: N_12  and  CA_13
REMARK    5  A    between atoms: CA_13  and  C_14
REMARK    6  A    between atoms: CA_13  and  C_23
REMARK    7  A    between atoms: C_14  and  C_15
REMARK    8  A    between atoms: C_18  and  O_19
REMARK    9  A    between atoms: C_20  and  O_21
REMARK   10  A    between atoms: C_23  and  OXT_25
REMARK                            x       y       z     vdW  Elec       q    Type
REMARK                         _______ _______ _______ _____ _____    ______ ____
ROOT
ATOM      1  N   UNL     1       1.300   8.974  19.663  0.00  0.00    +0.000 N 
ATOM      2  C   UNL     1       1.988   8.060  18.892  0.00  0.00    +0.000 C 
ATOM      3  O   UNL     1       2.443   8.331  17.789  0.00  0.00    +0.000 OA
ATOM      4  N   UNL     1       2.099   6.823  19.439  0.00  0.00    +0.000 N 
ATOM      5  H   UNL     1       0.840   8.729  20.530  0.00  0.00    +0.000 HD
ATOM      6  H   UNL     1       1.619   6.585  20.303  0.00  0.00    +0.000 HD
ENDROOT
BRANCH   1   7
ATOM      7  S   UNL     1       1.120  10.569  19.215  0.00  0.00    +0.000 S 
ATOM      8  O   UNL     1       2.019  10.832  18.112  0.00  0.00    +0.000 OA
ATOM      9  O   UNL     1       1.206  11.336  20.443  0.00  0.00    +0.000 OA
BRANCH   7  14
ATOM     10  C   UNL     1      -4.617  11.011  17.260  0.00  0.00    +0.000 C 
ATOM     11  C   UNL     1      -3.205  10.895  17.757  0.00  0.00    +0.000 A 
ATOM     12  C   UNL     1      -2.730  11.736  18.774  0.00  0.00    +0.000 A 
ATOM     13  C   UNL     1      -1.409  11.639  19.218  0.00  0.00    +0.000 A 
ATOM     14  C   UNL     1      -0.560  10.689  18.647  0.00  0.00    +0.000 A 
ATOM     15  C   UNL     1      -1.020   9.839  17.637  0.00  0.00    +0.000 A 
ATOM     16  C   UNL     1      -2.341   9.945  17.194  0.00  0.00    +0.000 A 
ENDBRANCH   7  14
ENDBRANCH   1   7
BRANCH   4  17
ATOM     17  CA  UNL     1       2.725   5.732  18.690  0.00  0.00    +0.000 C 
BRANCH  17  18
ATOM     18  C   UNL     1       1.789   4.520  18.662  0.00  0.00    +0.000 C 
ATOM     19  O   UNL     1       1.325   4.015  19.679  0.00  0.00    +0.000 OA
BRANCH  18  20
ATOM     20  OXT UNL     1       1.415   4.103  17.432  0.00  0.00    +0.000 OA
ATOM     21  HXT UNL     1       2.116   4.046  16.755  0.00  0.00    +0.000 HD
ENDBRANCH  18  20
ENDBRANCH  17  18
BRANCH  17  22
ATOM     22  C   UNL     1       4.171   5.427  19.130  0.00  0.00    +0.000 C 
BRANCH  22  23
ATOM     23  C   UNL     1       5.254   5.285  18.084  0.00  0.00    +0.000 A 
ATOM     24  C   UNL     1       6.214   6.307  17.935  0.00  0.00    +0.000 A 
ATOM     25  C   UNL     1       7.090   6.326  16.844  0.00  0.00    +0.000 A 
ATOM     26  C   UNL     1       7.004   5.317  15.895  0.00  0.00    +0.000 A 
ATOM     27  C   UNL     1       6.084   4.284  16.054  0.00  0.00    +0.000 A 
ATOM     28  C   UNL     1       5.225   4.245  17.148  0.00  0.00    +0.000 A 
BRANCH  26  29
ATOM     29  O   UNL     1       7.785   5.309  14.773  0.00  0.00    +0.000 OA
ATOM     30  H   UNL     1       7.571   4.508  14.262  0.00  0.00    +0.000 HD
ENDBRANCH  26  29
BRANCH  27  31
ATOM     31  O   UNL     1       5.975   3.320  15.093  0.00  0.00    +0.000 OA
ATOM     32  H   UNL     1       6.669   2.670  15.322  0.00  0.00    +0.000 HD
ENDBRANCH  27  31
ENDBRANCH  22  23
ENDBRANCH  17  22
ENDBRANCH   4  17
TORSDOF 9
ENDMDL
MODEL 5
REMARK VINA RESULT:      -7.5      5.702      7.531
REMARK  Name = 
REMARK  10 active torsions:
REMARK  status: ('A' for Active; 'I' for Inactive)
REMARK    1  A    between atoms: C_1  and  C_2
REMARK    2  A    between atoms: C_5  and  S_6
REMARK    3  A    between atoms: S_6  and  N_9
REMARK    4  A    between atoms: N_12  and  CA_13
REMARK    5  A    between atoms: CA_13  and  C_14
REMARK    6  A    between atoms: CA_13  and  C_23
REMARK    7  A    between atoms: C_14  and  C_15
REMARK    8  A    between atoms: C_18  and  O_19
REMARK    9  A    between atoms: C_20  and  O_21
REMARK   10  A    between atoms: C_23  and  OXT_25
REMARK                            x       y       z     vdW  Elec       q    Type
REMARK                         _______ _______ _______ _____ _____    ______ ____
ROOT
ATOM      1  N   UNL     1       8.235   9.855  17.577  0.00  0.00    +0.000 N 
ATOM      2  C   UNL     1       7.967   8.544  17.911  0.00  0.00    +0.000 C 
ATOM      3  O   UNL     1       8.591   7.937  18.770  0.00  0.00    +0.000 OA
ATOM      4  N   UNL     1       6.973   7.965  17.190  0.00  0.00    +0.000 N 
ATOM      5  H   UNL     1       7.788  10.330  16.803  0.00  0.00    +0.000 HD
ATOM      6  H   UNL     1       6.543   8.446  16.406  0.00  0.00    +0.000 HD
ENDROOT
BRANCH   1   7
ATOM      7  S   UNL     1       9.359  10.776  18.392  0.00  0.00    +0.000 S 
ATOM      8  O   UNL     1      10.571  10.811  17.602  0.00  0.00    +0.000 OA
ATOM      9  O   UNL     1       9.373  10.271  19.751  0.00  0.00    +0.000 OA
BRANCH   7  14
ATOM     10  C   UNL     1       6.960  16.356  18.594  0.00  0.00    +0.000 C 
ATOM     11  C   UNL     1       7.543  14.972  18.557  0.00  0.00    +0.000 A 
ATOM     12  C   UNL     1       8.410  14.531  19.566  0.00  0.00    +0.000 A 
ATOM     13  C   UNL     1       8.967  13.251  19.516  0.00  0.00    +0.000 A 
ATOM     14  C   UNL     1       8.648  12.404  18.452  0.00  0.00    +0.000 A 
ATOM     15  C   UNL     1       7.781  12.827  17.442  0.00  0.00    +0.000 A 
ATOM     16  C   UNL     1       7.230  14.111  17.496  0.00  0.00    +0.000 A 
ENDBRANCH   7  14
ENDBRANCH   1   7
BRANCH   4  17
ATOM     17  CA  UNL     1       6.646   6.550  17.378  0.00  0.00    +0.000 C 
BRANCH  17  18
ATOM     18  C   UNL     1       6.790   5.806  16.047  0.00  0.00    +0.000 C 
ATOM     19  O   UNL     1       6.152   6.107  15.044  0.00  0.00    +0.000 OA
BRANCH  18  20
ATOM     20  OXT UNL     1       7.752   4.856  16.014  0.00  0.00    +0.000 OA
ATOM     21  HXT UNL     1       8.486   4.996  15.385  0.00  0.00    +0.000 HD
ENDBRANCH  18  20
ENDBRANCH  17  18
BRANCH  17  22
ATOM     22  C   UNL     1       5.312   6.314  18.114  0.00  0.00    +0.000 C 
BRANCH  22  23
ATOM     23  C   UNL     1       4.691   4.935  18.105  0.00  0.00    +0.000 A 
ATOM     24  C   UNL     1       3.503   4.712  17.379  0.00  0.00    +0.000 A 
ATOM     25  C   UNL     1       2.777   3.524  17.522  0.00  0.00    +0.000 A 
ATOM     26  C   UNL     1       3.241   2.554  18.399  0.00  0.00    +0.000 A 
ATOM     27  C   UNL     1       4.433   2.750  19.092  0.00  0.00    +0.000 A 
ATOM     28  C   UNL     1       5.174   3.918  18.938  0.00  0.00    +0.000 A 
BRANCH  26  29
ATOM     29  O   UNL     1       2.549   1.399  18.635  0.00  0.00    +0.000 OA
ATOM     30  H   UNL     1       1.646   1.511  18.287  0.00  0.00    +0.000 HD
ENDBRANCH  26  29
BRANCH  27  31
ATOM     31  O   UNL     1       4.859   1.810  19.986  0.00  0.00    +0.000 OA
ATOM     32  H   UNL     1       4.272   1.042  19.830  0.00  0.00    +0.000 HD
ENDBRANCH  27  31
ENDBRANCH  22  23
ENDBRANCH  17  22
ENDBRANCH   4  17
TORSDOF 9
ENDMDL
MODEL 6
REMARK VINA RESULT:      -7.5      1.773      4.276
REMARK  Name = 
REMARK  10 active torsions:
REMARK  status: ('A' for Active; 'I' for Inactive)
REMARK    1  A    between atoms: C_1  and  C_2
REMARK    2  A    between atoms: C_5  and  S_6
REMARK    3  A    between atoms: S_6  and  N_9
REMARK    4  A    between atoms: N_12  and  CA_13
REMARK    5  A    between atoms: CA_13  and  C_14
REMARK    6  A    between atoms: CA_13  and  C_23
REMARK    7  A    between atoms: C_14  and  C_15
REMARK    8  A    between atoms: C_18  and  O_19
REMARK    9  A    between atoms: C_20  and  O_21
REMARK   10  A    between atoms: C_23  and  OXT_25
REMARK                            x       y       z     vdW  Elec       q    Type
REMARK                         _______ _______ _______ _____ _____    ______ ____
ROOT
ATOM      1  N   UNL     1       1.478   9.189  18.035  0.00  0.00    +0.000 N 
ATOM      2  C   UNL     1       2.406   8.218  18.347  0.00  0.00    +0.000 C 
ATOM      3  O   UNL     1       2.744   7.966  19.496  0.00  0.00    +0.000 OA
ATOM      4  N   UNL     1       2.942   7.578  17.276  0.00  0.00    +0.000 N 
ATOM      5  H   UNL     1       1.268   9.467  17.085  0.00  0.00    +0.000 HD
ATOM      6  H   UNL     1       2.735   7.877  16.328  0.00  0.00    +0.000 HD
ENDROOT
BRANCH   1   7
ATOM      7  S   UNL     1       0.641  10.036  19.201  0.00  0.00    +0.000 S 
ATOM      8  O   UNL     1       1.363  11.261  19.474  0.00  0.00    +0.000 OA
ATOM      9  O   UNL     1       0.365   9.084  20.260  0.00  0.00    +0.000 OA
BRANCH   7  14
ATOM     10  C   UNL     1      -4.695  11.344  16.604  0.00  0.00    +0.000 C 
ATOM     11  C   UNL     1      -3.369  11.028  17.233  0.00  0.00    +0.000 A 
ATOM     12  C   UNL     1      -2.518  10.067  16.671  0.00  0.00    +0.000 A 
ATOM     13  C   UNL     1      -1.295   9.761  17.272  0.00  0.00    +0.000 A 
ATOM     14  C   UNL     1      -0.916  10.429  18.439  0.00  0.00    +0.000 A 
ATOM     15  C   UNL     1      -1.751  11.394  19.008  0.00  0.00    +0.000 A 
ATOM     16  C   UNL     1      -2.976  11.692  18.404  0.00  0.00    +0.000 A 
ENDBRANCH   7  14
ENDBRANCH   1   7
BRANCH   4  17
ATOM     17  CA  UNL     1       4.005   6.588  17.457  0.00  0.00    +0.000 C 
BRANCH  17  18
ATOM     18  C   UNL     1       5.157   6.885  16.493  0.00  0.00    +0.000 C 
ATOM     19  O   UNL     1       5.050   6.778  15.276  0.00  0.00    +0.000 OA
BRANCH  18  20
ATOM     20  OXT UNL     1       6.278   7.382  17.062  0.00  0.00    +0.000 OA
ATOM     21  HXT UNL     1       6.187   8.220  17.556  0.00  0.00    +0.000 HD
ENDBRANCH  18  20
ENDBRANCH  17  18
BRANCH  17  22
ATOM     22  C   UNL     1       3.505   5.130  17.443  0.00  0.00    +0.000 C 
BRANCH  22  23
ATOM     23  C   UNL     1       2.671   4.617  18.596  0.00  0.00    +0.000 A 
ATOM     24  C   UNL     1       3.099   4.850  19.920  0.00  0.00    +0.000 A 
ATOM     25  C   UNL     1       2.488   4.208  21.002  0.00  0.00    +0.000 A 
ATOM     26  C   UNL     1       1.444   3.327  20.760  0.00  0.00    +0.000 A 
ATOM     27  C   UNL     1       0.991   3.119  19.460  0.00  0.00    +0.000 A 
ATOM     28  C   UNL     1       1.577   3.771  18.379  0.00  0.00    +0.000 A 
BRANCH  26  29
ATOM     29  O   UNL     1       0.845   2.618  21.765  0.00  0.00    +0.000 OA
ATOM     30  H   UNL     1       1.540   2.303  22.368  0.00  0.00    +0.000 HD
ENDBRANCH  26  29
BRANCH  27  31
ATOM     31  O   UNL     1      -0.006   2.216  19.226  0.00  0.00    +0.000 OA
ATOM     32  H   UNL     1       0.258   1.771  18.396  0.00  0.00    +0.000 HD
ENDBRANCH  27  31
ENDBRANCH  22  23
ENDBRANCH  17  22
ENDBRANCH   4  17
TORSDOF 9
ENDMDL
MODEL 7
REMARK VINA RESULT:      -7.4      2.135      3.001
REMARK  Name = 
REMARK  10 active torsions:
REMARK  status: ('A' for Active; 'I' for Inactive)
REMARK    1  A    between atoms: C_1  and  C_2
REMARK    2  A    between atoms: C_5  and  S_6
REMARK    3  A    between atoms: S_6  and  N_9
REMARK    4  A    between atoms: N_12  and  CA_13
REMARK    5  A    between atoms: CA_13  and  C_14
REMARK    6  A    between atoms: CA_13  and  C_23
REMARK    7  A    between atoms: C_14  and  C_15
REMARK    8  A    between atoms: C_18  and  O_19
REMARK    9  A    between atoms: C_20  and  O_21
REMARK   10  A    between atoms: C_23  and  OXT_25
REMARK                            x       y       z     vdW  Elec       q    Type
REMARK                         _______ _______ _______ _____ _____    ______ ____
ROOT
ATOM      1  N   UNL     1       1.289   9.006  19.976  0.00  0.00    +0.000 N 
ATOM      2  C   UNL     1       1.869   7.941  19.319  0.00  0.00    +0.000 C 
ATOM      3  O   UNL     1       1.981   7.893  18.101  0.00  0.00    +0.000 OA
ATOM      4  N   UNL     1       2.283   6.931  20.126  0.00  0.00    +0.000 N 
ATOM      5  H   UNL     1       1.107   9.007  20.972  0.00  0.00    +0.000 HD
ATOM      6  H   UNL     1       2.081   6.937  21.121  0.00  0.00    +0.000 HD
ENDROOT
BRANCH   1   7
ATOM      7  S   UNL     1       0.786  10.383  19.183  0.00  0.00    +0.000 S 
ATOM      8  O   UNL     1      -0.311  10.025  18.310  0.00  0.00    +0.000 OA
ATOM      9  O   UNL     1       1.989  10.995  18.653  0.00  0.00    +0.000 OA
BRANCH   7  14
ATOM     10  C   UNL     1      -1.239  14.012  23.617  0.00  0.00    +0.000 C 
ATOM     11  C   UNL     1      -0.754  13.115  22.515  0.00  0.00    +0.000 A 
ATOM     12  C   UNL     1      -1.104  11.758  22.487  0.00  0.00    +0.000 A 
ATOM     13  C   UNL     1      -0.633  10.922  21.472  0.00  0.00    +0.000 A 
ATOM     14  C   UNL     1       0.189  11.450  20.473  0.00  0.00    +0.000 A 
ATOM     15  C   UNL     1       0.541  12.802  20.484  0.00  0.00    +0.000 A 
ATOM     16  C   UNL     1       0.070  13.632  21.505  0.00  0.00    +0.000 A 
ENDBRANCH   7  14
ENDBRANCH   1   7
BRANCH   4  17
ATOM     17  CA  UNL     1       2.834   5.701  19.554  0.00  0.00    +0.000 C 
BRANCH  17  18
ATOM     18  C   UNL     1       2.136   4.486  20.173  0.00  0.00    +0.000 C 
ATOM     19  O   UNL     1       0.916   4.393  20.259  0.00  0.00    +0.000 OA
BRANCH  18  20
ATOM     20  OXT UNL     1       2.949   3.464  20.522  0.00  0.00    +0.000 OA
ATOM     21  HXT UNL     1       2.599   2.824  21.171  0.00  0.00    +0.000 HD
ENDBRANCH  18  20
ENDBRANCH  17  18
BRANCH  17  22
ATOM     22  C   UNL     1       4.374   5.644  19.571  0.00  0.00    +0.000 C 
BRANCH  22  23
ATOM     23  C   UNL     1       5.126   5.422  18.278  0.00  0.00    +0.000 A 
ATOM     24  C   UNL     1       6.332   4.691  18.292  0.00  0.00    +0.000 A 
ATOM     25  C   UNL     1       7.169   4.652  17.172  0.00  0.00    +0.000 A 
ATOM     26  C   UNL     1       6.800   5.349  16.031  0.00  0.00    +0.000 A 
ATOM     27  C   UNL     1       5.593   6.044  15.996  0.00  0.00    +0.000 A 
ATOM     28  C   UNL     1       4.742   6.068  17.097  0.00  0.00    +0.000 A 
BRANCH  26  29
ATOM     29  O   UNL     1       7.600   5.406  14.924  0.00  0.00    +0.000 OA
ATOM     30  H   UNL     1       8.423   5.864  15.169  0.00  0.00    +0.000 HD
ENDBRANCH  26  29
BRANCH  27  31
ATOM     31  O   UNL     1       5.258   6.764  14.885  0.00  0.00    +0.000 OA
ATOM     32  H   UNL     1       4.460   6.317  14.536  0.00  0.00    +0.000 HD
ENDBRANCH  27  31
ENDBRANCH  22  23
ENDBRANCH  17  22
ENDBRANCH   4  17
TORSDOF 9
ENDMDL
MODEL 8
REMARK VINA RESULT:      -7.4      2.960      7.962
REMARK  Name = 
REMARK  10 active torsions:
REMARK  status: ('A' for Active; 'I' for Inactive)
REMARK    1  A    between atoms: C_1  and  C_2
REMARK    2  A    between atoms: C_5  and  S_6
REMARK    3  A    between atoms: S_6  and  N_9
REMARK    4  A    between atoms: N_12  and  CA_13
REMARK    5  A    between atoms: CA_13  and  C_14
REMARK    6  A    between atoms: CA_13  and  C_23
REMARK    7  A    between atoms: C_14  and  C_15
REMARK    8  A    between atoms: C_18  and  O_19
REMARK    9  A    between atoms: C_20  and  O_21
REMARK   10  A    between atoms: C_23  and  OXT_25
REMARK                            x       y       z     vdW  Elec       q    Type
REMARK                         _______ _______ _______ _____ _____    ______ ____
ROOT
ATOM      1  N   UNL     1       5.613   6.191  17.816  0.00  0.00    +0.000 N 
ATOM      2  C   UNL     1       4.854   5.397  18.650  0.00  0.00    +0.000 C 
ATOM      3  O   UNL     1       5.164   4.248  18.936  0.00  0.00    +0.000 OA
ATOM      4  N   UNL     1       3.717   5.978  19.110  0.00  0.00    +0.000 N 
ATOM      5  H   UNL     1       5.313   7.104  17.500  0.00  0.00    +0.000 HD
ATOM      6  H   UNL     1       3.419   6.889  18.773  0.00  0.00    +0.000 HD
ENDROOT
BRANCH   1   7
ATOM      7  S   UNL     1       7.085   5.701  17.207  0.00  0.00    +0.000 S 
ATOM      8  O   UNL     1       7.637   4.708  18.104  0.00  0.00    +0.000 OA
ATOM      9  O   UNL     1       7.814   6.919  16.908  0.00  0.00    +0.000 OA
BRANCH   7  14
ATOM     10  C   UNL     1       5.720   3.106  11.885  0.00  0.00    +0.000 C 
ATOM     11  C   UNL     1       6.063   3.732  13.206  0.00  0.00    +0.000 A 
ATOM     12  C   UNL     1       5.272   3.495  14.339  0.00  0.00    +0.000 A 
ATOM     13  C   UNL     1       5.582   4.098  15.560  0.00  0.00    +0.000 A 
ATOM     14  C   UNL     1       6.695   4.937  15.651  0.00  0.00    +0.000 A 
ATOM     15  C   UNL     1       7.496   5.178  14.531  0.00  0.00    +0.000 A 
ATOM     16  C   UNL     1       7.178   4.575  13.311  0.00  0.00    +0.000 A 
ENDBRANCH   7  14
ENDBRANCH   1   7
BRANCH   4  17
ATOM     17  CA  UNL     1       2.773   5.217  19.931  0.00  0.00    +0.000 C 
BRANCH  17  18
ATOM     18  C   UNL     1       2.136   4.106  19.090  0.00  0.00    +0.000 C 
ATOM     19  O   UNL     1       1.432   4.333  18.113  0.00  0.00    +0.000 OA
BRANCH  18  20
ATOM     20  OXT UNL     1       2.489   2.846  19.430  0.00  0.00    +0.000 OA
ATOM     21  HXT UNL     1       2.317   2.148  18.770  0.00  0.00    +0.000 HD
ENDBRANCH  18  20
ENDBRANCH  17  18
BRANCH  17  22
ATOM     22  C   UNL     1       1.774   6.099  20.706  0.00  0.00    +0.000 C 
BRANCH  22  23
ATOM     23  C   UNL     1       1.647   7.565  20.356  0.00  0.00    +0.000 A 
ATOM     24  C   UNL     1       1.099   8.460  21.299  0.00  0.00    +0.000 A 
ATOM     25  C   UNL     1       0.757   9.769  20.943  0.00  0.00    +0.000 A 
ATOM     26  C   UNL     1       0.961  10.185  19.635  0.00  0.00    +0.000 A 
ATOM     27  C   UNL     1       1.535   9.321  18.707  0.00  0.00    +0.000 A 
ATOM     28  C   UNL     1       1.901   8.025  19.059  0.00  0.00    +0.000 A 
BRANCH  26  29
ATOM     29  O   UNL     1       0.591  11.429  19.204  0.00  0.00    +0.000 OA
ATOM     30  H   UNL     1      -0.343  11.390  18.935  0.00  0.00    +0.000 HD
ENDBRANCH  26  29
BRANCH  27  31
ATOM     31  O   UNL     1       1.692   9.724  17.412  0.00  0.00    +0.000 OA
ATOM     32  H   UNL     1       0.927   9.336  16.942  0.00  0.00    +0.000 HD
ENDBRANCH  27  31
ENDBRANCH  22  23
ENDBRANCH  17  22
ENDBRANCH   4  17
TORSDOF 9
ENDMDL
MODEL 9
REMARK VINA RESULT:      -7.4      0.712      1.368
REMARK  Name = 
REMARK  10 active torsions:
REMARK  status: ('A' for Active; 'I' for Inactive)
REMARK    1  A    between atoms: C_1  and  C_2
REMARK    2  A    between atoms: C_5  and  S_6
REMARK    3  A    between atoms: S_6  and  N_9
REMARK    4  A    between atoms: N_12  and  CA_13
REMARK    5  A    between atoms: CA_13  and  C_14
REMARK    6  A    between atoms: CA_13  and  C_23
REMARK    7  A    between atoms: C_14  and  C_15
REMARK    8  A    between atoms: C_18  and  O_19
REMARK    9  A    between atoms: C_20  and  O_21
REMARK   10  A    between atoms: C_23  and  OXT_25
REMARK                            x       y       z     vdW  Elec       q    Type
REMARK                         _______ _______ _______ _____ _____    ______ ____
ROOT
ATOM      1  N   UNL     1       1.241   9.034  19.712  0.00  0.00    +0.000 N 
ATOM      2  C   UNL     1       1.919   8.012  19.081  0.00  0.00    +0.000 C 
ATOM      3  O   UNL     1       2.416   8.131  17.970  0.00  0.00    +0.000 OA
ATOM      4  N   UNL     1       1.970   6.848  19.778  0.00  0.00    +0.000 N 
ATOM      5  H   UNL     1       0.746   8.911  20.586  0.00  0.00    +0.000 HD
ATOM      6  H   UNL     1       1.457   6.733  20.647  0.00  0.00    +0.000 HD
ENDROOT
BRANCH   1   7
ATOM      7  S   UNL     1       1.130  10.567  19.068  0.00  0.00    +0.000 S 
ATOM      8  O   UNL     1       1.994  10.633  17.909  0.00  0.00    +0.000 OA
ATOM      9  O   UNL     1       1.310  11.478  20.182  0.00  0.00    +0.000 OA
BRANCH   7  14
ATOM     10  C   UNL     1      -4.666  11.036  17.303  0.00  0.00    +0.000 C 
ATOM     11  C   UNL     1      -3.229  10.928  17.724  0.00  0.00    +0.000 A 
ATOM     12  C   UNL     1      -2.363  10.022  17.097  0.00  0.00    +0.000 A 
ATOM     13  C   UNL     1      -1.033   9.909  17.508  0.00  0.00    +0.000 A 
ATOM     14  C   UNL     1      -0.564  10.715  18.548  0.00  0.00    +0.000 A 
ATOM     15  C   UNL     1      -1.414  11.627  19.180  0.00  0.00    +0.000 A 
ATOM     16  C   UNL     1      -2.745  11.731  18.767  0.00  0.00    +0.000 A 
ENDBRANCH   7  14
ENDBRANCH   1   7
BRANCH   4  17
ATOM     17  CA  UNL     1       2.580   5.655  19.189  0.00  0.00    +0.000 C 
BRANCH  17  18
ATOM     18  C   UNL     1       1.689   4.437  19.448  0.00  0.00    +0.000 C 
ATOM     19  O   UNL     1       1.268   4.146  20.562  0.00  0.00    +0.000 OA
BRANCH  18  20
ATOM     20  OXT UNL     1       1.300   3.757  18.346  0.00  0.00    +0.000 OA
ATOM     21  HXT UNL     1       1.884   3.033  18.047  0.00  0.00    +0.000 HD
ENDBRANCH  18  20
ENDBRANCH  17  18
BRANCH  17  22
ATOM     22  C   UNL     1       4.064   5.467  19.565  0.00  0.00    +0.000 C 
BRANCH  22  23
ATOM     23  C   UNL     1       5.056   5.060  18.499  0.00  0.00    +0.000 A 
ATOM     24  C   UNL     1       6.438   5.125  18.775  0.00  0.00    +0.000 A 
ATOM     25  C   UNL     1       7.388   4.976  17.759  0.00  0.00    +0.000 A 
ATOM     26  C   UNL     1       6.955   4.762  16.459  0.00  0.00    +0.000 A 
ATOM     27  C   UNL     1       5.594   4.660  16.183  0.00  0.00    +0.000 A 
ATOM     28  C   UNL     1       4.642   4.783  17.191  0.00  0.00    +0.000 A 
BRANCH  26  29
ATOM     29  O   UNL     1       7.827   4.671  15.409  0.00  0.00    +0.000 OA
ATOM     30  H   UNL     1       7.580   3.894  14.878  0.00  0.00    +0.000 HD
ENDBRANCH  26  29
BRANCH  27  31
ATOM     31  O   UNL     1       5.175   4.494  14.894  0.00  0.00    +0.000 OA
ATOM     32  H   UNL     1       5.007   5.403  14.574  0.00  0.00    +0.000 HD
ENDBRANCH  27  31
ENDBRANCH  22  23
ENDBRANCH  17  22
ENDBRANCH   4  17
TORSDOF 9
ENDMDL
