MODEL 1
REMARK VINA RESULT:      -8.1      0.000      0.000
REMARK  Name = 
REMARK  6 active torsions:
REMARK  status: ('A' for Active; 'I' for Inactive)
REMARK    1  A    between atoms: C_1  and  N_2
REMARK    2  A    between atoms: C_4  and  C_5
REMARK    3  A    between atoms: C_8  and  C_10
REMARK    4  A    between atoms: C_19  and  C_20
REMARK    5  A    between atoms: C_20  and  C_21
REMARK    6  A    between atoms: C_21  and  O_23
REMARK                            x       y       z     vdW  Elec       q    Type
REMARK                         _______ _______ _______ _____ _____    ______ ____
ROOT
ATOM      1  C   UNL     1       5.369   6.614  16.631  0.00  0.00    +0.000 C 
ATOM      2  C   UNL     1       4.385   5.770  17.447  0.00  0.00    +0.000 C 
ATOM      3  N   UNL     1       5.223   5.131  18.459  0.00  0.00    +0.000 N 
ATOM      4  C   UNL     1       5.062   3.856  18.997  0.00  0.00    +0.000 C 
ATOM      5  O   UNL     1       5.974   3.322  19.632  0.00  0.00    +0.000 OA
ATOM      6  C   UNL     1       6.449   5.890  18.671  0.00  0.00    +0.000 C 
ATOM      7  C   UNL     1       6.338   7.102  17.731  0.00  0.00    +0.000 C 
ENDROOT
BRANCH   4   8
ATOM      8  C   UNL     1       3.799   3.128  18.738  0.00  0.00    +0.000 A 
ATOM      9  N   UNL     1       3.679   2.113  17.840  0.00  0.00    +0.000 NA
ATOM     10  N   UNL     1       2.387   1.718  17.913  0.00  0.00    +0.000 N 
ATOM     11  C   UNL     1       1.698   2.439  18.812  0.00  0.00    +0.000 A 
ATOM     12  C   UNL     1       2.548   3.361  19.342  0.00  0.00    +0.000 A 
ATOM     13  C   UNL     1       1.878   4.218  20.334  0.00  0.00    +0.000 C 
ATOM     14  C   UNL     1       0.407   3.648  20.340  0.00  0.00    +0.000 C 
ATOM     15  C   UNL     1       0.324   2.464  19.312  0.00  0.00    +0.000 C 
ATOM     16  H   UNL     1       2.076   0.957  17.319  0.00  0.00    +0.000 HD
ENDBRANCH   4   8
BRANCH   1  20
ATOM     17  C   UNL     1       6.562   3.609  12.780  0.00  0.00    +0.000 C 
ATOM     18  N   UNL     1       6.552   4.540  13.878  0.00  0.00    +0.000 N 
ATOM     19  C   UNL     1       5.475   5.023  14.551  0.00  0.00    +0.000 A 
ATOM     20  C   UNL     1       6.021   5.821  15.536  0.00  0.00    +0.000 A 
ATOM     21  N   UNL     1       7.387   5.796  15.413  0.00  0.00    +0.000 NA
ATOM     22  N   UNL     1       7.700   5.007  14.392  0.00  0.00    +0.000 NA
ENDBRANCH   1  20
BRANCH   7  23
ATOM     23  C   UNL     1       7.674   7.642  17.214  0.00  0.00    +0.000 C 
BRANCH  23  24
ATOM     24  C   UNL     1       8.191   8.802  18.028  0.00  0.00    +0.000 C 
ATOM     25  O   UNL     1       7.998   9.980  17.776  0.00  0.00    +0.000 OA
BRANCH  24  26
ATOM     26  O   UNL     1       8.908   8.397  19.102  0.00  0.00    +0.000 OA
ATOM     27  H   UNL     1       8.601   8.779  19.947  0.00  0.00    +0.000 HD
ENDBRANCH  24  26
ENDBRANCH  23  24
ENDBRANCH   7  23
TORSDOF 5
ENDMDL
MODEL 2
REMARK VINA RESULT:      -7.6      2.588      6.832
REMARK  Name = 
REMARK  6 active torsions:
REMARK  status: ('A' for Active; 'I' for Inactive)
REMARK    1  A    between atoms: C_1  and  N_2
REMARK    2  A    between atoms: C_4  and  C_5
REMARK    3  A    between atoms: C_8  and  C_10
REMARK    4  A    between atoms: C_19  and  C_20
REMARK    5  A    between atoms: C_20  and  C_21
REMARK    6  A    between atoms: C_21  and  O_23
REMARK                            x       y       z     vdW  Elec       q    Type
REMARK                         _______ _______ _______ _____ _____    ______ ____
ROOT
ATOM      1  C   UNL     1       2.019   4.784  18.219  0.00  0.00    +0.000 C 
ATOM      2  C   UNL     1       3.312   4.576  17.425  0.00  0.00    +0.000 C 
ATOM      3  N   UNL     1       4.253   4.056  18.414  0.00  0.00    +0.000 N 
ATOM      4  C   UNL     1       5.623   4.299  18.475  0.00  0.00    +0.000 C 
ATOM      5  O   UNL     1       6.263   4.038  19.495  0.00  0.00    +0.000 OA
ATOM      6  C   UNL     1       3.546   3.443  19.531  0.00  0.00    +0.000 C 
ATOM      7  C   UNL     1       2.054   3.577  19.183  0.00  0.00    +0.000 C 
ENDROOT
BRANCH   4   8
ATOM      8  C   UNL     1       6.286   4.936  17.314  0.00  0.00    +0.000 A 
ATOM      9  N   UNL     1       7.021   6.079  17.392  0.00  0.00    +0.000 NA
ATOM     10  N   UNL     1       7.454   6.315  16.133  0.00  0.00    +0.000 N 
ATOM     11  C   UNL     1       7.023   5.376  15.275  0.00  0.00    +0.000 A 
ATOM     12  C   UNL     1       6.258   4.495  15.976  0.00  0.00    +0.000 A 
ATOM     13  C   UNL     1       5.722   3.428  15.116  0.00  0.00    +0.000 C 
ATOM     14  C   UNL     1       6.310   3.803  13.700  0.00  0.00    +0.000 C 
ATOM     15  C   UNL     1       7.171   5.108  13.844  0.00  0.00    +0.000 C 
ATOM     16  H   UNL     1       8.032   7.131  15.961  0.00  0.00    +0.000 HD
ENDBRANCH   4   8
BRANCH   1  20
ATOM     17  C   UNL     1       1.500   8.708  21.320  0.00  0.00    +0.000 C 
ATOM     18  N   UNL     1       1.773   7.819  20.222  0.00  0.00    +0.000 N 
ATOM     19  C   UNL     1       1.667   6.465  20.199  0.00  0.00    +0.000 A 
ATOM     20  C   UNL     1       1.982   6.122  18.900  0.00  0.00    +0.000 A 
ATOM     21  N   UNL     1       2.272   7.267  18.203  0.00  0.00    +0.000 NA
ATOM     22  N   UNL     1       2.141   8.301  19.025  0.00  0.00    +0.000 NA
ENDBRANCH   1  20
BRANCH   7  23
ATOM     23  C   UNL     1       1.118   3.693  20.389  0.00  0.00    +0.000 C 
BRANCH  23  24
ATOM     24  C   UNL     1       1.705   3.098  21.645  0.00  0.00    +0.000 C 
ATOM     25  O   UNL     1       1.560   1.944  22.011  0.00  0.00    +0.000 OA
BRANCH  24  26
ATOM     26  O   UNL     1       2.436   3.996  22.345  0.00  0.00    +0.000 OA
ATOM     27  H   UNL     1       2.088   4.908  22.301  0.00  0.00    +0.000 HD
ENDBRANCH  24  26
ENDBRANCH  23  24
ENDBRANCH   7  23
TORSDOF 5
ENDMDL
MODEL 3
REMARK VINA RESULT:      -7.6      2.626      6.734
REMARK  Name = 
REMARK  6 active torsions:
REMARK  status: ('A' for Active; 'I' for Inactive)
REMARK    1  A    between atoms: C_1  and  N_2
REMARK    2  A    between atoms: C_4  and  C_5
REMARK    3  A    between atoms: C_8  and  C_10
REMARK    4  A    between atoms: C_19  and  C_20
REMARK    5  A    between atoms: C_20  and  C_21
REMARK    6  A    between atoms: C_21  and  O_23
REMARK                            x       y       z     vdW  Elec       q    Type
REMARK                         _______ _______ _______ _____ _____    ______ ____
ROOT
ATOM      1  C   UNL     1       2.717   4.714  18.235  0.00  0.00    +0.000 C 
ATOM      2  C   UNL     1       3.933   4.442  17.343  0.00  0.00    +0.000 C 
ATOM      3  N   UNL     1       5.046   4.350  18.284  0.00  0.00    +0.000 N 
ATOM      4  C   UNL     1       6.359   4.763  18.071  0.00  0.00    +0.000 C 
ATOM      5  O   UNL     1       7.140   4.889  19.016  0.00  0.00    +0.000 OA
ATOM      6  C   UNL     1       4.571   4.006  19.617  0.00  0.00    +0.000 C 
ATOM      7  C   UNL     1       3.047   3.851  19.474  0.00  0.00    +0.000 C 
ENDROOT
BRANCH   4   8
ATOM      8  C   UNL     1       6.782   5.112  16.695  0.00  0.00    +0.000 A 
ATOM      9  N   UNL     1       7.569   6.179  16.391  0.00  0.00    +0.000 NA
ATOM     10  N   UNL     1       7.728   6.137  15.048  0.00  0.00    +0.000 N 
ATOM     11  C   UNL     1       7.077   5.097  14.503  0.00  0.00    +0.000 A 
ATOM     12  C   UNL     1       6.443   4.433  15.508  0.00  0.00    +0.000 A 
ATOM     13  C   UNL     1       5.681   3.278  15.007  0.00  0.00    +0.000 C 
ATOM     14  C   UNL     1       5.964   3.328  13.456  0.00  0.00    +0.000 C 
ATOM     15  C   UNL     1       6.896   4.556  13.156  0.00  0.00    +0.000 C 
ATOM     16  H   UNL     1       8.293   6.852  14.602  0.00  0.00    +0.000 HD
ENDBRANCH   4   8
BRANCH   1  20
ATOM     17  C   UNL     1       1.464   9.268  19.960  0.00  0.00    +0.000 C 
ATOM     18  N   UNL     1       2.022   8.143  19.258  0.00  0.00    +0.000 N 
ATOM     19  C   UNL     1       1.848   6.822  19.527  0.00  0.00    +0.000 A 
ATOM     20  C   UNL     1       2.544   6.177  18.525  0.00  0.00    +0.000 A 
ATOM     21  N   UNL     1       3.112   7.121  17.708  0.00  0.00    +0.000 NA
ATOM     22  N   UNL     1       2.785   8.323  18.169  0.00  0.00    +0.000 NA
ENDBRANCH   1  20
BRANCH   7  23
ATOM     23  C   UNL     1       2.242   4.198  20.728  0.00  0.00    +0.000 C 
BRANCH  23  24
ATOM     24  C   UNL     1       1.318   3.084  21.157  0.00  0.00    +0.000 C 
ATOM     25  O   UNL     1       1.449   2.410  22.164  0.00  0.00    +0.000 OA
BRANCH  24  26
ATOM     26  O   UNL     1       0.295   2.905  20.290  0.00  0.00    +0.000 OA
ATOM     27  H   UNL     1      -0.565   2.742  20.724  0.00  0.00    +0.000 HD
ENDBRANCH  24  26
ENDBRANCH  23  24
ENDBRANCH   7  23
TORSDOF 5
ENDMDL
MODEL 4
REMARK VINA RESULT:      -7.2      2.944      4.330
REMARK  Name = 
REMARK  6 active torsions:
REMARK  status: ('A' for Active; 'I' for Inactive)
REMARK    1  A    between atoms: C_1  and  N_2
REMARK    2  A    between atoms: C_4  and  C_5
REMARK    3  A    between atoms: C_8  and  C_10
REMARK    4  A    between atoms: C_19  and  C_20
REMARK    5  A    between atoms: C_20  and  C_21
REMARK    6  A    between atoms: C_21  and  O_23
REMARK                            x       y       z     vdW  Elec       q    Type
REMARK                         _______ _______ _______ _____ _____    ______ ____
ROOT
ATOM      1  C   UNL     1       6.605   4.463  17.394  0.00  0.00    +0.000 C 
ATOM      2  C   UNL     1       5.256   4.201  18.069  0.00  0.00    +0.000 C 
ATOM      3  N   UNL     1       4.316   5.020  17.308  0.00  0.00    +0.000 N 
ATOM      4  C   UNL     1       3.193   5.682  17.800  0.00  0.00    +0.000 C 
ATOM      5  O   UNL     1       2.636   6.556  17.133  0.00  0.00    +0.000 OA
ATOM      6  C   UNL     1       4.834   5.302  15.977  0.00  0.00    +0.000 C 
ATOM      7  C   UNL     1       6.189   4.576  15.910  0.00  0.00    +0.000 C 
ENDROOT
BRANCH   4   8
ATOM      8  C   UNL     1       2.719   5.362  19.166  0.00  0.00    +0.000 A 
ATOM      9  N   UNL     1       2.656   6.269  20.179  0.00  0.00    +0.000 NA
ATOM     10  N   UNL     1       2.166   5.588  21.241  0.00  0.00    +0.000 N 
ATOM     11  C   UNL     1       1.924   4.303  20.937  0.00  0.00    +0.000 A 
ATOM     12  C   UNL     1       2.283   4.109  19.639  0.00  0.00    +0.000 A 
ATOM     13  C   UNL     1       2.069   2.717  19.213  0.00  0.00    +0.000 C 
ATOM     14  C   UNL     1       1.484   2.046  20.516  0.00  0.00    +0.000 C 
ATOM     15  C   UNL     1       1.404   3.133  21.646  0.00  0.00    +0.000 C 
ATOM     16  H   UNL     1       2.034   6.082  22.117  0.00  0.00    +0.000 HD
ENDBRANCH   4   8
BRANCH   1  20
ATOM     17  C   UNL     1       8.559   9.003  18.319  0.00  0.00    +0.000 C 
ATOM     18  N   UNL     1       8.125   7.632  18.361  0.00  0.00    +0.000 N 
ATOM     19  C   UNL     1       7.339   6.978  17.466  0.00  0.00    +0.000 A 
ATOM     20  C   UNL     1       7.285   5.684  17.943  0.00  0.00    +0.000 A 
ATOM     21  N   UNL     1       8.022   5.612  19.097  0.00  0.00    +0.000 NA
ATOM     22  N   UNL     1       8.532   6.813  19.343  0.00  0.00    +0.000 NA
ENDBRANCH   1  20
BRANCH   7  23
ATOM     23  C   UNL     1       7.230   5.233  15.001  0.00  0.00    +0.000 C 
BRANCH  23  24
ATOM     24  C   UNL     1       7.133   4.768  13.569  0.00  0.00    +0.000 C 
ATOM     25  O   UNL     1       6.440   3.846  13.174  0.00  0.00    +0.000 OA
BRANCH  24  26
ATOM     26  O   UNL     1       7.909   5.500  12.738  0.00  0.00    +0.000 OA
ATOM     27  H   UNL     1       8.084   5.069  11.879  0.00  0.00    +0.000 HD
ENDBRANCH  24  26
ENDBRANCH  23  24
ENDBRANCH   7  23
TORSDOF 5
ENDMDL
MODEL 5
REMARK VINA RESULT:      -7.0      9.715     11.153
REMARK  Name = 
REMARK  6 active torsions:
REMARK  status: ('A' for Active; 'I' for Inactive)
REMARK    1  A    between atoms: C_1  and  N_2
REMARK    2  A    between atoms: C_4  and  C_5
REMARK    3  A    between atoms: C_8  and  C_10
REMARK    4  A    between atoms: C_19  and  C_20
REMARK    5  A    between atoms: C_20  and  C_21
REMARK    6  A    between atoms: C_21  and  O_23
REMARK                            x       y       z     vdW  Elec       q    Type
REMARK                         _______ _______ _______ _____ _____    ______ ____
ROOT
ATOM      1  C   UNL     1      -0.229  12.233  19.277  0.00  0.00    +0.000 C 
ATOM      2  C   UNL     1      -0.296  12.906  20.651  0.00  0.00    +0.000 C 
ATOM      3  N   UNL     1      -0.404  11.789  21.586  0.00  0.00    +0.000 N 
ATOM      4  C   UNL     1      -1.119  11.763  22.781  0.00  0.00    +0.000 C 
ATOM      5  O   UNL     1      -1.362  10.694  23.345  0.00  0.00    +0.000 OA
ATOM      6  C   UNL     1       0.119  10.565  20.994  0.00  0.00    +0.000 C 
ATOM      7  C   UNL     1       0.609  10.973  19.594  0.00  0.00    +0.000 C 
ENDROOT
BRANCH   4   8
ATOM      8  C   UNL     1      -1.637  13.037  23.329  0.00  0.00    +0.000 A 
ATOM      9  N   UNL     1      -0.847  14.021  23.838  0.00  0.00    +0.000 NA
ATOM     10  N   UNL     1      -1.695  15.004  24.216  0.00  0.00    +0.000 N 
ATOM     11  C   UNL     1      -2.974  14.679  23.967  0.00  0.00    +0.000 A 
ATOM     12  C   UNL     1      -2.986  13.430  23.427  0.00  0.00    +0.000 A 
ATOM     13  C   UNL     1      -4.354  12.974  23.132  0.00  0.00    +0.000 C 
ATOM     14  C   UNL     1      -5.231  14.202  23.591  0.00  0.00    +0.000 C 
ATOM     15  C   UNL     1      -4.278  15.320  24.145  0.00  0.00    +0.000 C 
ATOM     16  H   UNL     1      -1.310  15.848  24.626  0.00  0.00    +0.000 HD
ENDBRANCH   4   8
BRANCH   1  20
ATOM     17  C   UNL     1      -4.272  11.165  16.486  0.00  0.00    +0.000 C 
ATOM     18  N   UNL     1      -3.342  11.483  17.536  0.00  0.00    +0.000 N 
ATOM     19  C   UNL     1      -1.987  11.542  17.460  0.00  0.00    +0.000 A 
ATOM     20  C   UNL     1      -1.593  11.947  18.719  0.00  0.00    +0.000 A 
ATOM     21  N   UNL     1      -2.711  12.104  19.498  0.00  0.00    +0.000 NA
ATOM     22  N   UNL     1      -3.777  11.816  18.761  0.00  0.00    +0.000 NA
ENDBRANCH   1  20
BRANCH   7  23
ATOM     23  C   UNL     1       0.532   9.870  18.535  0.00  0.00    +0.000 C 
BRANCH  23  24
ATOM     24  C   UNL     1       1.806   9.733  17.739  0.00  0.00    +0.000 C 
ATOM     25  O   UNL     1       2.320   8.678  17.410  0.00  0.00    +0.000 OA
BRANCH  24  26
ATOM     26  O   UNL     1       2.337  10.933  17.411  0.00  0.00    +0.000 OA
ATOM     27  H   UNL     1       1.962  11.321  16.596  0.00  0.00    +0.000 HD
ENDBRANCH  24  26
ENDBRANCH  23  24
ENDBRANCH   7  23
TORSDOF 5
ENDMDL
MODEL 6
REMARK VINA RESULT:      -6.8     10.773     12.780
REMARK  Name = 
REMARK  6 active torsions:
REMARK  status: ('A' for Active; 'I' for Inactive)
REMARK    1  A    between atoms: C_1  and  N_2
REMARK    2  A    between atoms: C_4  and  C_5
REMARK    3  A    between atoms: C_8  and  C_10
REMARK    4  A    between atoms: C_19  and  C_20
REMARK    5  A    between atoms: C_20  and  C_21
REMARK    6  A    between atoms: C_21  and  O_23
REMARK                            x       y       z     vdW  Elec       q    Type
REMARK                         _______ _______ _______ _____ _____    ______ ____
ROOT
ATOM      1  C   UNL     1      -2.168  12.487  23.390  0.00  0.00    +0.000 C 
ATOM      2  C   UNL     1      -1.365  12.086  22.149  0.00  0.00    +0.000 C 
ATOM      3  N   UNL     1      -1.123  13.351  21.462  0.00  0.00    +0.000 N 
ATOM      4  C   UNL     1      -1.063  13.559  20.085  0.00  0.00    +0.000 C 
ATOM      5  O   UNL     1      -1.127  14.697  19.618  0.00  0.00    +0.000 OA
ATOM      6  C   UNL     1      -1.214  14.471  22.389  0.00  0.00    +0.000 C 
ATOM      7  C   UNL     1      -1.509  13.836  23.758  0.00  0.00    +0.000 C 
ENDROOT
BRANCH   4   8
ATOM      8  C   UNL     1      -0.985  12.381  19.191  0.00  0.00    +0.000 A 
ATOM      9  N   UNL     1       0.183  11.804  18.797  0.00  0.00    +0.000 NA
ATOM     10  N   UNL     1      -0.177  10.767  18.007  0.00  0.00    +0.000 N 
ATOM     11  C   UNL     1      -1.511  10.672  17.889  0.00  0.00    +0.000 A 
ATOM     12  C   UNL     1      -2.063  11.691  18.604  0.00  0.00    +0.000 A 
ATOM     13  C   UNL     1      -3.533  11.683  18.524  0.00  0.00    +0.000 C 
ATOM     14  C   UNL     1      -3.819  10.432  17.606  0.00  0.00    +0.000 C 
ATOM     15  C   UNL     1      -2.448   9.784  17.200  0.00  0.00    +0.000 C 
ATOM     16  H   UNL     1       0.551  10.189  17.600  0.00  0.00    +0.000 HD
ENDBRANCH   4   8
BRANCH   1  20
ATOM     17  C   UNL     1      -6.783  13.236  21.540  0.00  0.00    +0.000 C 
ATOM     18  N   UNL     1      -5.632  12.879  22.326  0.00  0.00    +0.000 N 
ATOM     19  C   UNL     1      -4.322  12.990  21.984  0.00  0.00    +0.000 A 
ATOM     20  C   UNL     1      -3.640  12.571  23.109  0.00  0.00    +0.000 A 
ATOM     21  N   UNL     1      -4.555  12.218  24.068  0.00  0.00    +0.000 NA
ATOM     22  N   UNL     1      -5.773  12.411  23.576  0.00  0.00    +0.000 NA
ENDBRANCH   1  20
BRANCH   7  23
ATOM     23  C   UNL     1      -2.328  14.709  24.712  0.00  0.00    +0.000 C 
BRANCH  23  24
ATOM     24  C   UNL     1      -1.494  15.758  25.407  0.00  0.00    +0.000 C 
ATOM     25  O   UNL     1      -0.389  15.573  25.886  0.00  0.00    +0.000 OA
BRANCH  24  26
ATOM     26  O   UNL     1      -2.110  16.962  25.442  0.00  0.00    +0.000 OA
ATOM     27  H   UNL     1      -2.974  16.949  25.897  0.00  0.00    +0.000 HD
ENDBRANCH  24  26
ENDBRANCH  23  24
ENDBRANCH   7  23
TORSDOF 5
ENDMDL
MODEL 7
REMARK VINA RESULT:      -6.8      2.946      4.410
REMARK  Name = 
REMARK  6 active torsions:
REMARK  status: ('A' for Active; 'I' for Inactive)
REMARK    1  A    between atoms: C_1  and  N_2
REMARK    2  A    between atoms: C_4  and  C_5
REMARK    3  A    between atoms: C_8  and  C_10
REMARK    4  A    between atoms: C_19  and  C_20
REMARK    5  A    between atoms: C_20  and  C_21
REMARK    6  A    between atoms: C_21  and  O_23
REMARK                            x       y       z     vdW  Elec       q    Type
REMARK                         _______ _______ _______ _____ _____    ______ ____
ROOT
ATOM      1  C   UNL     1       6.814   4.625  17.315  0.00  0.00    +0.000 C 
ATOM      2  C   UNL     1       5.576   4.247  18.133  0.00  0.00    +0.000 C 
ATOM      3  N   UNL     1       4.457   4.637  17.280  0.00  0.00    +0.000 N 
ATOM      4  C   UNL     1       3.224   5.140  17.692  0.00  0.00    +0.000 C 
ATOM      5  O   UNL     1       2.468   5.687  16.887  0.00  0.00    +0.000 OA
ATOM      6  C   UNL     1       4.866   4.697  15.883  0.00  0.00    +0.000 C 
ATOM      7  C   UNL     1       6.348   4.286  15.881  0.00  0.00    +0.000 C 
ENDROOT
BRANCH   4   8
ATOM      8  C   UNL     1       2.868   5.063  19.127  0.00  0.00    +0.000 A 
ATOM      9  N   UNL     1       2.779   6.146  19.946  0.00  0.00    +0.000 NA
ATOM     10  N   UNL     1       2.424   5.654  21.155  0.00  0.00    +0.000 N 
ATOM     11  C   UNL     1       2.288   4.319  21.128  0.00  0.00    +0.000 A 
ATOM     12  C   UNL     1       2.583   3.899  19.867  0.00  0.00    +0.000 A 
ATOM     13  C   UNL     1       2.478   2.436  19.738  0.00  0.00    +0.000 C 
ATOM     14  C   UNL     1       2.042   1.995  21.189  0.00  0.00    +0.000 C 
ATOM     15  C   UNL     1       1.927   3.276  22.089  0.00  0.00    +0.000 C 
ATOM     16  H   UNL     1       2.298   6.301  21.927  0.00  0.00    +0.000 HD
ENDBRANCH   4   8
BRANCH   1  20
ATOM     17  C   UNL     1       8.663   9.045  18.838  0.00  0.00    +0.000 C 
ATOM     18  N   UNL     1       8.002   7.967  18.152  0.00  0.00    +0.000 N 
ATOM     19  C   UNL     1       8.075   6.638  18.423  0.00  0.00    +0.000 A 
ATOM     20  C   UNL     1       7.210   6.059  17.516  0.00  0.00    +0.000 A 
ATOM     21  N   UNL     1       6.664   7.048  16.739  0.00  0.00    +0.000 NA
ATOM     22  N   UNL     1       7.158   8.214  17.138  0.00  0.00    +0.000 NA
ENDBRANCH   1  20
BRANCH   7  23
ATOM     23  C   UNL     1       7.191   4.914  14.768  0.00  0.00    +0.000 C 
BRANCH  23  24
ATOM     24  C   UNL     1       6.965   4.264  13.425  0.00  0.00    +0.000 C 
ATOM     25  O   UNL     1       7.351   4.705  12.356  0.00  0.00    +0.000 OA
BRANCH  24  26
ATOM     26  O   UNL     1       6.276   3.104  13.526  0.00  0.00    +0.000 OA
ATOM     27  H   UNL     1       6.064   2.850  14.445  0.00  0.00    +0.000 HD
ENDBRANCH  24  26
ENDBRANCH  23  24
ENDBRANCH   7  23
TORSDOF 5
ENDMDL
MODEL 8
REMARK VINA RESULT:      -6.8     10.870     12.528
REMARK  Name = 
REMARK  6 active torsions:
REMARK  status: ('A' for Active; 'I' for Inactive)
REMARK    1  A    between atoms: C_1  and  N_2
REMARK    2  A    between atoms: C_4  and  C_5
REMARK    3  A    between atoms: C_8  and  C_10
REMARK    4  A    between atoms: C_19  and  C_20
REMARK    5  A    between atoms: C_20  and  C_21
REMARK    6  A    between atoms: C_21  and  O_23
REMARK                            x       y       z     vdW  Elec       q    Type
REMARK                         _______ _______ _______ _____ _____    ______ ____
ROOT
ATOM      1  C   UNL     1      -3.722  10.088  17.688  0.00  0.00    +0.000 C 
ATOM      2  C   UNL     1      -4.932  10.385  18.579  0.00  0.00    +0.000 C 
ATOM      3  N   UNL     1      -5.433  11.662  18.080  0.00  0.00    +0.000 N 
ATOM      4  C   UNL     1      -6.015  12.684  18.828  0.00  0.00    +0.000 C 
ATOM      5  O   UNL     1      -6.147  13.813  18.352  0.00  0.00    +0.000 OA
ATOM      6  C   UNL     1      -5.010  11.883  16.703  0.00  0.00    +0.000 C 
ATOM      7  C   UNL     1      -4.208  10.627  16.323  0.00  0.00    +0.000 C 
ENDROOT
BRANCH   4   8
ATOM      8  C   UNL     1      -6.413  12.404  20.226  0.00  0.00    +0.000 A 
ATOM      9  N   UNL     1      -7.419  11.557  20.573  0.00  0.00    +0.000 NA
ATOM     10  N   UNL     1      -7.453  11.573  21.925  0.00  0.00    +0.000 N 
ATOM     11  C   UNL     1      -6.517  12.390  22.435  0.00  0.00    +0.000 A 
ATOM     12  C   UNL     1      -5.850  12.957  21.393  0.00  0.00    +0.000 A 
ATOM     13  C   UNL     1      -4.807  13.888  21.852  0.00  0.00    +0.000 C 
ATOM     14  C   UNL     1      -4.935  13.798  23.422  0.00  0.00    +0.000 C 
ATOM     15  C   UNL     1      -6.087  12.792  23.775  0.00  0.00    +0.000 C 
ATOM     16  H   UNL     1      -8.140  10.999  22.402  0.00  0.00    +0.000 HD
ENDBRANCH   4   8
BRANCH   1  20
ATOM     17  C   UNL     1      -0.169  13.089  19.598  0.00  0.00    +0.000 C 
ATOM     18  N   UNL     1      -0.929  12.009  19.026  0.00  0.00    +0.000 N 
ATOM     19  C   UNL     1      -2.272  11.948  18.831  0.00  0.00    +0.000 A 
ATOM     20  C   UNL     1      -2.469  10.736  18.201  0.00  0.00    +0.000 A 
ATOM     21  N   UNL     1      -1.253  10.118  18.052  0.00  0.00    +0.000 NA
ATOM     22  N   UNL     1      -0.317  10.909  18.563  0.00  0.00    +0.000 NA
ENDBRANCH   1  20
BRANCH   7  23
ATOM     23  C   UNL     1      -3.098  10.856  15.294  0.00  0.00    +0.000 C 
BRANCH  23  24
ATOM     24  C   UNL     1      -3.305  10.066  14.025  0.00  0.00    +0.000 C 
ATOM     25  O   UNL     1      -2.418   9.691  13.277  0.00  0.00    +0.000 OA
BRANCH  24  26
ATOM     26  O   UNL     1      -4.611   9.802  13.792  0.00  0.00    +0.000 OA
ATOM     27  H   UNL     1      -5.200  10.040  14.535  0.00  0.00    +0.000 HD
ENDBRANCH  24  26
ENDBRANCH  23  24
ENDBRANCH   7  23
TORSDOF 5
ENDMDL
MODEL 9
REMARK VINA RESULT:      -6.6      9.884     11.683
REMARK  Name = 
REMARK  6 active torsions:
REMARK  status: ('A' for Active; 'I' for Inactive)
REMARK    1  A    between atoms: C_1  and  N_2
REMARK    2  A    between atoms: C_4  and  C_5
REMARK    3  A    between atoms: C_8  and  C_10
REMARK    4  A    between atoms: C_19  and  C_20
REMARK    5  A    between atoms: C_20  and  C_21
REMARK    6  A    between atoms: C_21  and  O_23
REMARK                            x       y       z     vdW  Elec       q    Type
REMARK                         _______ _______ _______ _____ _____    ______ ____
ROOT
ATOM      1  C   UNL     1      -2.513  11.745  17.188  0.00  0.00    +0.000 C 
ATOM      2  C   UNL     1      -1.446  12.189  18.193  0.00  0.00    +0.000 C 
ATOM      3  N   UNL     1      -1.045  10.949  18.852  0.00  0.00    +0.000 N 
ATOM      4  C   UNL     1      -0.665  10.793  20.183  0.00  0.00    +0.000 C 
ATOM      5  O   UNL     1      -0.613   9.673  20.694  0.00  0.00    +0.000 OA
ATOM      6  C   UNL     1      -1.342   9.796  18.012  0.00  0.00    +0.000 C 
ATOM      7  C   UNL     1      -1.950  10.381  16.727  0.00  0.00    +0.000 C 
ENDROOT
BRANCH   4   8
ATOM      8  C   UNL     1      -0.388  12.002  20.991  0.00  0.00    +0.000 A 
ATOM      9  N   UNL     1       0.736  12.759  20.863  0.00  0.00    +0.000 NA
ATOM     10  N   UNL     1       0.599  13.761  21.761  0.00  0.00    +0.000 N 
ATOM     11  C   UNL     1      -0.554  13.664  22.441  0.00  0.00    +0.000 A 
ATOM     12  C   UNL     1      -1.201  12.550  22.003  0.00  0.00    +0.000 A 
ATOM     13  C   UNL     1      -2.478  12.345  22.705  0.00  0.00    +0.000 C 
ATOM     14  C   UNL     1      -2.526  13.575  23.692  0.00  0.00    +0.000 C 
ATOM     15  C   UNL     1      -1.227  14.431  23.490  0.00  0.00    +0.000 C 
ATOM     16  H   UNL     1       1.336  14.455  21.832  0.00  0.00    +0.000 HD
ENDBRANCH   4   8
BRANCH   1  20
ATOM     17  C   UNL     1      -6.545  11.430  20.175  0.00  0.00    +0.000 C 
ATOM     18  N   UNL     1      -5.625  11.549  19.075  0.00  0.00    +0.000 N 
ATOM     19  C   UNL     1      -4.271  11.652  19.129  0.00  0.00    +0.000 A 
ATOM     20  C   UNL     1      -3.879  11.676  17.806  0.00  0.00    +0.000 A 
ATOM     21  N   UNL     1      -4.998  11.599  17.017  0.00  0.00    +0.000 NA
ATOM     22  N   UNL     1      -6.063  11.522  17.807  0.00  0.00    +0.000 NA
ENDBRANCH   1  20
BRANCH   7  23
ATOM     23  C   UNL     1      -2.964   9.476  16.022  0.00  0.00    +0.000 C 
BRANCH  23  24
ATOM     24  C   UNL     1      -3.213   9.882  14.590  0.00  0.00    +0.000 C 
ATOM     25  O   UNL     1      -2.386   9.849  13.695  0.00  0.00    +0.000 OA
BRANCH  24  26
ATOM     26  O   UNL     1      -4.486  10.292  14.388  0.00  0.00    +0.000 OA
ATOM     27  H   UNL     1      -5.160   9.642  14.667  0.00  0.00    +0.000 HD
ENDBRANCH  24  26
ENDBRANCH  23  24
ENDBRANCH   7  23
TORSDOF 5
ENDMDL
