MODEL 1
REMARK VINA RESULT:      -7.6      0.000      0.000
REMARK  Name = 
REMARK  4 active torsions:
REMARK  status: ('A' for Active; 'I' for Inactive)
REMARK    1  A    between atoms: C_1  and  O_2
REMARK    2  A    between atoms: O_2  and  C_3
REMARK    3  A    between atoms: C_6  and  O_7
REMARK    4  A    between atoms: O_7  and  C_8
REMARK                            x       y       z     vdW  Elec       q    Type
REMARK                         _______ _______ _______ _____ _____    ______ ____
ROOT
ATOM      1  C   UNL     1       5.714   4.293  14.896  0.00  0.00    +0.000 A 
ATOM      2  C   UNL     1       7.055   4.668  14.950  0.00  0.00    +0.000 A 
ATOM      3  C   UNL     1       7.715   4.839  16.188  0.00  0.00    +0.000 A 
ATOM      4  C   UNL     1       7.060   4.646  17.416  0.00  0.00    +0.000 A 
ATOM      5  C   UNL     1       5.729   4.268  17.352  0.00  0.00    +0.000 A 
ATOM      6  C   UNL     1       5.062   4.090  16.102  0.00  0.00    +0.000 A 
ATOM      7  C   UNL     1       3.596   3.663  16.235  0.00  0.00    +0.000 C 
ATOM      8  C   UNL     1       3.541   3.635  17.719  0.00  0.00    +0.000 A 
ATOM      9  C   UNL     1       4.723   3.970  18.328  0.00  0.00    +0.000 A 
ATOM     10  N   UNL     1       4.561   3.916  19.672  0.00  0.00    +0.000 N 
ATOM     11  C   UNL     1       3.242   3.538  19.938  0.00  0.00    +0.000 A 
ATOM     12  C   UNL     1       2.571   3.345  21.155  0.00  0.00    +0.000 A 
ATOM     13  C   UNL     1       1.223   2.956  21.105  0.00  0.00    +0.000 A 
ATOM     14  C   UNL     1       0.566   2.768  19.890  0.00  0.00    +0.000 A 
ATOM     15  C   UNL     1       1.239   2.966  18.684  0.00  0.00    +0.000 A 
ATOM     16  C   UNL     1       2.588   3.355  18.708  0.00  0.00    +0.000 A 
ATOM     17  H   UNL     1       5.265   4.119  20.367  0.00  0.00    +0.000 HD
ENDROOT
BRANCH   1  19
ATOM     18  C   UNL     1       5.609   3.523  12.655  0.00  0.00    +0.000 C 
ATOM     19  O   UNL     1       4.964   4.102  13.779  0.00  0.00    +0.000 OA
ENDBRANCH   1  19
BRANCH   4  20
ATOM     20  O   UNL     1       7.638   4.801  18.646  0.00  0.00    +0.000 OA
ATOM     21  C   UNL     1       7.882   6.145  19.058  0.00  0.00    +0.000 C 
ENDBRANCH   4  20
TORSDOF 2
ENDMDL
MODEL 2
REMARK VINA RESULT:      -7.4      4.110      5.139
REMARK  Name = 
REMARK  4 active torsions:
REMARK  status: ('A' for Active; 'I' for Inactive)
REMARK    1  A    between atoms: C_1  and  O_2
REMARK    2  A    between atoms: O_2  and  C_3
REMARK    3  A    between atoms: C_6  and  O_7
REMARK    4  A    between atoms: O_7  and  C_8
REMARK                            x       y       z     vdW  Elec       q    Type
REMARK                         _______ _______ _______ _____ _____    ______ ____
ROOT
ATOM      1  C   UNL     1       4.166   4.065  17.482  0.00  0.00    +0.000 A 
ATOM      2  C   UNL     1       4.260   2.872  18.196  0.00  0.00    +0.000 A 
ATOM      3  C   UNL     1       3.720   2.756  19.496  0.00  0.00    +0.000 A 
ATOM      4  C   UNL     1       3.070   3.827  20.133  0.00  0.00    +0.000 A 
ATOM      5  C   UNL     1       2.975   5.006  19.413  0.00  0.00    +0.000 A 
ATOM      6  C   UNL     1       3.517   5.124  18.097  0.00  0.00    +0.000 A 
ATOM      7  C   UNL     1       3.308   6.502  17.459  0.00  0.00    +0.000 C 
ATOM      8  C   UNL     1       2.588   7.129  18.597  0.00  0.00    +0.000 A 
ATOM      9  C   UNL     1       2.408   6.297  19.672  0.00  0.00    +0.000 A 
ATOM     10  N   UNL     1       1.748   6.967  20.647  0.00  0.00    +0.000 N 
ATOM     11  C   UNL     1       1.496   8.263  20.192  0.00  0.00    +0.000 A 
ATOM     12  C   UNL     1       0.853   9.345  20.813  0.00  0.00    +0.000 A 
ATOM     13  C   UNL     1       0.746  10.545  20.093  0.00  0.00    +0.000 A 
ATOM     14  C   UNL     1       1.260  10.666  18.803  0.00  0.00    +0.000 A 
ATOM     15  C   UNL     1       1.901   9.588  18.193  0.00  0.00    +0.000 A 
ATOM     16  C   UNL     1       2.021   8.376  18.894  0.00  0.00    +0.000 A 
ATOM     17  H   UNL     1       1.487   6.600  21.551  0.00  0.00    +0.000 HD
ENDROOT
BRANCH   1  19
ATOM     18  C   UNL     1       6.005   3.983  15.986  0.00  0.00    +0.000 C 
ATOM     19  O   UNL     1       4.645   4.310  16.235  0.00  0.00    +0.000 OA
ENDBRANCH   1  19
BRANCH   4  20
ATOM     20  O   UNL     1       2.532   3.782  21.390  0.00  0.00    +0.000 OA
ATOM     21  C   UNL     1       1.473   2.846  21.584  0.00  0.00    +0.000 C 
ENDBRANCH   4  20
TORSDOF 2
ENDMDL
MODEL 3
REMARK VINA RESULT:      -7.2      4.268      5.020
REMARK  Name = 
REMARK  4 active torsions:
REMARK  status: ('A' for Active; 'I' for Inactive)
REMARK    1  A    between atoms: C_1  and  O_2
REMARK    2  A    between atoms: O_2  and  C_3
REMARK    3  A    between atoms: C_6  and  O_7
REMARK    4  A    between atoms: O_7  and  C_8
REMARK                            x       y       z     vdW  Elec       q    Type
REMARK                         _______ _______ _______ _____ _____    ______ ____
ROOT
ATOM      1  C   UNL     1       4.470   5.390  17.201  0.00  0.00    +0.000 A 
ATOM      2  C   UNL     1       4.804   4.087  17.565  0.00  0.00    +0.000 A 
ATOM      3  C   UNL     1       4.310   3.515  18.759  0.00  0.00    +0.000 A 
ATOM      4  C   UNL     1       3.468   4.223  19.634  0.00  0.00    +0.000 A 
ATOM      5  C   UNL     1       3.137   5.515  19.261  0.00  0.00    +0.000 A 
ATOM      6  C   UNL     1       3.632   6.093  18.053  0.00  0.00    +0.000 A 
ATOM      7  C   UNL     1       3.150   7.527  17.807  0.00  0.00    +0.000 C 
ATOM      8  C   UNL     1       2.332   7.665  19.039  0.00  0.00    +0.000 A 
ATOM      9  C   UNL     1       2.330   6.550  19.836  0.00  0.00    +0.000 A 
ATOM     10  N   UNL     1       1.561   6.784  20.927  0.00  0.00    +0.000 N 
ATOM     11  C   UNL     1       1.055   8.083  20.833  0.00  0.00    +0.000 A 
ATOM     12  C   UNL     1       0.218   8.807  21.696  0.00  0.00    +0.000 A 
ATOM     13  C   UNL     1      -0.130  10.116  21.327  0.00  0.00    +0.000 A 
ATOM     14  C   UNL     1       0.338  10.684  20.144  0.00  0.00    +0.000 A 
ATOM     15  C   UNL     1       1.172   9.961  19.292  0.00  0.00    +0.000 A 
ATOM     16  C   UNL     1       1.534   8.649  19.639  0.00  0.00    +0.000 A 
ATOM     17  H   UNL     1       1.386   6.139  21.683  0.00  0.00    +0.000 HD
ENDROOT
BRANCH   1  19
ATOM     18  C   UNL     1       5.682   5.343  15.162  0.00  0.00    +0.000 C 
ATOM     19  O   UNL     1       4.879   6.058  16.091  0.00  0.00    +0.000 OA
ENDBRANCH   1  19
BRANCH   4  20
ATOM     20  O   UNL     1       2.962   3.730  20.805  0.00  0.00    +0.000 OA
ATOM     21  C   UNL     1       1.854   2.840  20.683  0.00  0.00    +0.000 C 
ENDBRANCH   4  20
TORSDOF 2
ENDMDL
MODEL 4
REMARK VINA RESULT:      -7.0      2.159      5.888
REMARK  Name = 
REMARK  4 active torsions:
REMARK  status: ('A' for Active; 'I' for Inactive)
REMARK    1  A    between atoms: C_1  and  O_2
REMARK    2  A    between atoms: O_2  and  C_3
REMARK    3  A    between atoms: C_6  and  O_7
REMARK    4  A    between atoms: O_7  and  C_8
REMARK                            x       y       z     vdW  Elec       q    Type
REMARK                         _______ _______ _______ _____ _____    ______ ____
ROOT
ATOM      1  C   UNL     1       4.332   4.120  18.594  0.00  0.00    +0.000 A 
ATOM      2  C   UNL     1       4.861   4.808  19.684  0.00  0.00    +0.000 A 
ATOM      3  C   UNL     1       6.020   5.604  19.549  0.00  0.00    +0.000 A 
ATOM      4  C   UNL     1       6.696   5.739  18.324  0.00  0.00    +0.000 A 
ATOM      5  C   UNL     1       6.159   5.056  17.246  0.00  0.00    +0.000 A 
ATOM      6  C   UNL     1       4.984   4.254  17.379  0.00  0.00    +0.000 A 
ATOM      7  C   UNL     1       4.538   3.584  16.075  0.00  0.00    +0.000 C 
ATOM      8  C   UNL     1       5.622   4.115  15.209  0.00  0.00    +0.000 A 
ATOM      9  C   UNL     1       6.513   4.927  15.863  0.00  0.00    +0.000 A 
ATOM     10  N   UNL     1       7.455   5.349  14.986  0.00  0.00    +0.000 N 
ATOM     11  C   UNL     1       7.168   4.796  13.736  0.00  0.00    +0.000 A 
ATOM     12  C   UNL     1       7.831   4.916  12.505  0.00  0.00    +0.000 A 
ATOM     13  C   UNL     1       7.294   4.233  11.402  0.00  0.00    +0.000 A 
ATOM     14  C   UNL     1       6.142   3.459  11.519  0.00  0.00    +0.000 A 
ATOM     15  C   UNL     1       5.490   3.341  12.747  0.00  0.00    +0.000 A 
ATOM     16  C   UNL     1       6.007   4.015  13.865  0.00  0.00    +0.000 A 
ATOM     17  H   UNL     1       8.237   5.953  15.196  0.00  0.00    +0.000 HD
ENDROOT
BRANCH   1  19
ATOM     18  C   UNL     1       2.979   2.558  19.761  0.00  0.00    +0.000 C 
ATOM     19  O   UNL     1       3.233   3.320  18.589  0.00  0.00    +0.000 OA
ENDBRANCH   1  19
BRANCH   4  20
ATOM     20  O   UNL     1       7.824   6.487  18.129  0.00  0.00    +0.000 OA
ATOM     21  C   UNL     1       7.617   7.825  17.677  0.00  0.00    +0.000 C 
ENDBRANCH   4  20
TORSDOF 2
ENDMDL
MODEL 5
REMARK VINA RESULT:      -7.0      3.951      6.423
REMARK  Name = 
REMARK  4 active torsions:
REMARK  status: ('A' for Active; 'I' for Inactive)
REMARK    1  A    between atoms: C_1  and  O_2
REMARK    2  A    between atoms: O_2  and  C_3
REMARK    3  A    between atoms: C_6  and  O_7
REMARK    4  A    between atoms: O_7  and  C_8
REMARK                            x       y       z     vdW  Elec       q    Type
REMARK                         _______ _______ _______ _____ _____    ______ ____
ROOT
ATOM      1  C   UNL     1       1.584   8.693  19.495  0.00  0.00    +0.000 A 
ATOM      2  C   UNL     1       0.947   8.345  20.684  0.00  0.00    +0.000 A 
ATOM      3  C   UNL     1       1.099   7.055  21.241  0.00  0.00    +0.000 A 
ATOM      4  C   UNL     1       1.887   6.066  20.630  0.00  0.00    +0.000 A 
ATOM      5  C   UNL     1       2.522   6.423  19.452  0.00  0.00    +0.000 A 
ATOM      6  C   UNL     1       2.373   7.727  18.890  0.00  0.00    +0.000 A 
ATOM      7  C   UNL     1       3.158   7.937  17.590  0.00  0.00    +0.000 C 
ATOM      8  C   UNL     1       3.750   6.578  17.506  0.00  0.00    +0.000 A 
ATOM      9  C   UNL     1       3.395   5.748  18.538  0.00  0.00    +0.000 A 
ATOM     10  N   UNL     1       3.984   4.541  18.362  0.00  0.00    +0.000 N 
ATOM     11  C   UNL     1       4.738   4.591  17.187  0.00  0.00    +0.000 A 
ATOM     12  C   UNL     1       5.527   3.614  16.560  0.00  0.00    +0.000 A 
ATOM     13  C   UNL     1       6.180   3.965  15.368  0.00  0.00    +0.000 A 
ATOM     14  C   UNL     1       6.052   5.239  14.818  0.00  0.00    +0.000 A 
ATOM     15  C   UNL     1       5.263   6.204  15.444  0.00  0.00    +0.000 A 
ATOM     16  C   UNL     1       4.600   5.877  16.638  0.00  0.00    +0.000 A 
ATOM     17  H   UNL     1       3.893   3.738  18.967  0.00  0.00    +0.000 HD
ENDROOT
BRANCH   1  19
ATOM     18  C   UNL     1       0.225  10.412  18.587  0.00  0.00    +0.000 C 
ATOM     19  O   UNL     1       1.518   9.889  18.852  0.00  0.00    +0.000 OA
ENDBRANCH   1  19
BRANCH   4  20
ATOM     20  O   UNL     1       2.069   4.799  21.114  0.00  0.00    +0.000 OA
ATOM     21  C   UNL     1       1.143   3.815  20.656  0.00  0.00    +0.000 C 
ENDBRANCH   4  20
TORSDOF 2
ENDMDL
MODEL 6
REMARK VINA RESULT:      -7.0      1.306      3.483
REMARK  Name = 
REMARK  4 active torsions:
REMARK  status: ('A' for Active; 'I' for Inactive)
REMARK    1  A    between atoms: C_1  and  O_2
REMARK    2  A    between atoms: O_2  and  C_3
REMARK    3  A    between atoms: C_6  and  O_7
REMARK    4  A    between atoms: O_7  and  C_8
REMARK                            x       y       z     vdW  Elec       q    Type
REMARK                         _______ _______ _______ _____ _____    ______ ____
ROOT
ATOM      1  C   UNL     1       7.109   6.132  17.236  0.00  0.00    +0.000 A 
ATOM      2  C   UNL     1       7.607   5.997  15.942  0.00  0.00    +0.000 A 
ATOM      3  C   UNL     1       6.932   5.213  14.979  0.00  0.00    +0.000 A 
ATOM      4  C   UNL     1       5.739   4.532  15.274  0.00  0.00    +0.000 A 
ATOM      5  C   UNL     1       5.249   4.677  16.561  0.00  0.00    +0.000 A 
ATOM      6  C   UNL     1       5.927   5.472  17.534  0.00  0.00    +0.000 A 
ATOM      7  C   UNL     1       5.227   5.518  18.897  0.00  0.00    +0.000 C 
ATOM      8  C   UNL     1       4.081   4.640  18.550  0.00  0.00    +0.000 A 
ATOM      9  C   UNL     1       4.100   4.179  17.258  0.00  0.00    +0.000 A 
ATOM     10  N   UNL     1       3.018   3.390  17.052  0.00  0.00    +0.000 N 
ATOM     11  C   UNL     1       2.283   3.337  18.238  0.00  0.00    +0.000 A 
ATOM     12  C   UNL     1       1.094   2.662  18.552  0.00  0.00    +0.000 A 
ATOM     13  C   UNL     1       0.583   2.804  19.852  0.00  0.00    +0.000 A 
ATOM     14  C   UNL     1       1.230   3.588  20.805  0.00  0.00    +0.000 A 
ATOM     15  C   UNL     1       2.414   4.254  20.487  0.00  0.00    +0.000 A 
ATOM     16  C   UNL     1       2.945   4.128  19.193  0.00  0.00    +0.000 A 
ATOM     17  H   UNL     1       2.783   2.914  16.193  0.00  0.00    +0.000 HD
ENDROOT
BRANCH   1  19
ATOM     18  C   UNL     1       8.052   8.181  17.970  0.00  0.00    +0.000 C 
ATOM     19  O   UNL     1       7.660   6.845  18.253  0.00  0.00    +0.000 OA
ENDBRANCH   1  19
BRANCH   4  20
ATOM     20  O   UNL     1       5.042   3.754  14.391  0.00  0.00    +0.000 OA
ATOM     21  C   UNL     1       5.641   3.573  13.109  0.00  0.00    +0.000 C 
ENDBRANCH   4  20
TORSDOF 2
ENDMDL
MODEL 7
REMARK VINA RESULT:      -7.0      3.990      5.791
REMARK  Name = 
REMARK  4 active torsions:
REMARK  status: ('A' for Active; 'I' for Inactive)
REMARK    1  A    between atoms: C_1  and  O_2
REMARK    2  A    between atoms: O_2  and  C_3
REMARK    3  A    between atoms: C_6  and  O_7
REMARK    4  A    between atoms: O_7  and  C_8
REMARK                            x       y       z     vdW  Elec       q    Type
REMARK                         _______ _______ _______ _____ _____    ______ ____
ROOT
ATOM      1  C   UNL     1       3.162   3.197  20.533  0.00  0.00    +0.000 A 
ATOM      2  C   UNL     1       3.849   2.335  19.680  0.00  0.00    +0.000 A 
ATOM      3  C   UNL     1       4.247   2.751  18.389  0.00  0.00    +0.000 A 
ATOM      4  C   UNL     1       3.970   4.040  17.902  0.00  0.00    +0.000 A 
ATOM      5  C   UNL     1       3.293   4.891  18.759  0.00  0.00    +0.000 A 
ATOM      6  C   UNL     1       2.894   4.473  20.065  0.00  0.00    +0.000 A 
ATOM      7  C   UNL     1       2.164   5.556  20.868  0.00  0.00    +0.000 C 
ATOM      8  C   UNL     1       2.207   6.620  19.832  0.00  0.00    +0.000 A 
ATOM      9  C   UNL     1       2.832   6.245  18.671  0.00  0.00    +0.000 A 
ATOM     10  N   UNL     1       2.811   7.282  17.800  0.00  0.00    +0.000 N 
ATOM     11  C   UNL     1       2.156   8.353  18.412  0.00  0.00    +0.000 A 
ATOM     12  C   UNL     1       1.868   9.644  17.941  0.00  0.00    +0.000 A 
ATOM     13  C   UNL     1       1.187  10.519  18.802  0.00  0.00    +0.000 A 
ATOM     14  C   UNL     1       0.804  10.125  20.082  0.00  0.00    +0.000 A 
ATOM     15  C   UNL     1       1.090   8.840  20.543  0.00  0.00    +0.000 A 
ATOM     16  C   UNL     1       1.772   7.946  19.701  0.00  0.00    +0.000 A 
ATOM     17  H   UNL     1       3.195   7.285  16.866  0.00  0.00    +0.000 HD
ENDROOT
BRANCH   1  19
ATOM     18  C   UNL     1       1.403   2.406  21.913  0.00  0.00    +0.000 C 
ATOM     19  O   UNL     1       2.720   2.922  21.788  0.00  0.00    +0.000 OA
ENDBRANCH   1  19
BRANCH   4  20
ATOM     20  O   UNL     1       4.321   4.501  16.663  0.00  0.00    +0.000 OA
ATOM     21  C   UNL     1       5.524   3.966  16.114  0.00  0.00    +0.000 C 
ENDBRANCH   4  20
TORSDOF 2
ENDMDL
MODEL 8
REMARK VINA RESULT:      -6.8      2.969      6.286
REMARK  Name = 
REMARK  4 active torsions:
REMARK  status: ('A' for Active; 'I' for Inactive)
REMARK    1  A    between atoms: C_1  and  O_2
REMARK    2  A    between atoms: O_2  and  C_3
REMARK    3  A    between atoms: C_6  and  O_7
REMARK    4  A    between atoms: O_7  and  C_8
REMARK                            x       y       z     vdW  Elec       q    Type
REMARK                         _______ _______ _______ _____ _____    ______ ____
ROOT
ATOM      1  C   UNL     1       2.084   6.867  19.960  0.00  0.00    +0.000 A 
ATOM      2  C   UNL     1       1.487   6.096  20.956  0.00  0.00    +0.000 A 
ATOM      3  C   UNL     1       1.669   4.695  20.999  0.00  0.00    +0.000 A 
ATOM      4  C   UNL     1       2.449   4.013  20.049  0.00  0.00    +0.000 A 
ATOM      5  C   UNL     1       3.042   4.789  19.068  0.00  0.00    +0.000 A 
ATOM      6  C   UNL     1       2.863   6.205  19.025  0.00  0.00    +0.000 A 
ATOM      7  C   UNL     1       3.604   6.891  17.871  0.00  0.00    +0.000 C 
ATOM      8  C   UNL     1       4.208   5.669  17.282  0.00  0.00    +0.000 A 
ATOM      9  C   UNL     1       3.893   4.512  17.948  0.00  0.00    +0.000 A 
ATOM     10  N   UNL     1       4.489   3.465  17.328  0.00  0.00    +0.000 N 
ATOM     11  C   UNL     1       5.205   3.956  16.234  0.00  0.00    +0.000 A 
ATOM     12  C   UNL     1       5.985   3.292  15.274  0.00  0.00    +0.000 A 
ATOM     13  C   UNL     1       6.597   4.067  14.277  0.00  0.00    +0.000 A 
ATOM     14  C   UNL     1       6.438   5.451  14.233  0.00  0.00    +0.000 A 
ATOM     15  C   UNL     1       5.659   6.104  15.188  0.00  0.00    +0.000 A 
ATOM     16  C   UNL     1       5.037   5.351  16.197  0.00  0.00    +0.000 A 
ATOM     17  H   UNL     1       4.425   2.495  17.601  0.00  0.00    +0.000 HD
ENDROOT
BRANCH   1  19
ATOM     18  C   UNL     1       1.006   8.888  20.577  0.00  0.00    +0.000 C 
ATOM     19  O   UNL     1       1.985   8.213  19.801  0.00  0.00    +0.000 OA
ENDBRANCH   1  19
BRANCH   4  20
ATOM     20  O   UNL     1       2.658   2.662  20.032  0.00  0.00    +0.000 OA
ATOM     21  C   UNL     1       1.718   1.892  19.285  0.00  0.00    +0.000 C 
ENDBRANCH   4  20
TORSDOF 2
ENDMDL
MODEL 9
REMARK VINA RESULT:      -6.5      4.467      5.644
REMARK  Name = 
REMARK  4 active torsions:
REMARK  status: ('A' for Active; 'I' for Inactive)
REMARK    1  A    between atoms: C_1  and  O_2
REMARK    2  A    between atoms: O_2  and  C_3
REMARK    3  A    between atoms: C_6  and  O_7
REMARK    4  A    between atoms: O_7  and  C_8
REMARK                            x       y       z     vdW  Elec       q    Type
REMARK                         _______ _______ _______ _____ _____    ______ ____
ROOT
ATOM      1  C   UNL     1       3.325   3.888  19.500  0.00  0.00    +0.000 A 
ATOM      2  C   UNL     1       4.183   3.566  18.451  0.00  0.00    +0.000 A 
ATOM      3  C   UNL     1       4.530   4.526  17.473  0.00  0.00    +0.000 A 
ATOM      4  C   UNL     1       4.031   5.839  17.505  0.00  0.00    +0.000 A 
ATOM      5  C   UNL     1       3.184   6.151  18.555  0.00  0.00    +0.000 A 
ATOM      6  C   UNL     1       2.835   5.183  19.546  0.00  0.00    +0.000 A 
ATOM      7  C   UNL     1       1.894   5.717  20.632  0.00  0.00    +0.000 C 
ATOM      8  C   UNL     1       1.764   7.100  20.106  0.00  0.00    +0.000 A 
ATOM      9  C   UNL     1       2.480   7.332  18.959  0.00  0.00    +0.000 A 
ATOM     10  N   UNL     1       2.288   8.614  18.567  0.00  0.00    +0.000 N 
ATOM     11  C   UNL     1       1.427   9.227  19.481  0.00  0.00    +0.000 A 
ATOM     12  C   UNL     1       0.916  10.532  19.528  0.00  0.00    +0.000 A 
ATOM     13  C   UNL     1       0.060  10.863  20.590  0.00  0.00    +0.000 A 
ATOM     14  C   UNL     1      -0.276   9.931  21.569  0.00  0.00    +0.000 A 
ATOM     15  C   UNL     1       0.233   8.633  21.515  0.00  0.00    +0.000 A 
ATOM     16  C   UNL     1       1.092   8.278  20.462  0.00  0.00    +0.000 A 
ATOM     17  H   UNL     1       2.689   9.055  17.752  0.00  0.00    +0.000 HD
ENDROOT
BRANCH   1  19
ATOM     18  C   UNL     1       1.859   2.155  20.191  0.00  0.00    +0.000 C 
ATOM     19  O   UNL     1       2.908   3.063  20.496  0.00  0.00    +0.000 OA
ENDBRANCH   1  19
BRANCH   4  20
ATOM     20  O   UNL     1       4.322   6.811  16.588  0.00  0.00    +0.000 OA
ATOM     21  C   UNL     1       5.281   6.463  15.591  0.00  0.00    +0.000 C 
ENDBRANCH   4  20
TORSDOF 2
ENDMDL
