MODEL 1
REMARK VINA RESULT:      -8.7      0.000      0.000
REMARK  Name = 
REMARK  6 active torsions:
REMARK  status: ('A' for Active; 'I' for Inactive)
REMARK    1  A    between atoms: C_1  and  N_2
REMARK    2  A    between atoms: C_5  and  C_6
REMARK    3  A    between atoms: C_7  and  C_8
REMARK    4  A    between atoms: C_11  and  O_12
REMARK    5  A    between atoms: O_12  and  C_13
REMARK    6  A    between atoms: C_13  and  C_14
REMARK                            x       y       z     vdW  Elec       q    Type
REMARK                         _______ _______ _______ _____ _____    ______ ____
ROOT
ATOM      1  C   UNL     1       7.402   7.569  17.776  0.00  0.00    +0.000 A 
ATOM      2  C   UNL     1       7.886   6.504  18.538  0.00  0.00    +0.000 A 
ATOM      3  C   UNL     1       7.221   5.279  18.536  0.00  0.00    +0.000 A 
ATOM      4  C   UNL     1       6.049   5.117  17.795  0.00  0.00    +0.000 A 
ATOM      5  C   UNL     1       5.589   6.168  16.997  0.00  0.00    +0.000 A 
ATOM      6  C   UNL     1       6.262   7.393  16.987  0.00  0.00    +0.000 A 
ENDROOT
BRANCH   1   8
ATOM      7  C   UNL     1       8.783   9.218  18.912  0.00  0.00    +0.000 C 
ATOM      8  C   UNL     1       8.109   8.847  17.815  0.00  0.00    +0.000 C 
BRANCH   7  13
ATOM      9  C   UNL     1      11.216  14.356  19.364  0.00  0.00    +0.000 C 
ATOM     10  N   UNL     1      10.661  12.999  19.253  0.00  0.00    +0.000 N 
ATOM     11  C   UNL     1      10.500  12.425  18.040  0.00  0.00    +0.000 A 
ATOM     12  C   UNL     1       9.906  11.174  17.925  0.00  0.00    +0.000 A 
ATOM     13  C   UNL     1       9.480  10.499  19.068  0.00  0.00    +0.000 A 
ATOM     14  C   UNL     1       9.681  11.102  20.308  0.00  0.00    +0.000 A 
ATOM     15  C   UNL     1      10.280  12.353  20.378  0.00  0.00    +0.000 A 
ENDBRANCH   7  13
ENDBRANCH   1   8
BRANCH   4  16
ATOM     16  O   UNL     1       5.286   3.981  17.782  0.00  0.00    +0.000 OA
BRANCH  16  17
ATOM     17  C   UNL     1       4.029   4.107  17.110  0.00  0.00    +0.000 C 
BRANCH  17  18
ATOM     18  C   UNL     1       2.912   3.796  18.069  0.00  0.00    +0.000 A 
ATOM     19  C   UNL     1       2.595   4.680  19.109  0.00  0.00    +0.000 A 
ATOM     20  C   UNL     1       1.552   4.388  19.989  0.00  0.00    +0.000 A 
ATOM     21  C   UNL     1       0.817   3.214  19.838  0.00  0.00    +0.000 A 
ATOM     22  C   UNL     1       1.122   2.328  18.805  0.00  0.00    +0.000 A 
ATOM     23  C   UNL     1       2.164   2.618  17.925  0.00  0.00    +0.000 A 
ENDBRANCH  17  18
ENDBRANCH  16  17
ENDBRANCH   4  16
TORSDOF 5
ENDMDL
MODEL 2
REMARK VINA RESULT:      -8.6      0.840      1.462
REMARK  Name = 
REMARK  6 active torsions:
REMARK  status: ('A' for Active; 'I' for Inactive)
REMARK    1  A    between atoms: C_1  and  N_2
REMARK    2  A    between atoms: C_5  and  C_6
REMARK    3  A    between atoms: C_7  and  C_8
REMARK    4  A    between atoms: C_11  and  O_12
REMARK    5  A    between atoms: O_12  and  C_13
REMARK    6  A    between atoms: C_13  and  C_14
REMARK                            x       y       z     vdW  Elec       q    Type
REMARK                         _______ _______ _______ _____ _____    ______ ____
ROOT
ATOM      1  C   UNL     1       7.556   7.673  17.817  0.00  0.00    +0.000 A 
ATOM      2  C   UNL     1       7.973   6.639  18.657  0.00  0.00    +0.000 A 
ATOM      3  C   UNL     1       7.254   5.447  18.715  0.00  0.00    +0.000 A 
ATOM      4  C   UNL     1       6.094   5.289  17.954  0.00  0.00    +0.000 A 
ATOM      5  C   UNL     1       5.701   6.305  17.079  0.00  0.00    +0.000 A 
ATOM      6  C   UNL     1       6.428   7.497  17.010  0.00  0.00    +0.000 A 
ENDROOT
BRANCH   1   8
ATOM      7  C   UNL     1       8.847   9.414  18.923  0.00  0.00    +0.000 C 
ATOM      8  C   UNL     1       8.319   8.919  17.794  0.00  0.00    +0.000 C 
BRANCH   7  13
ATOM      9  C   UNL     1      11.988  14.151  19.387  0.00  0.00    +0.000 C 
ATOM     10  N   UNL     1      11.113  12.975  19.272  0.00  0.00    +0.000 N 
ATOM     11  C   UNL     1      10.726  12.302  20.378  0.00  0.00    +0.000 A 
ATOM     12  C   UNL     1       9.962  11.146  20.271  0.00  0.00    +0.000 A 
ATOM     13  C   UNL     1       9.583  10.679  19.012  0.00  0.00    +0.000 A 
ATOM     14  C   UNL     1       9.974  11.405  17.889  0.00  0.00    +0.000 A 
ATOM     15  C   UNL     1      10.737  12.556  18.043  0.00  0.00    +0.000 A 
ENDBRANCH   7  13
ENDBRANCH   1   8
BRANCH   4  16
ATOM     16  O   UNL     1       5.281   4.188  17.992  0.00  0.00    +0.000 OA
BRANCH  16  17
ATOM     17  C   UNL     1       4.939   3.737  19.307  0.00  0.00    +0.000 C 
BRANCH  17  18
ATOM     18  C   UNL     1       3.457   3.492  19.385  0.00  0.00    +0.000 A 
ATOM     19  C   UNL     1       2.641   3.683  18.262  0.00  0.00    +0.000 A 
ATOM     20  C   UNL     1       1.268   3.444  18.340  0.00  0.00    +0.000 A 
ATOM     21  C   UNL     1       0.700   3.012  19.537  0.00  0.00    +0.000 A 
ATOM     22  C   UNL     1       1.503   2.815  20.659  0.00  0.00    +0.000 A 
ATOM     23  C   UNL     1       2.875   3.054  20.584  0.00  0.00    +0.000 A 
ENDBRANCH  17  18
ENDBRANCH  16  17
ENDBRANCH   4  16
TORSDOF 5
ENDMDL
MODEL 3
REMARK VINA RESULT:      -8.6      0.302      1.441
REMARK  Name = 
REMARK  6 active torsions:
REMARK  status: ('A' for Active; 'I' for Inactive)
REMARK    1  A    between atoms: C_1  and  N_2
REMARK    2  A    between atoms: C_5  and  C_6
REMARK    3  A    between atoms: C_7  and  C_8
REMARK    4  A    between atoms: C_11  and  O_12
REMARK    5  A    between atoms: O_12  and  C_13
REMARK    6  A    between atoms: C_13  and  C_14
REMARK                            x       y       z     vdW  Elec       q    Type
REMARK                         _______ _______ _______ _____ _____    ______ ____
ROOT
ATOM      1  C   UNL     1       7.496   7.445  17.806  0.00  0.00    +0.000 A 
ATOM      2  C   UNL     1       6.394   7.343  16.954  0.00  0.00    +0.000 A 
ATOM      3  C   UNL     1       5.639   6.172  16.919  0.00  0.00    +0.000 A 
ATOM      4  C   UNL     1       5.996   5.082  17.715  0.00  0.00    +0.000 A 
ATOM      5  C   UNL     1       7.070   5.200  18.601  0.00  0.00    +0.000 A 
ATOM      6  C   UNL     1       7.821   6.378  18.647  0.00  0.00    +0.000 A 
ENDROOT
BRANCH   1   8
ATOM      7  C   UNL     1       8.735   9.195  18.955  0.00  0.00    +0.000 C 
ATOM      8  C   UNL     1       8.280   8.677  17.805  0.00  0.00    +0.000 C 
BRANCH   7  13
ATOM      9  C   UNL     1      11.916  13.895  19.523  0.00  0.00    +0.000 C 
ATOM     10  N   UNL     1      11.031  12.729  19.374  0.00  0.00    +0.000 N 
ATOM     11  C   UNL     1      10.539  12.103  20.466  0.00  0.00    +0.000 A 
ATOM     12  C   UNL     1       9.765  10.956  20.333  0.00  0.00    +0.000 A 
ATOM     13  C   UNL     1       9.485  10.451  19.064  0.00  0.00    +0.000 A 
ATOM     14  C   UNL     1       9.984  11.129  17.954  0.00  0.00    +0.000 A 
ATOM     15  C   UNL     1      10.753  12.272  18.133  0.00  0.00    +0.000 A 
ENDBRANCH   7  13
ENDBRANCH   1   8
BRANCH   4  16
ATOM     16  O   UNL     1       5.364   3.868  17.703  0.00  0.00    +0.000 OA
BRANCH  16  17
ATOM     17  C   UNL     1       4.079   3.864  17.073  0.00  0.00    +0.000 C 
BRANCH  17  18
ATOM     18  C   UNL     1       3.010   3.663  18.112  0.00  0.00    +0.000 A 
ATOM     19  C   UNL     1       2.622   4.717  18.950  0.00  0.00    +0.000 A 
ATOM     20  C   UNL     1       1.623   4.525  19.906  0.00  0.00    +0.000 A 
ATOM     21  C   UNL     1       1.003   3.283  20.032  0.00  0.00    +0.000 A 
ATOM     22  C   UNL     1       1.380   2.229  19.200  0.00  0.00    +0.000 A 
ATOM     23  C   UNL     1       2.378   2.418  18.245  0.00  0.00    +0.000 A 
ENDBRANCH  17  18
ENDBRANCH  16  17
ENDBRANCH   4  16
TORSDOF 5
ENDMDL
MODEL 4
REMARK VINA RESULT:      -8.5      0.775      1.272
REMARK  Name = 
REMARK  6 active torsions:
REMARK  status: ('A' for Active; 'I' for Inactive)
REMARK    1  A    between atoms: C_1  and  N_2
REMARK    2  A    between atoms: C_5  and  C_6
REMARK    3  A    between atoms: C_7  and  C_8
REMARK    4  A    between atoms: C_11  and  O_12
REMARK    5  A    between atoms: O_12  and  C_13
REMARK    6  A    between atoms: C_13  and  C_14
REMARK                            x       y       z     vdW  Elec       q    Type
REMARK                         _______ _______ _______ _____ _____    ______ ____
ROOT
ATOM      1  C   UNL     1       7.396   7.611  17.768  0.00  0.00    +0.000 A 
ATOM      2  C   UNL     1       7.859   6.523  18.511  0.00  0.00    +0.000 A 
ATOM      3  C   UNL     1       7.144   5.327  18.526  0.00  0.00    +0.000 A 
ATOM      4  C   UNL     1       5.945   5.217  17.820  0.00  0.00    +0.000 A 
ATOM      5  C   UNL     1       5.505   6.289  17.040  0.00  0.00    +0.000 A 
ATOM      6  C   UNL     1       6.227   7.486  17.013  0.00  0.00    +0.000 A 
ENDROOT
BRANCH   1   8
ATOM      7  C   UNL     1       8.774   9.259  18.910  0.00  0.00    +0.000 C 
ATOM      8  C   UNL     1       8.156   8.858  17.790  0.00  0.00    +0.000 C 
BRANCH   7  13
ATOM      9  C   UNL     1      11.379  14.316  19.313  0.00  0.00    +0.000 C 
ATOM     10  N   UNL     1      10.779  12.978  19.209  0.00  0.00    +0.000 N 
ATOM     11  C   UNL     1      10.519  12.439  17.997  0.00  0.00    +0.000 A 
ATOM     12  C   UNL     1       9.882  11.208  17.893  0.00  0.00    +0.000 A 
ATOM     13  C   UNL     1       9.516  10.516  19.048  0.00  0.00    +0.000 A 
ATOM     14  C   UNL     1       9.818  11.082  20.284  0.00  0.00    +0.000 A 
ATOM     15  C   UNL     1      10.456  12.314  20.342  0.00  0.00    +0.000 A 
ENDBRANCH   7  13
ENDBRANCH   1   8
BRANCH   4  16
ATOM     16  O   UNL     1       5.135   4.113  17.827  0.00  0.00    +0.000 OA
BRANCH  16  17
ATOM     17  C   UNL     1       4.936   3.520  19.113  0.00  0.00    +0.000 C 
BRANCH  17  18
ATOM     18  C   UNL     1       3.503   3.701  19.535  0.00  0.00    +0.000 A 
ATOM     19  C   UNL     1       2.579   2.657  19.393  0.00  0.00    +0.000 A 
ATOM     20  C   UNL     1       1.254   2.830  19.794  0.00  0.00    +0.000 A 
ATOM     21  C   UNL     1       0.840   4.044  20.341  0.00  0.00    +0.000 A 
ATOM     22  C   UNL     1       1.753   5.088  20.490  0.00  0.00    +0.000 A 
ATOM     23  C   UNL     1       3.077   4.917  20.089  0.00  0.00    +0.000 A 
ENDBRANCH  17  18
ENDBRANCH  16  17
ENDBRANCH   4  16
TORSDOF 5
ENDMDL
MODEL 5
REMARK VINA RESULT:      -8.4      0.827      1.777
REMARK  Name = 
REMARK  6 active torsions:
REMARK  status: ('A' for Active; 'I' for Inactive)
REMARK    1  A    between atoms: C_1  and  N_2
REMARK    2  A    between atoms: C_5  and  C_6
REMARK    3  A    between atoms: C_7  and  C_8
REMARK    4  A    between atoms: C_11  and  O_12
REMARK    5  A    between atoms: O_12  and  C_13
REMARK    6  A    between atoms: C_13  and  C_14
REMARK                            x       y       z     vdW  Elec       q    Type
REMARK                         _______ _______ _______ _____ _____    ______ ____
ROOT
ATOM      1  C   UNL     1       7.206   7.247  17.661  0.00  0.00    +0.000 A 
ATOM      2  C   UNL     1       6.079   7.143  16.843  0.00  0.00    +0.000 A 
ATOM      3  C   UNL     1       5.347   5.958  16.803  0.00  0.00    +0.000 A 
ATOM      4  C   UNL     1       5.752   4.856  17.558  0.00  0.00    +0.000 A 
ATOM      5  C   UNL     1       6.852   4.974  18.412  0.00  0.00    +0.000 A 
ATOM      6  C   UNL     1       7.581   6.166  18.464  0.00  0.00    +0.000 A 
ENDROOT
BRANCH   1   8
ATOM      7  C   UNL     1       8.532   8.942  18.796  0.00  0.00    +0.000 C 
ATOM      8  C   UNL     1       7.965   8.495  17.666  0.00  0.00    +0.000 C 
BRANCH   7  13
ATOM      9  C   UNL     1      11.666  13.669  19.395  0.00  0.00    +0.000 C 
ATOM     10  N   UNL     1      10.792  12.496  19.241  0.00  0.00    +0.000 N 
ATOM     11  C   UNL     1      10.338  11.837  20.329  0.00  0.00    +0.000 A 
ATOM     12  C   UNL     1       9.575  10.683  20.189  0.00  0.00    +0.000 A 
ATOM     13  C   UNL     1       9.268  10.204  18.916  0.00  0.00    +0.000 A 
ATOM     14  C   UNL     1       9.728  10.916  17.810  0.00  0.00    +0.000 A 
ATOM     15  C   UNL     1      10.486  12.065  17.997  0.00  0.00    +0.000 A 
ENDBRANCH   7  13
ENDBRANCH   1   8
BRANCH   4  16
ATOM     16  O   UNL     1       5.144   3.629  17.535  0.00  0.00    +0.000 OA
BRANCH  16  17
ATOM     17  C   UNL     1       3.731   3.662  17.317  0.00  0.00    +0.000 C 
BRANCH  17  18
ATOM     18  C   UNL     1       3.017   3.617  18.640  0.00  0.00    +0.000 A 
ATOM     19  C   UNL     1       3.445   2.751  19.655  0.00  0.00    +0.000 A 
ATOM     20  C   UNL     1       2.782   2.722  20.883  0.00  0.00    +0.000 A 
ATOM     21  C   UNL     1       1.690   3.558  21.109  0.00  0.00    +0.000 A 
ATOM     22  C   UNL     1       1.258   4.426  20.107  0.00  0.00    +0.000 A 
ATOM     23  C   UNL     1       1.918   4.456  18.879  0.00  0.00    +0.000 A 
ENDBRANCH  17  18
ENDBRANCH  16  17
ENDBRANCH   4  16
TORSDOF 5
ENDMDL
MODEL 6
REMARK VINA RESULT:      -8.4      0.892      1.627
REMARK  Name = 
REMARK  6 active torsions:
REMARK  status: ('A' for Active; 'I' for Inactive)
REMARK    1  A    between atoms: C_1  and  N_2
REMARK    2  A    between atoms: C_5  and  C_6
REMARK    3  A    between atoms: C_7  and  C_8
REMARK    4  A    between atoms: C_11  and  O_12
REMARK    5  A    between atoms: O_12  and  C_13
REMARK    6  A    between atoms: C_13  and  C_14
REMARK                            x       y       z     vdW  Elec       q    Type
REMARK                         _______ _______ _______ _____ _____    ______ ____
ROOT
ATOM      1  C   UNL     1       7.806   7.328  18.190  0.00  0.00    +0.000 A 
ATOM      2  C   UNL     1       6.860   7.451  17.171  0.00  0.00    +0.000 A 
ATOM      3  C   UNL     1       6.107   6.347  16.774  0.00  0.00    +0.000 A 
ATOM      4  C   UNL     1       6.314   5.103  17.373  0.00  0.00    +0.000 A 
ATOM      5  C   UNL     1       7.229   4.990  18.424  0.00  0.00    +0.000 A 
ATOM      6  C   UNL     1       7.976   6.098  18.833  0.00  0.00    +0.000 A 
ENDROOT
BRANCH   1   8
ATOM      7  C   UNL     1       8.325   9.700  18.042  0.00  0.00    +0.000 C 
ATOM      8  C   UNL     1       8.594   8.497  18.570  0.00  0.00    +0.000 C 
BRANCH   7  13
ATOM      9  C   UNL     1      11.007  14.578  19.283  0.00  0.00    +0.000 C 
ATOM     10  N   UNL     1      10.367  13.309  18.903  0.00  0.00    +0.000 N 
ATOM     11  C   UNL     1       9.352  13.296  18.012  0.00  0.00    +0.000 A 
ATOM     12  C   UNL     1       8.693  12.111  17.708  0.00  0.00    +0.000 A 
ATOM     13  C   UNL     1       9.088  10.921  18.319  0.00  0.00    +0.000 A 
ATOM     14  C   UNL     1      10.154  10.957  19.215  0.00  0.00    +0.000 A 
ATOM     15  C   UNL     1      10.784  12.164  19.490  0.00  0.00    +0.000 A 
ENDBRANCH   7  13
ENDBRANCH   1   8
BRANCH   4  16
ATOM     16  O   UNL     1       5.679   3.947  17.008  0.00  0.00    +0.000 OA
BRANCH  16  17
ATOM     17  C   UNL     1       4.394   4.130  16.407  0.00  0.00    +0.000 C 
BRANCH  17  18
ATOM     18  C   UNL     1       3.324   3.662  17.355  0.00  0.00    +0.000 A 
ATOM     19  C   UNL     1       3.279   2.327  17.780  0.00  0.00    +0.000 A 
ATOM     20  C   UNL     1       2.289   1.903  18.667  0.00  0.00    +0.000 A 
ATOM     21  C   UNL     1       1.337   2.806  19.138  0.00  0.00    +0.000 A 
ATOM     22  C   UNL     1       1.374   4.137  18.724  0.00  0.00    +0.000 A 
ATOM     23  C   UNL     1       2.363   4.563  17.838  0.00  0.00    +0.000 A 
ENDBRANCH  17  18
ENDBRANCH  16  17
ENDBRANCH   4  16
TORSDOF 5
ENDMDL
MODEL 7
REMARK VINA RESULT:      -8.4      0.814      1.329
REMARK  Name = 
REMARK  6 active torsions:
REMARK  status: ('A' for Active; 'I' for Inactive)
REMARK    1  A    between atoms: C_1  and  N_2
REMARK    2  A    between atoms: C_5  and  C_6
REMARK    3  A    between atoms: C_7  and  C_8
REMARK    4  A    between atoms: C_11  and  O_12
REMARK    5  A    between atoms: O_12  and  C_13
REMARK    6  A    between atoms: C_13  and  C_14
REMARK                            x       y       z     vdW  Elec       q    Type
REMARK                         _______ _______ _______ _____ _____    ______ ____
ROOT
ATOM      1  C   UNL     1       7.441   7.603  17.839  0.00  0.00    +0.000 A 
ATOM      2  C   UNL     1       6.281   7.498  17.069  0.00  0.00    +0.000 A 
ATOM      3  C   UNL     1       5.561   6.305  17.043  0.00  0.00    +0.000 A 
ATOM      4  C   UNL     1       6.010   5.198  17.765  0.00  0.00    +0.000 A 
ATOM      5  C   UNL     1       7.145   5.316  18.571  0.00  0.00    +0.000 A 
ATOM      6  C   UNL     1       7.862   6.516  18.609  0.00  0.00    +0.000 A 
ENDROOT
BRANCH   1   8
ATOM      7  C   UNL     1       8.812   9.288  18.935  0.00  0.00    +0.000 C 
ATOM      8  C   UNL     1       8.186   8.860  17.829  0.00  0.00    +0.000 C 
BRANCH   7  13
ATOM      9  C   UNL     1      11.371  14.379  19.190  0.00  0.00    +0.000 C 
ATOM     10  N   UNL     1      10.783  13.032  19.130  0.00  0.00    +0.000 N 
ATOM     11  C   UNL     1      10.599  12.420  17.940  0.00  0.00    +0.000 A 
ATOM     12  C   UNL     1       9.974  11.180  17.871  0.00  0.00    +0.000 A 
ATOM     13  C   UNL     1       9.540  10.556  19.041  0.00  0.00    +0.000 A 
ATOM     14  C   UNL     1       9.765  11.197  20.258  0.00  0.00    +0.000 A 
ATOM     15  C   UNL     1      10.394  12.436  20.279  0.00  0.00    +0.000 A 
ENDBRANCH   7  13
ENDBRANCH   1   8
BRANCH   4  16
ATOM     16  O   UNL     1       5.415   3.965  17.750  0.00  0.00    +0.000 OA
BRANCH  16  17
ATOM     17  C   UNL     1       4.008   3.978  17.496  0.00  0.00    +0.000 C 
BRANCH  17  18
ATOM     18  C   UNL     1       3.260   3.904  18.799  0.00  0.00    +0.000 A 
ATOM     19  C   UNL     1       2.293   4.864  19.124  0.00  0.00    +0.000 A 
ATOM     20  C   UNL     1       1.597   4.783  20.332  0.00  0.00    +0.000 A 
ATOM     21  C   UNL     1       1.860   3.744  21.223  0.00  0.00    +0.000 A 
ATOM     22  C   UNL     1       2.818   2.781  20.908  0.00  0.00    +0.000 A 
ATOM     23  C   UNL     1       3.515   2.861  19.702  0.00  0.00    +0.000 A 
ENDBRANCH  17  18
ENDBRANCH  16  17
ENDBRANCH   4  16
TORSDOF 5
ENDMDL
MODEL 8
REMARK VINA RESULT:      -8.4      0.795      1.107
REMARK  Name = 
REMARK  6 active torsions:
REMARK  status: ('A' for Active; 'I' for Inactive)
REMARK    1  A    between atoms: C_1  and  N_2
REMARK    2  A    between atoms: C_5  and  C_6
REMARK    3  A    between atoms: C_7  and  C_8
REMARK    4  A    between atoms: C_11  and  O_12
REMARK    5  A    between atoms: O_12  and  C_13
REMARK    6  A    between atoms: C_13  and  C_14
REMARK                            x       y       z     vdW  Elec       q    Type
REMARK                         _______ _______ _______ _____ _____    ______ ____
ROOT
ATOM      1  C   UNL     1       7.832   7.394  18.206  0.00  0.00    +0.000 A 
ATOM      2  C   UNL     1       8.019   6.204  18.913  0.00  0.00    +0.000 A 
ATOM      3  C   UNL     1       7.292   5.064  18.574  0.00  0.00    +0.000 A 
ATOM      4  C   UNL     1       6.352   5.111  17.544  0.00  0.00    +0.000 A 
ATOM      5  C   UNL     1       6.197   6.288  16.807  0.00  0.00    +0.000 A 
ATOM      6  C   UNL     1       6.934   7.430  17.136  0.00  0.00    +0.000 A 
ENDROOT
BRANCH   1   8
ATOM      7  C   UNL     1       8.375   9.757  17.998  0.00  0.00    +0.000 C 
ATOM      8  C   UNL     1       8.593   8.578  18.598  0.00  0.00    +0.000 C 
BRANCH   7  13
ATOM      9  C   UNL     1      11.539  14.411  18.918  0.00  0.00    +0.000 C 
ATOM     10  N   UNL     1      10.680  13.229  18.746  0.00  0.00    +0.000 N 
ATOM     11  C   UNL     1      11.026  12.048  19.305  0.00  0.00    +0.000 A 
ATOM     12  C   UNL     1      10.260  10.910  19.082  0.00  0.00    +0.000 A 
ATOM     13  C   UNL     1       9.119  10.987  18.283  0.00  0.00    +0.000 A 
ATOM     14  C   UNL     1       8.771  12.222  17.739  0.00  0.00    +0.000 A 
ATOM     15  C   UNL     1       9.566  13.334  17.988  0.00  0.00    +0.000 A 
ENDBRANCH   7  13
ENDBRANCH   1   8
BRANCH   4  16
ATOM     16  O   UNL     1       5.540   4.070  17.181  0.00  0.00    +0.000 OA
BRANCH  16  17
ATOM     17  C   UNL     1       4.268   4.454  16.651  0.00  0.00    +0.000 C 
BRANCH  17  18
ATOM     18  C   UNL     1       3.195   4.175  17.668  0.00  0.00    +0.000 A 
ATOM     19  C   UNL     1       2.969   5.060  18.731  0.00  0.00    +0.000 A 
ATOM     20  C   UNL     1       1.965   4.798  19.664  0.00  0.00    +0.000 A 
ATOM     21  C   UNL     1       1.179   3.654  19.544  0.00  0.00    +0.000 A 
ATOM     22  C   UNL     1       1.392   2.769  18.489  0.00  0.00    +0.000 A 
ATOM     23  C   UNL     1       2.395   3.028  17.555  0.00  0.00    +0.000 A 
ENDBRANCH  17  18
ENDBRANCH  16  17
ENDBRANCH   4  16
TORSDOF 5
ENDMDL
MODEL 9
REMARK VINA RESULT:      -8.3      1.088      1.532
REMARK  Name = 
REMARK  6 active torsions:
REMARK  status: ('A' for Active; 'I' for Inactive)
REMARK    1  A    between atoms: C_1  and  N_2
REMARK    2  A    between atoms: C_5  and  C_6
REMARK    3  A    between atoms: C_7  and  C_8
REMARK    4  A    between atoms: C_11  and  O_12
REMARK    5  A    between atoms: O_12  and  C_13
REMARK    6  A    between atoms: C_13  and  C_14
REMARK                            x       y       z     vdW  Elec       q    Type
REMARK                         _______ _______ _______ _____ _____    ______ ____
ROOT
ATOM      1  C   UNL     1       7.341   6.981  17.969  0.00  0.00    +0.000 A 
ATOM      2  C   UNL     1       7.438   5.656  18.398  0.00  0.00    +0.000 A 
ATOM      3  C   UNL     1       6.456   4.731  18.050  0.00  0.00    +0.000 A 
ATOM      4  C   UNL     1       5.352   5.128  17.293  0.00  0.00    +0.000 A 
ATOM      5  C   UNL     1       5.277   6.443  16.825  0.00  0.00    +0.000 A 
ATOM      6  C   UNL     1       6.267   7.370  17.162  0.00  0.00    +0.000 A 
ENDROOT
BRANCH   1   8
ATOM      7  C   UNL     1       8.180   9.251  18.216  0.00  0.00    +0.000 C 
ATOM      8  C   UNL     1       8.374   7.933  18.367  0.00  0.00    +0.000 C 
BRANCH   7  13
ATOM      9  C   UNL     1      12.247  13.003  19.600  0.00  0.00    +0.000 C 
ATOM     10  N   UNL     1      11.145  12.096  19.242  0.00  0.00    +0.000 N 
ATOM     11  C   UNL     1      10.425  11.484  20.208  0.00  0.00    +0.000 A 
ATOM     12  C   UNL     1       9.434  10.567  19.876  0.00  0.00    +0.000 A 
ATOM     13  C   UNL     1       9.174  10.281  18.536  0.00  0.00    +0.000 A 
ATOM     14  C   UNL     1       9.914  10.944  17.560  0.00  0.00    +0.000 A 
ATOM     15  C   UNL     1      10.894  11.854  17.936  0.00  0.00    +0.000 A 
ENDBRANCH   7  13
ENDBRANCH   1   8
BRANCH   4  16
ATOM     16  O   UNL     1       4.302   4.316  16.959  0.00  0.00    +0.000 OA
BRANCH  16  17
ATOM     17  C   UNL     1       4.261   3.068  17.659  0.00  0.00    +0.000 C 
BRANCH  17  18
ATOM     18  C   UNL     1       3.247   3.147  18.768  0.00  0.00    +0.000 A 
ATOM     19  C   UNL     1       3.579   2.745  20.069  0.00  0.00    +0.000 A 
ATOM     20  C   UNL     1       2.636   2.830  21.094  0.00  0.00    +0.000 A 
ATOM     21  C   UNL     1       1.357   3.317  20.831  0.00  0.00    +0.000 A 
ATOM     22  C   UNL     1       1.018   3.723  19.541  0.00  0.00    +0.000 A 
ATOM     23  C   UNL     1       1.958   3.639  18.515  0.00  0.00    +0.000 A 
ENDBRANCH  17  18
ENDBRANCH  16  17
ENDBRANCH   4  16
TORSDOF 5
ENDMDL
