MODEL 1
REMARK VINA RESULT:      -7.4      0.000      0.000
REMARK  Name = 
REMARK  12 active torsions:
REMARK  status: ('A' for Active; 'I' for Inactive)
REMARK    1  A    between atoms: C_1  and  O_2
REMARK    2  A    between atoms: O_2  and  C_3
REMARK    3  A    between atoms: C_3  and  C_4
REMARK    4  A    between atoms: C_4  and  N_5
REMARK    5  A    between atoms: C_6  and  C_8
REMARK    6  A    between atoms: C_8  and  N_9
REMARK    7  A    between atoms: N_9  and  C_23
REMARK    8  A    between atoms: C_10  and  C_12
REMARK    9  A    between atoms: C_12  and  C_13
REMARK   10  A    between atoms: C_13  and  C_14
REMARK   11  A    between atoms: C_28  and  O_29
REMARK   12  A    between atoms: O_29  and  C_30
REMARK                            x       y       z     vdW  Elec       q    Type
REMARK                         _______ _______ _______ _____ _____    ______ ____
ROOT
ATOM      1  N   UNL     1       4.123   6.385  17.292  0.00  0.00    +0.000 N 
ATOM      2  C   UNL     1       3.132   7.297  17.686  0.00  0.00    +0.000 C 
ATOM      3  O   UNL     1       3.009   8.422  17.208  0.00  0.00    +0.000 OA
ENDROOT
BRANCH   1   4
ATOM      4  C   UNL     1       4.122   5.054  17.838  0.00  0.00    +0.000 A 
ATOM      5  C   UNL     1       3.171   4.162  17.299  0.00  0.00    +0.000 A 
ATOM      6  C   UNL     1       2.918   2.923  17.896  0.00  0.00    +0.000 A 
ATOM      7  C   UNL     1       3.626   2.555  19.030  0.00  0.00    +0.000 A 
ATOM      8  C   UNL     1       4.596   3.412  19.549  0.00  0.00    +0.000 A 
ATOM      9  C   UNL     1       4.859   4.668  18.974  0.00  0.00    +0.000 A 
BRANCH   9  10
ATOM     10  O   UNL     1       5.805   5.342  19.692  0.00  0.00    +0.000 OA
ATOM     11  C   UNL     1       7.096   5.587  19.167  0.00  0.00    +0.000 C 
ENDBRANCH   9  10
ENDBRANCH   1   4
BRANCH   1  12
ATOM     12  C   UNL     1       5.008   6.546  16.113  0.00  0.00    +0.000 C 
BRANCH  12  14
ATOM     13  N   UNL     1       5.568   4.618  14.602  0.00  0.00    +0.000 N 
ATOM     14  C   UNL     1       6.019   5.564  15.484  0.00  0.00    +0.000 C 
ATOM     15  O   UNL     1       7.231   5.762  15.637  0.00  0.00    +0.000 OA
ATOM     16  H   UNL     1       4.609   4.291  14.722  0.00  0.00    +0.000 HD
BRANCH  13  17
ATOM     17  C   UNL     1       6.510   3.763  13.895  0.00  0.00    +0.000 C 
BRANCH  17  18
ATOM     18  C   UNL     1       6.392   3.838  12.373  0.00  0.00    +0.000 C 
BRANCH  18  20
ATOM     19  C   UNL     1       4.306   3.205  11.477  0.00  0.00    +0.000 C 
ATOM     20  O   UNL     1       5.591   2.760  11.884  0.00  0.00    +0.000 OA
ENDBRANCH  18  20
ENDBRANCH  17  18
ENDBRANCH  13  17
ENDBRANCH  12  14
ENDBRANCH   1  12
BRANCH   2  21
ATOM     21  C   UNL     1       2.147   6.788  18.737  0.00  0.00    +0.000 C 
BRANCH  21  22
ATOM     22  C   UNL     1       2.319   7.285  20.167  0.00  0.00    +0.000 C 
BRANCH  22  23
ATOM     23  C   UNL     1       1.217   8.309  20.428  0.00  0.00    +0.000 C 
ATOM     24  O   UNL     1       0.459   8.217  21.393  0.00  0.00    +0.000 OA
ATOM     25  N   UNL     1       1.136   9.310  19.487  0.00  0.00    +0.000 N 
ATOM     26  C   UNL     1       0.101  10.256  19.537  0.00  0.00    +0.000 A 
ATOM     27  C   UNL     1      -0.258  10.899  20.718  0.00  0.00    +0.000 A 
ATOM     28  C   UNL     1      -1.344  11.771  20.701  0.00  0.00    +0.000 A 
ATOM     29  C   UNL     1      -2.052  11.943  19.520  0.00  0.00    +0.000 A 
ATOM     30  C   UNL     1      -1.610  11.272  18.391  0.00  0.00    +0.000 A 
ATOM     31  N   UNL     1      -0.523  10.467  18.362  0.00  0.00    +0.000 NA
ATOM     32  H   UNL     1       1.410   9.078  18.543  0.00  0.00    +0.000 HD
ENDBRANCH  22  23
ENDBRANCH  21  22
ENDBRANCH   2  21
TORSDOF 10
ENDMDL
MODEL 2
REMARK VINA RESULT:      -7.2      1.836      2.512
REMARK  Name = 
REMARK  12 active torsions:
REMARK  status: ('A' for Active; 'I' for Inactive)
REMARK    1  A    between atoms: C_1  and  O_2
REMARK    2  A    between atoms: O_2  and  C_3
REMARK    3  A    between atoms: C_3  and  C_4
REMARK    4  A    between atoms: C_4  and  N_5
REMARK    5  A    between atoms: C_6  and  C_8
REMARK    6  A    between atoms: C_8  and  N_9
REMARK    7  A    between atoms: N_9  and  C_23
REMARK    8  A    between atoms: C_10  and  C_12
REMARK    9  A    between atoms: C_12  and  C_13
REMARK   10  A    between atoms: C_13  and  C_14
REMARK   11  A    between atoms: C_28  and  O_29
REMARK   12  A    between atoms: O_29  and  C_30
REMARK                            x       y       z     vdW  Elec       q    Type
REMARK                         _______ _______ _______ _____ _____    ______ ____
ROOT
ATOM      1  N   UNL     1       4.147   5.480  18.844  0.00  0.00    +0.000 N 
ATOM      2  C   UNL     1       3.935   6.659  18.114  0.00  0.00    +0.000 C 
ATOM      3  O   UNL     1       4.838   7.326  17.615  0.00  0.00    +0.000 OA
ENDROOT
BRANCH   1   4
ATOM      4  C   UNL     1       3.019   4.714  19.303  0.00  0.00    +0.000 A 
ATOM      5  C   UNL     1       2.352   5.213  20.442  0.00  0.00    +0.000 A 
ATOM      6  C   UNL     1       1.395   4.448  21.115  0.00  0.00    +0.000 A 
ATOM      7  C   UNL     1       1.080   3.181  20.646  0.00  0.00    +0.000 A 
ATOM      8  C   UNL     1       1.704   2.693  19.499  0.00  0.00    +0.000 A 
ATOM      9  C   UNL     1       2.680   3.438  18.812  0.00  0.00    +0.000 A 
BRANCH   9  10
ATOM     10  O   UNL     1       3.182   2.728  17.759  0.00  0.00    +0.000 OA
ATOM     11  C   UNL     1       3.634   1.396  17.915  0.00  0.00    +0.000 C 
ENDBRANCH   9  10
ENDBRANCH   1   4
BRANCH   1  12
ATOM     12  C   UNL     1       5.436   4.752  18.931  0.00  0.00    +0.000 C 
BRANCH  12  14
ATOM     13  N   UNL     1       6.223   4.704  16.545  0.00  0.00    +0.000 N 
ATOM     14  C   UNL     1       6.536   4.539  17.868  0.00  0.00    +0.000 C 
ATOM     15  O   UNL     1       7.711   4.410  18.231  0.00  0.00    +0.000 OA
ATOM     16  H   UNL     1       5.260   4.512  16.268  0.00  0.00    +0.000 HD
BRANCH  13  17
ATOM     17  C   UNL     1       7.264   4.637  15.529  0.00  0.00    +0.000 C 
BRANCH  17  18
ATOM     18  C   UNL     1       6.749   4.830  14.103  0.00  0.00    +0.000 C 
BRANCH  18  20
ATOM     19  C   UNL     1       6.154   3.347  12.370  0.00  0.00    +0.000 C 
ATOM     20  O   UNL     1       5.927   3.725  13.719  0.00  0.00    +0.000 OA
ENDBRANCH  18  20
ENDBRANCH  17  18
ENDBRANCH  13  17
ENDBRANCH  12  14
ENDBRANCH   1  12
BRANCH   2  21
ATOM     21  C   UNL     1       2.475   7.061  17.920  0.00  0.00    +0.000 C 
BRANCH  21  22
ATOM     22  C   UNL     1       2.183   8.506  17.534  0.00  0.00    +0.000 C 
BRANCH  22  23
ATOM     23  C   UNL     1       1.444   9.148  18.706  0.00  0.00    +0.000 C 
ATOM     24  O   UNL     1       1.356   8.594  19.801  0.00  0.00    +0.000 OA
ATOM     25  N   UNL     1       0.877  10.369  18.421  0.00  0.00    +0.000 N 
ATOM     26  C   UNL     1       0.074  11.023  19.367  0.00  0.00    +0.000 A 
ATOM     27  C   UNL     1       0.456  11.153  20.699  0.00  0.00    +0.000 A 
ATOM     28  C   UNL     1      -0.429  11.750  21.594  0.00  0.00    +0.000 A 
ATOM     29  C   UNL     1      -1.673  12.164  21.137  0.00  0.00    +0.000 A 
ATOM     30  C   UNL     1      -1.958  12.006  19.791  0.00  0.00    +0.000 A 
ATOM     31  N   UNL     1      -1.096  11.487  18.887  0.00  0.00    +0.000 NA
ATOM     32  H   UNL     1       0.568  10.523  17.472  0.00  0.00    +0.000 HD
ENDBRANCH  22  23
ENDBRANCH  21  22
ENDBRANCH   2  21
TORSDOF 10
ENDMDL
MODEL 3
REMARK VINA RESULT:      -7.1      1.484      2.008
REMARK  Name = 
REMARK  12 active torsions:
REMARK  status: ('A' for Active; 'I' for Inactive)
REMARK    1  A    between atoms: C_1  and  O_2
REMARK    2  A    between atoms: O_2  and  C_3
REMARK    3  A    between atoms: C_3  and  C_4
REMARK    4  A    between atoms: C_4  and  N_5
REMARK    5  A    between atoms: C_6  and  C_8
REMARK    6  A    between atoms: C_8  and  N_9
REMARK    7  A    between atoms: N_9  and  C_23
REMARK    8  A    between atoms: C_10  and  C_12
REMARK    9  A    between atoms: C_12  and  C_13
REMARK   10  A    between atoms: C_13  and  C_14
REMARK   11  A    between atoms: C_28  and  O_29
REMARK   12  A    between atoms: O_29  and  C_30
REMARK                            x       y       z     vdW  Elec       q    Type
REMARK                         _______ _______ _______ _____ _____    ______ ____
ROOT
ATOM      1  N   UNL     1       5.325   4.975  16.757  0.00  0.00    +0.000 N 
ATOM      2  C   UNL     1       4.671   6.199  16.554  0.00  0.00    +0.000 C 
ATOM      3  O   UNL     1       5.100   7.092  15.828  0.00  0.00    +0.000 OA
ENDROOT
BRANCH   1   4
ATOM      4  C   UNL     1       4.691   3.952  17.546  0.00  0.00    +0.000 A 
ATOM      5  C   UNL     1       3.572   3.322  16.963  0.00  0.00    +0.000 A 
ATOM      6  C   UNL     1       2.740   2.483  17.712  0.00  0.00    +0.000 A 
ATOM      7  C   UNL     1       3.028   2.252  19.048  0.00  0.00    +0.000 A 
ATOM      8  C   UNL     1       4.154   2.838  19.625  0.00  0.00    +0.000 A 
ATOM      9  C   UNL     1       4.998   3.695  18.897  0.00  0.00    +0.000 A 
BRANCH   9  10
ATOM     10  O   UNL     1       5.995   4.187  19.692  0.00  0.00    +0.000 OA
ATOM     11  C   UNL     1       6.556   5.465  19.466  0.00  0.00    +0.000 C 
ENDBRANCH   9  10
ENDBRANCH   1   4
BRANCH   1  12
ATOM     12  C   UNL     1       6.487   4.489  15.974  0.00  0.00    +0.000 C 
BRANCH  12  14
ATOM     13  N   UNL     1       6.038   3.523  13.698  0.00  0.00    +0.000 N 
ATOM     14  C   UNL     1       6.713   4.449  14.447  0.00  0.00    +0.000 C 
ATOM     15  O   UNL     1       7.349   5.362  13.905  0.00  0.00    +0.000 OA
ATOM     16  H   UNL     1       5.787   2.647  14.158  0.00  0.00    +0.000 HD
BRANCH  13  17
ATOM     17  C   UNL     1       6.131   3.541  12.245  0.00  0.00    +0.000 C 
BRANCH  17  18
ATOM     18  C   UNL     1       5.116   2.636  11.549  0.00  0.00    +0.000 C 
BRANCH  18  20
ATOM     19  C   UNL     1       7.074   1.515  10.864  0.00  0.00    +0.000 C 
ATOM     20  O   UNL     1       5.711   1.374  11.236  0.00  0.00    +0.000 OA
ENDBRANCH  18  20
ENDBRANCH  17  18
ENDBRANCH  13  17
ENDBRANCH  12  14
ENDBRANCH   1  12
BRANCH   2  21
ATOM     21  C   UNL     1       3.327   6.355  17.263  0.00  0.00    +0.000 C 
BRANCH  21  22
ATOM     22  C   UNL     1       3.297   7.161  18.556  0.00  0.00    +0.000 C 
BRANCH  22  23
ATOM     23  C   UNL     1       2.338   8.329  18.341  0.00  0.00    +0.000 C 
ATOM     24  O   UNL     1       2.275   8.930  17.269  0.00  0.00    +0.000 OA
ATOM     25  N   UNL     1       1.583   8.656  19.444  0.00  0.00    +0.000 N 
ATOM     26  C   UNL     1       0.741   9.778  19.427  0.00  0.00    +0.000 A 
ATOM     27  C   UNL     1      -0.117  10.043  18.364  0.00  0.00    +0.000 A 
ATOM     28  C   UNL     1      -0.868  11.216  18.387  0.00  0.00    +0.000 A 
ATOM     29  C   UNL     1      -0.711  12.096  19.449  0.00  0.00    +0.000 A 
ATOM     30  C   UNL     1       0.156  11.739  20.469  0.00  0.00    +0.000 A 
ATOM     31  N   UNL     1       0.851  10.579  20.504  0.00  0.00    +0.000 NA
ATOM     32  H   UNL     1       1.996   8.490  20.351  0.00  0.00    +0.000 HD
ENDBRANCH  22  23
ENDBRANCH  21  22
ENDBRANCH   2  21
TORSDOF 10
ENDMDL
MODEL 4
REMARK VINA RESULT:      -7.1      2.291      5.071
REMARK  Name = 
REMARK  12 active torsions:
REMARK  status: ('A' for Active; 'I' for Inactive)
REMARK    1  A    between atoms: C_1  and  O_2
REMARK    2  A    between atoms: O_2  and  C_3
REMARK    3  A    between atoms: C_3  and  C_4
REMARK    4  A    between atoms: C_4  and  N_5
REMARK    5  A    between atoms: C_6  and  C_8
REMARK    6  A    between atoms: C_8  and  N_9
REMARK    7  A    between atoms: N_9  and  C_23
REMARK    8  A    between atoms: C_10  and  C_12
REMARK    9  A    between atoms: C_12  and  C_13
REMARK   10  A    between atoms: C_13  and  C_14
REMARK   11  A    between atoms: C_28  and  O_29
REMARK   12  A    between atoms: O_29  and  C_30
REMARK                            x       y       z     vdW  Elec       q    Type
REMARK                         _______ _______ _______ _____ _____    ______ ____
ROOT
ATOM      1  N   UNL     1       4.213   4.828  17.775  0.00  0.00    +0.000 N 
ATOM      2  C   UNL     1       3.145   5.729  17.894  0.00  0.00    +0.000 C 
ATOM      3  O   UNL     1       1.963   5.394  17.874  0.00  0.00    +0.000 OA
ENDROOT
BRANCH   1   4
ATOM      4  C   UNL     1       5.564   5.304  17.913  0.00  0.00    +0.000 A 
ATOM      5  C   UNL     1       6.095   5.295  19.220  0.00  0.00    +0.000 A 
ATOM      6  C   UNL     1       7.300   5.939  19.518  0.00  0.00    +0.000 A 
ATOM      7  C   UNL     1       7.997   6.584  18.507  0.00  0.00    +0.000 A 
ATOM      8  C   UNL     1       7.501   6.567  17.204  0.00  0.00    +0.000 A 
ATOM      9  C   UNL     1       6.285   5.938  16.882  0.00  0.00    +0.000 A 
BRANCH   9  10
ATOM     10  O   UNL     1       5.987   6.105  15.560  0.00  0.00    +0.000 OA
ATOM     11  C   UNL     1       6.375   5.153  14.589  0.00  0.00    +0.000 C 
ENDBRANCH   9  10
ENDBRANCH   1   4
BRANCH   1  12
ATOM     12  C   UNL     1       4.093   3.351  17.832  0.00  0.00    +0.000 C 
BRANCH  12  14
ATOM     13  N   UNL     1       3.614   2.925  20.262  0.00  0.00    +0.000 N 
ATOM     14  C   UNL     1       3.635   2.431  18.985  0.00  0.00    +0.000 C 
ATOM     15  O   UNL     1       3.122   1.337  18.719  0.00  0.00    +0.000 OA
ATOM     16  H   UNL     1       4.285   3.660  20.487  0.00  0.00    +0.000 HD
BRANCH  13  17
ATOM     17  C   UNL     1       3.067   2.128  21.350  0.00  0.00    +0.000 C 
BRANCH  17  18
ATOM     18  C   UNL     1       1.669   2.559  21.792  0.00  0.00    +0.000 C 
BRANCH  18  20
ATOM     19  C   UNL     1       0.363   3.318  19.983  0.00  0.00    +0.000 C 
ATOM     20  O   UNL     1       1.239   3.693  21.035  0.00  0.00    +0.000 OA
ENDBRANCH  18  20
ENDBRANCH  17  18
ENDBRANCH  13  17
ENDBRANCH  12  14
ENDBRANCH   1  12
BRANCH   2  21
ATOM     21  C   UNL     1       3.534   7.190  18.109  0.00  0.00    +0.000 C 
BRANCH  21  22
ATOM     22  C   UNL     1       2.780   8.249  17.314  0.00  0.00    +0.000 C 
BRANCH  22  23
ATOM     23  C   UNL     1       1.989   9.089  18.314  0.00  0.00    +0.000 C 
ATOM     24  O   UNL     1       1.835  10.301  18.167  0.00  0.00    +0.000 OA
ATOM     25  N   UNL     1       1.495   8.382  19.387  0.00  0.00    +0.000 N 
ATOM     26  C   UNL     1       0.845   9.043  20.439  0.00  0.00    +0.000 A 
ATOM     27  C   UNL     1      -0.133  10.008  20.217  0.00  0.00    +0.000 A 
ATOM     28  C   UNL     1      -0.679  10.672  21.312  0.00  0.00    +0.000 A 
ATOM     29  C   UNL     1      -0.208  10.375  22.584  0.00  0.00    +0.000 A 
ATOM     30  C   UNL     1       0.756   9.389  22.708  0.00  0.00    +0.000 A 
ATOM     31  N   UNL     1       1.261   8.684  21.670  0.00  0.00    +0.000 NA
ATOM     32  H   UNL     1       2.028   7.582  19.696  0.00  0.00    +0.000 HD
ENDBRANCH  22  23
ENDBRANCH  21  22
ENDBRANCH   2  21
TORSDOF 10
ENDMDL
MODEL 5
REMARK VINA RESULT:      -7.0      2.249      4.849
REMARK  Name = 
REMARK  12 active torsions:
REMARK  status: ('A' for Active; 'I' for Inactive)
REMARK    1  A    between atoms: C_1  and  O_2
REMARK    2  A    between atoms: O_2  and  C_3
REMARK    3  A    between atoms: C_3  and  C_4
REMARK    4  A    between atoms: C_4  and  N_5
REMARK    5  A    between atoms: C_6  and  C_8
REMARK    6  A    between atoms: C_8  and  N_9
REMARK    7  A    between atoms: N_9  and  C_23
REMARK    8  A    between atoms: C_10  and  C_12
REMARK    9  A    between atoms: C_12  and  C_13
REMARK   10  A    between atoms: C_13  and  C_14
REMARK   11  A    between atoms: C_28  and  O_29
REMARK   12  A    between atoms: O_29  and  C_30
REMARK                            x       y       z     vdW  Elec       q    Type
REMARK                         _______ _______ _______ _____ _____    ______ ____
ROOT
ATOM      1  N   UNL     1       4.318   4.739  17.683  0.00  0.00    +0.000 N 
ATOM      2  C   UNL     1       3.216   5.605  17.747  0.00  0.00    +0.000 C 
ATOM      3  O   UNL     1       2.047   5.228  17.703  0.00  0.00    +0.000 OA
ENDROOT
BRANCH   1   4
ATOM      4  C   UNL     1       5.647   5.266  17.845  0.00  0.00    +0.000 A 
ATOM      5  C   UNL     1       6.161   5.260  19.160  0.00  0.00    +0.000 A 
ATOM      6  C   UNL     1       7.335   5.947  19.483  0.00  0.00    +0.000 A 
ATOM      7  C   UNL     1       8.019   6.634  18.491  0.00  0.00    +0.000 A 
ATOM      8  C   UNL     1       7.542   6.615  17.181  0.00  0.00    +0.000 A 
ATOM      9  C   UNL     1       6.356   5.943  16.834  0.00  0.00    +0.000 A 
BRANCH   9  10
ATOM     10  O   UNL     1       6.068   6.117  15.510  0.00  0.00    +0.000 OA
ATOM     11  C   UNL     1       6.348   5.111  14.555  0.00  0.00    +0.000 C 
ENDBRANCH   9  10
ENDBRANCH   1   4
BRANCH   1  12
ATOM     12  C   UNL     1       4.247   3.261  17.777  0.00  0.00    +0.000 C 
BRANCH  12  14
ATOM     13  N   UNL     1       3.744   2.842  20.202  0.00  0.00    +0.000 N 
ATOM     14  C   UNL     1       3.743   2.357  18.922  0.00  0.00    +0.000 C 
ATOM     15  O   UNL     1       3.177   1.292  18.648  0.00  0.00    +0.000 OA
ATOM     16  H   UNL     1       4.451   3.542  20.434  0.00  0.00    +0.000 HD
BRANCH  13  17
ATOM     17  C   UNL     1       3.158   2.065  21.285  0.00  0.00    +0.000 C 
BRANCH  17  18
ATOM     18  C   UNL     1       1.864   2.659  21.842  0.00  0.00    +0.000 C 
BRANCH  18  20
ATOM     19  C   UNL     1       0.816   4.294  20.505  0.00  0.00    +0.000 C 
ATOM     20  O   UNL     1       0.936   2.906  20.783  0.00  0.00    +0.000 OA
ENDBRANCH  18  20
ENDBRANCH  17  18
ENDBRANCH  13  17
ENDBRANCH  12  14
ENDBRANCH   1  12
BRANCH   2  21
ATOM     21  C   UNL     1       3.548   7.083  17.934  0.00  0.00    +0.000 C 
BRANCH  21  22
ATOM     22  C   UNL     1       2.619   8.105  17.291  0.00  0.00    +0.000 C 
BRANCH  22  23
ATOM     23  C   UNL     1       1.849   8.791  18.417  0.00  0.00    +0.000 C 
ATOM     24  O   UNL     1       1.748   8.289  19.535  0.00  0.00    +0.000 OA
ATOM     25  N   UNL     1       1.269   9.989  18.063  0.00  0.00    +0.000 N 
ATOM     26  C   UNL     1       0.440  10.674  18.962  0.00  0.00    +0.000 A 
ATOM     27  C   UNL     1       0.795  10.874  20.293  0.00  0.00    +0.000 A 
ATOM     28  C   UNL     1      -0.115  11.499  21.142  0.00  0.00    +0.000 A 
ATOM     29  C   UNL     1      -1.355  11.872  20.644  0.00  0.00    +0.000 A 
ATOM     30  C   UNL     1      -1.614  11.646  19.302  0.00  0.00    +0.000 A 
ATOM     31  N   UNL     1      -0.728  11.097  18.439  0.00  0.00    +0.000 NA
ATOM     32  H   UNL     1       0.976  10.092  17.102  0.00  0.00    +0.000 HD
ENDBRANCH  22  23
ENDBRANCH  21  22
ENDBRANCH   2  21
TORSDOF 10
ENDMDL
MODEL 6
REMARK VINA RESULT:      -7.0      2.059      8.219
REMARK  Name = 
REMARK  12 active torsions:
REMARK  status: ('A' for Active; 'I' for Inactive)
REMARK    1  A    between atoms: C_1  and  O_2
REMARK    2  A    between atoms: O_2  and  C_3
REMARK    3  A    between atoms: C_3  and  C_4
REMARK    4  A    between atoms: C_4  and  N_5
REMARK    5  A    between atoms: C_6  and  C_8
REMARK    6  A    between atoms: C_8  and  N_9
REMARK    7  A    between atoms: N_9  and  C_23
REMARK    8  A    between atoms: C_10  and  C_12
REMARK    9  A    between atoms: C_12  and  C_13
REMARK   10  A    between atoms: C_13  and  C_14
REMARK   11  A    between atoms: C_28  and  O_29
REMARK   12  A    between atoms: O_29  and  C_30
REMARK                            x       y       z     vdW  Elec       q    Type
REMARK                         _______ _______ _______ _____ _____    ______ ____
ROOT
ATOM      1  N   UNL     1       2.576   6.401  18.255  0.00  0.00    +0.000 N 
ATOM      2  C   UNL     1       3.958   6.530  18.052  0.00  0.00    +0.000 C 
ATOM      3  O   UNL     1       4.470   7.425  17.384  0.00  0.00    +0.000 OA
ENDROOT
BRANCH   1   4
ATOM      4  C   UNL     1       2.079   5.379  19.137  0.00  0.00    +0.000 A 
ATOM      5  C   UNL     1       2.189   5.643  20.519  0.00  0.00    +0.000 A 
ATOM      6  C   UNL     1       1.956   4.645  21.469  0.00  0.00    +0.000 A 
ATOM      7  C   UNL     1       1.594   3.374  21.049  0.00  0.00    +0.000 A 
ATOM      8  C   UNL     1       1.445   3.110  19.688  0.00  0.00    +0.000 A 
ATOM      9  C   UNL     1       1.686   4.094  18.713  0.00  0.00    +0.000 A 
BRANCH   9  10
ATOM     10  O   UNL     1       1.529   3.582  17.456  0.00  0.00    +0.000 OA
ATOM     11  C   UNL     1       2.615   3.012  16.751  0.00  0.00    +0.000 C 
ENDBRANCH   9  10
ENDBRANCH   1   4
BRANCH   1  12
ATOM     12  C   UNL     1       1.563   7.423  17.896  0.00  0.00    +0.000 C 
BRANCH  12  14
ATOM     13  N   UNL     1       1.016   9.376  19.379  0.00  0.00    +0.000 N 
ATOM     14  C   UNL     1       1.528   8.938  18.187  0.00  0.00    +0.000 C 
ATOM     15  O   UNL     1       2.127   9.714  17.431  0.00  0.00    +0.000 OA
ATOM     16  H   UNL     1       0.297   8.798  19.816  0.00  0.00    +0.000 HD
BRANCH  13  17
ATOM     17  C   UNL     1       1.086  10.785  19.738  0.00  0.00    +0.000 C 
BRANCH  17  18
ATOM     18  C   UNL     1       0.452  11.111  21.090  0.00  0.00    +0.000 C 
BRANCH  18  20
ATOM     19  C   UNL     1      -0.002   9.457  22.707  0.00  0.00    +0.000 C 
ATOM     20  O   UNL     1      -0.426  10.058  21.493  0.00  0.00    +0.000 OA
ENDBRANCH  18  20
ENDBRANCH  17  18
ENDBRANCH  13  17
ENDBRANCH  12  14
ENDBRANCH   1  12
BRANCH   2  21
ATOM     21  C   UNL     1       4.830   5.500  18.767  0.00  0.00    +0.000 C 
BRANCH  21  22
ATOM     22  C   UNL     1       6.269   5.339  18.294  0.00  0.00    +0.000 C 
BRANCH  22  23
ATOM     23  C   UNL     1       6.224   4.687  16.915  0.00  0.00    +0.000 C 
ATOM     24  O   UNL     1       5.996   3.486  16.770  0.00  0.00    +0.000 OA
ATOM     25  N   UNL     1       6.479   5.545  15.870  0.00  0.00    +0.000 N 
ATOM     26  C   UNL     1       6.581   5.063  14.557  0.00  0.00    +0.000 A 
ATOM     27  C   UNL     1       5.652   4.177  14.019  0.00  0.00    +0.000 A 
ATOM     28  C   UNL     1       5.862   3.686  12.733  0.00  0.00    +0.000 A 
ATOM     29  C   UNL     1       7.004   4.069  12.044  0.00  0.00    +0.000 A 
ATOM     30  C   UNL     1       7.864   4.967  12.654  0.00  0.00    +0.000 A 
ATOM     31  N   UNL     1       7.655   5.508  13.877  0.00  0.00    +0.000 NA
ATOM     32  H   UNL     1       7.102   6.320  16.052  0.00  0.00    +0.000 HD
ENDBRANCH  22  23
ENDBRANCH  21  22
ENDBRANCH   2  21
TORSDOF 10
ENDMDL
MODEL 7
REMARK VINA RESULT:      -6.9      3.793      6.172
REMARK  Name = 
REMARK  12 active torsions:
REMARK  status: ('A' for Active; 'I' for Inactive)
REMARK    1  A    between atoms: C_1  and  O_2
REMARK    2  A    between atoms: O_2  and  C_3
REMARK    3  A    between atoms: C_3  and  C_4
REMARK    4  A    between atoms: C_4  and  N_5
REMARK    5  A    between atoms: C_6  and  C_8
REMARK    6  A    between atoms: C_8  and  N_9
REMARK    7  A    between atoms: N_9  and  C_23
REMARK    8  A    between atoms: C_10  and  C_12
REMARK    9  A    between atoms: C_12  and  C_13
REMARK   10  A    between atoms: C_13  and  C_14
REMARK   11  A    between atoms: C_28  and  O_29
REMARK   12  A    between atoms: O_29  and  C_30
REMARK                            x       y       z     vdW  Elec       q    Type
REMARK                         _______ _______ _______ _____ _____    ______ ____
ROOT
ATOM      1  N   UNL     1       5.816   4.573  16.950  0.00  0.00    +0.000 N 
ATOM      2  C   UNL     1       7.036   4.947  17.535  0.00  0.00    +0.000 C 
ATOM      3  O   UNL     1       8.115   4.433  17.251  0.00  0.00    +0.000 OA
ENDROOT
BRANCH   1   4
ATOM      4  C   UNL     1       4.619   5.303  17.273  0.00  0.00    +0.000 A 
ATOM      5  C   UNL     1       4.614   6.672  16.929  0.00  0.00    +0.000 A 
ATOM      6  C   UNL     1       3.614   7.533  17.391  0.00  0.00    +0.000 A 
ATOM      7  C   UNL     1       2.597   7.031  18.189  0.00  0.00    +0.000 A 
ATOM      8  C   UNL     1       2.570   5.673  18.504  0.00  0.00    +0.000 A 
ATOM      9  C   UNL     1       3.572   4.790  18.063  0.00  0.00    +0.000 A 
BRANCH   9  10
ATOM     10  O   UNL     1       3.357   3.530  18.546  0.00  0.00    +0.000 OA
ATOM     11  C   UNL     1       2.553   3.305  19.687  0.00  0.00    +0.000 C 
ENDBRANCH   9  10
ENDBRANCH   1   4
BRANCH   1  12
ATOM     12  C   UNL     1       5.673   3.686  15.770  0.00  0.00    +0.000 C 
BRANCH  12  14
ATOM     13  N   UNL     1       5.660   3.071  13.334  0.00  0.00    +0.000 N 
ATOM     14  C   UNL     1       6.180   3.862  14.323  0.00  0.00    +0.000 C 
ATOM     15  O   UNL     1       6.903   4.829  14.048  0.00  0.00    +0.000 OA
ATOM     16  H   UNL     1       5.330   2.144  13.606  0.00  0.00    +0.000 HD
BRANCH  13  17
ATOM     17  C   UNL     1       6.021   3.298  11.942  0.00  0.00    +0.000 C 
BRANCH  17  18
ATOM     18  C   UNL     1       7.424   2.811  11.580  0.00  0.00    +0.000 C 
BRANCH  18  20
ATOM     19  C   UNL     1       6.062   0.974  11.012  0.00  0.00    +0.000 C 
ATOM     20  O   UNL     1       7.353   1.555  10.902  0.00  0.00    +0.000 OA
ENDBRANCH  18  20
ENDBRANCH  17  18
ENDBRANCH  13  17
ENDBRANCH  12  14
ENDBRANCH   1  12
BRANCH   2  21
ATOM     21  C   UNL     1       6.962   6.096  18.537  0.00  0.00    +0.000 C 
BRANCH  21  22
ATOM     22  C   UNL     1       8.272   6.747  18.967  0.00  0.00    +0.000 C 
BRANCH  22  23
ATOM     23  C   UNL     1       8.309   8.142  18.349  0.00  0.00    +0.000 C 
ATOM     24  O   UNL     1       7.831   8.375  17.239  0.00  0.00    +0.000 OA
ATOM     25  N   UNL     1       8.937   9.091  19.123  0.00  0.00    +0.000 N 
ATOM     26  C   UNL     1       9.145  10.389  18.635  0.00  0.00    +0.000 A 
ATOM     27  C   UNL     1       8.138  11.112  18.001  0.00  0.00    +0.000 A 
ATOM     28  C   UNL     1       8.442  12.366  17.478  0.00  0.00    +0.000 A 
ATOM     29  C   UNL     1       9.744  12.839  17.575  0.00  0.00    +0.000 A 
ATOM     30  C   UNL     1      10.675  12.055  18.237  0.00  0.00    +0.000 A 
ATOM     31  N   UNL     1      10.394  10.862  18.808  0.00  0.00    +0.000 NA
ATOM     32  H   UNL     1       9.685   8.774  19.723  0.00  0.00    +0.000 HD
ENDBRANCH  22  23
ENDBRANCH  21  22
ENDBRANCH   2  21
TORSDOF 10
ENDMDL
MODEL 8
REMARK VINA RESULT:      -6.9      2.423      4.856
REMARK  Name = 
REMARK  12 active torsions:
REMARK  status: ('A' for Active; 'I' for Inactive)
REMARK    1  A    between atoms: C_1  and  O_2
REMARK    2  A    between atoms: O_2  and  C_3
REMARK    3  A    between atoms: C_3  and  C_4
REMARK    4  A    between atoms: C_4  and  N_5
REMARK    5  A    between atoms: C_6  and  C_8
REMARK    6  A    between atoms: C_8  and  N_9
REMARK    7  A    between atoms: N_9  and  C_23
REMARK    8  A    between atoms: C_10  and  C_12
REMARK    9  A    between atoms: C_12  and  C_13
REMARK   10  A    between atoms: C_13  and  C_14
REMARK   11  A    between atoms: C_28  and  O_29
REMARK   12  A    between atoms: O_29  and  C_30
REMARK                            x       y       z     vdW  Elec       q    Type
REMARK                         _______ _______ _______ _____ _____    ______ ____
ROOT
ATOM      1  N   UNL     1       4.723   4.934  18.155  0.00  0.00    +0.000 N 
ATOM      2  C   UNL     1       4.011   6.030  18.665  0.00  0.00    +0.000 C 
ATOM      3  O   UNL     1       3.432   6.025  19.749  0.00  0.00    +0.000 OA
ENDROOT
BRANCH   1   4
ATOM      4  C   UNL     1       5.453   5.072  16.923  0.00  0.00    +0.000 A 
ATOM      5  C   UNL     1       4.948   4.351  15.819  0.00  0.00    +0.000 A 
ATOM      6  C   UNL     1       5.688   4.220  14.640  0.00  0.00    +0.000 A 
ATOM      7  C   UNL     1       6.934   4.822  14.545  0.00  0.00    +0.000 A 
ATOM      8  C   UNL     1       7.426   5.568  15.615  0.00  0.00    +0.000 A 
ATOM      9  C   UNL     1       6.707   5.704  16.816  0.00  0.00    +0.000 A 
BRANCH   9  10
ATOM     10  O   UNL     1       7.418   6.430  17.729  0.00  0.00    +0.000 OA
ATOM     11  C   UNL     1       7.915   5.841  18.915  0.00  0.00    +0.000 C 
ENDBRANCH   9  10
ENDBRANCH   1   4
BRANCH   1  12
ATOM     12  C   UNL     1       5.070   3.713  18.921  0.00  0.00    +0.000 C 
BRANCH  12  14
ATOM     13  N   UNL     1       3.449   3.242  20.782  0.00  0.00    +0.000 N 
ATOM     14  C   UNL     1       4.170   2.752  19.727  0.00  0.00    +0.000 C 
ATOM     15  O   UNL     1       3.970   1.608  19.299  0.00  0.00    +0.000 OA
ATOM     16  H   UNL     1       3.837   4.047  21.276  0.00  0.00    +0.000 HD
BRANCH  13  17
ATOM     17  C   UNL     1       2.495   2.393  21.481  0.00  0.00    +0.000 C 
BRANCH  17  18
ATOM     18  C   UNL     1       1.036   2.799  21.273  0.00  0.00    +0.000 C 
BRANCH  18  20
ATOM     19  C   UNL     1       0.575   2.551  18.975  0.00  0.00    +0.000 C 
ATOM     20  O   UNL     1       0.881   3.464  20.018  0.00  0.00    +0.000 OA
ENDBRANCH  18  20
ENDBRANCH  17  18
ENDBRANCH  13  17
ENDBRANCH  12  14
ENDBRANCH   1  12
BRANCH   2  21
ATOM     21  C   UNL     1       4.033   7.291  17.804  0.00  0.00    +0.000 C 
BRANCH  21  22
ATOM     22  C   UNL     1       2.722   7.739  17.169  0.00  0.00    +0.000 C 
BRANCH  22  23
ATOM     23  C   UNL     1       2.065   8.725  18.133  0.00  0.00    +0.000 C 
ATOM     24  O   UNL     1       2.102   9.940  17.945  0.00  0.00    +0.000 OA
ATOM     25  N   UNL     1       1.461   8.140  19.222  0.00  0.00    +0.000 N 
ATOM     26  C   UNL     1       0.916   8.927  20.247  0.00  0.00    +0.000 A 
ATOM     27  C   UNL     1       0.101  10.025  19.983  0.00  0.00    +0.000 A 
ATOM     28  C   UNL     1      -0.342  10.801  21.050  0.00  0.00    +0.000 A 
ATOM     29  C   UNL     1       0.070  10.478  22.336  0.00  0.00    +0.000 A 
ATOM     30  C   UNL     1       0.869   9.359  22.502  0.00  0.00    +0.000 A 
ATOM     31  N   UNL     1       1.265   8.550  21.492  0.00  0.00    +0.000 NA
ATOM     32  H   UNL     1       1.862   7.277  19.563  0.00  0.00    +0.000 HD
ENDBRANCH  22  23
ENDBRANCH  21  22
ENDBRANCH   2  21
TORSDOF 10
ENDMDL
MODEL 9
REMARK VINA RESULT:      -6.9      1.343      1.661
REMARK  Name = 
REMARK  12 active torsions:
REMARK  status: ('A' for Active; 'I' for Inactive)
REMARK    1  A    between atoms: C_1  and  O_2
REMARK    2  A    between atoms: O_2  and  C_3
REMARK    3  A    between atoms: C_3  and  C_4
REMARK    4  A    between atoms: C_4  and  N_5
REMARK    5  A    between atoms: C_6  and  C_8
REMARK    6  A    between atoms: C_8  and  N_9
REMARK    7  A    between atoms: N_9  and  C_23
REMARK    8  A    between atoms: C_10  and  C_12
REMARK    9  A    between atoms: C_12  and  C_13
REMARK   10  A    between atoms: C_13  and  C_14
REMARK   11  A    between atoms: C_28  and  O_29
REMARK   12  A    between atoms: O_29  and  C_30
REMARK                            x       y       z     vdW  Elec       q    Type
REMARK                         _______ _______ _______ _____ _____    ______ ____
ROOT
ATOM      1  N   UNL     1       4.388   4.896  17.550  0.00  0.00    +0.000 N 
ATOM      2  C   UNL     1       4.053   6.254  17.657  0.00  0.00    +0.000 C 
ATOM      3  O   UNL     1       4.750   7.166  17.220  0.00  0.00    +0.000 OA
ENDROOT
BRANCH   1   4
ATOM      4  C   UNL     1       3.457   3.896  18.002  0.00  0.00    +0.000 A 
ATOM      5  C   UNL     1       2.162   3.955  17.443  0.00  0.00    +0.000 A 
ATOM      6  C   UNL     1       1.112   3.192  17.963  0.00  0.00    +0.000 A 
ATOM      7  C   UNL     1       1.349   2.348  19.038  0.00  0.00    +0.000 A 
ATOM      8  C   UNL     1       2.632   2.253  19.574  0.00  0.00    +0.000 A 
ATOM      9  C   UNL     1       3.701   3.020  19.077  0.00  0.00    +0.000 A 
BRANCH   9  10
ATOM     10  O   UNL     1       4.838   2.793  19.800  0.00  0.00    +0.000 OA
ATOM     11  C   UNL     1       4.944   1.697  20.687  0.00  0.00    +0.000 C 
ENDBRANCH   9  10
ENDBRANCH   1   4
BRANCH   1  12
ATOM     12  C   UNL     1       5.490   4.352  16.720  0.00  0.00    +0.000 C 
BRANCH  12  14
ATOM     13  N   UNL     1       6.243   3.619  14.438  0.00  0.00    +0.000 N 
ATOM     14  C   UNL     1       5.878   4.653  15.256  0.00  0.00    +0.000 C 
ATOM     15  O   UNL     1       5.675   5.785  14.797  0.00  0.00    +0.000 OA
ATOM     16  H   UNL     1       6.676   2.807  14.880  0.00  0.00    +0.000 HD
BRANCH  13  17
ATOM     17  C   UNL     1       6.490   3.851  13.022  0.00  0.00    +0.000 C 
BRANCH  17  18
ATOM     18  C   UNL     1       5.639   2.984  12.095  0.00  0.00    +0.000 C 
BRANCH  18  20
ATOM     19  C   UNL     1       3.716   3.239  10.755  0.00  0.00    +0.000 C 
ATOM     20  O   UNL     1       4.307   3.498  12.020  0.00  0.00    +0.000 OA
ENDBRANCH  18  20
ENDBRANCH  17  18
ENDBRANCH  13  17
ENDBRANCH  12  14
ENDBRANCH   1  12
BRANCH   2  21
ATOM     21  C   UNL     1       2.709   6.553  18.317  0.00  0.00    +0.000 C 
BRANCH  21  22
ATOM     22  C   UNL     1       2.678   6.681  19.835  0.00  0.00    +0.000 C 
BRANCH  22  23
ATOM     23  C   UNL     1       1.774   7.864  20.173  0.00  0.00    +0.000 C 
ATOM     24  O   UNL     1       1.225   7.971  21.269  0.00  0.00    +0.000 OA
ATOM     25  N   UNL     1       1.614   8.769  19.149  0.00  0.00    +0.000 N 
ATOM     26  C   UNL     1       0.723   9.844  19.277  0.00  0.00    +0.000 A 
ATOM     27  C   UNL     1       0.688  10.644  20.416  0.00  0.00    +0.000 A 
ATOM     28  C   UNL     1      -0.274  11.647  20.500  0.00  0.00    +0.000 A 
ATOM     29  C   UNL     1      -1.186  11.794  19.464  0.00  0.00    +0.000 A 
ATOM     30  C   UNL     1      -1.064  10.961  18.364  0.00  0.00    +0.000 A 
ATOM     31  N   UNL     1      -0.102  10.020  18.227  0.00  0.00    +0.000 NA
ATOM     32  H   UNL     1       1.660   8.409  18.206  0.00  0.00    +0.000 HD
ENDBRANCH  22  23
ENDBRANCH  21  22
ENDBRANCH   2  21
TORSDOF 10
ENDMDL
