MODEL 1
REMARK VINA RESULT:      -7.1      0.000      0.000
REMARK  Name = 
REMARK  2 active torsions:
REMARK  status: ('A' for Active; 'I' for Inactive)
REMARK    1  A    between atoms: C_1  and  C_2
REMARK    2  A    between atoms: C_7  and  C_8
REMARK                            x       y       z     vdW  Elec       q    Type
REMARK                         _______ _______ _______ _____ _____    ______ ____
ROOT
ATOM      1  C   UNL     1       1.044   9.899  19.531  0.00  0.00    +0.000 A 
ATOM      2  N   UNL     1       0.858   9.275  20.677  0.00  0.00    +0.000 NA
ATOM      3  N   UNL     1       1.445   8.026  20.715  0.00  0.00    +0.000 NA
ATOM      4  C   UNL     1       2.033   7.706  19.582  0.00  0.00    +0.000 A 
ATOM      5  N   UNL     1       2.586   6.515  19.250  0.00  0.00    +0.000 N 
ATOM      6  C   UNL     1       2.571   5.364  19.980  0.00  0.00    +0.000 C 
ATOM      7  N   UNL     1       2.489   5.312  21.268  0.00  0.00    +0.000 NA
ATOM      8  N   UNL     1       2.533   4.217  19.221  0.00  0.00    +0.000 N 
ATOM      9  C   UNL     1       3.508   3.903  18.165  0.00  0.00    +0.000 C 
ATOM     10  C   UNL     1       2.851   2.967  17.135  0.00  0.00    +0.000 C 
ATOM     11  O   UNL     1       2.358   1.765  17.748  0.00  0.00    +0.000 OA
ATOM     12  C   UNL     1       1.408   2.080  18.780  0.00  0.00    +0.000 C 
ATOM     13  C   UNL     1       2.031   2.978  19.857  0.00  0.00    +0.000 C 
ATOM     14  S   UNL     1       2.007   8.982  18.428  0.00  0.00    +0.000 S 
ATOM     15  H   UNL     1       2.717   6.379  18.262  0.00  0.00    +0.000 HD
ATOM     16  H   UNL     1       2.460   6.275  21.628  0.00  0.00    +0.000 HD
ENDROOT
BRANCH   1  23
ATOM     17  C   UNL     1      -1.618  10.260  18.167  0.00  0.00    +0.000 C 
ATOM     18  C   UNL     1      -0.725  11.414  18.534  0.00  0.00    +0.000 A 
ATOM     19  C   UNL     1      -1.162  12.711  18.206  0.00  0.00    +0.000 A 
ATOM     20  C   UNL     1      -0.395  13.834  18.506  0.00  0.00    +0.000 A 
ATOM     21  C   UNL     1       0.833  13.675  19.130  0.00  0.00    +0.000 A 
ATOM     22  C   UNL     1       1.288  12.396  19.455  0.00  0.00    +0.000 A 
ATOM     23  C   UNL     1       0.525  11.241  19.177  0.00  0.00    +0.000 A 
ENDBRANCH   1  23
TORSDOF 1
ENDMDL
MODEL 2
REMARK VINA RESULT:      -6.8      3.650      8.214
REMARK  Name = 
REMARK  2 active torsions:
REMARK  status: ('A' for Active; 'I' for Inactive)
REMARK    1  A    between atoms: C_1  and  C_2
REMARK    2  A    between atoms: C_7  and  C_8
REMARK                            x       y       z     vdW  Elec       q    Type
REMARK                         _______ _______ _______ _____ _____    ______ ____
ROOT
ATOM      1  C   UNL     1       2.316   7.372  18.184  0.00  0.00    +0.000 A 
ATOM      2  N   UNL     1       2.161   8.338  17.301  0.00  0.00    +0.000 NA
ATOM      3  N   UNL     1       1.718   9.519  17.864  0.00  0.00    +0.000 NA
ATOM      4  C   UNL     1       1.506   9.418  19.158  0.00  0.00    +0.000 A 
ATOM      5  N   UNL     1       0.954  10.345  19.976  0.00  0.00    +0.000 N 
ATOM      6  C   UNL     1       0.415  11.546  19.621  0.00  0.00    +0.000 C 
ATOM      7  N   UNL     1       0.762  12.227  18.579  0.00  0.00    +0.000 NA
ATOM      8  N   UNL     1      -0.640  11.945  20.409  0.00  0.00    +0.000 N 
ATOM      9  C   UNL     1      -0.568  12.057  21.875  0.00  0.00    +0.000 C 
ATOM     10  C   UNL     1      -1.978  11.879  22.463  0.00  0.00    +0.000 C 
ATOM     11  O   UNL     1      -2.905  12.834  21.923  0.00  0.00    +0.000 OA
ATOM     12  C   UNL     1      -2.967  12.720  20.491  0.00  0.00    +0.000 C 
ATOM     13  C   UNL     1      -1.589  12.935  19.852  0.00  0.00    +0.000 C 
ATOM     14  S   UNL     1       1.958   7.884  19.794  0.00  0.00    +0.000 S 
ATOM     15  H   UNL     1       0.614   9.979  20.849  0.00  0.00    +0.000 HD
ATOM     16  H   UNL     1       1.514  11.718  18.097  0.00  0.00    +0.000 HD
ENDROOT
BRANCH   1  23
ATOM     17  C   UNL     1       5.134   6.762  17.310  0.00  0.00    +0.000 C 
ATOM     18  C   UNL     1       4.082   5.699  17.478  0.00  0.00    +0.000 A 
ATOM     19  C   UNL     1       4.446   4.368  17.197  0.00  0.00    +0.000 A 
ATOM     20  C   UNL     1       3.532   3.324  17.323  0.00  0.00    +0.000 A 
ATOM     21  C   UNL     1       2.233   3.597  17.722  0.00  0.00    +0.000 A 
ATOM     22  C   UNL     1       1.851   4.912  17.995  0.00  0.00    +0.000 A 
ATOM     23  C   UNL     1       2.760   5.989  17.891  0.00  0.00    +0.000 A 
ENDBRANCH   1  23
TORSDOF 1
ENDMDL
MODEL 3
REMARK VINA RESULT:      -6.8      3.488      8.151
REMARK  Name = 
REMARK  2 active torsions:
REMARK  status: ('A' for Active; 'I' for Inactive)
REMARK    1  A    between atoms: C_1  and  C_2
REMARK    2  A    between atoms: C_7  and  C_8
REMARK                            x       y       z     vdW  Elec       q    Type
REMARK                         _______ _______ _______ _____ _____    ______ ____
ROOT
ATOM      1  C   UNL     1       2.675   7.134  18.599  0.00  0.00    +0.000 A 
ATOM      2  N   UNL     1       2.295   7.142  19.862  0.00  0.00    +0.000 NA
ATOM      3  N   UNL     1       1.541   8.251  20.192  0.00  0.00    +0.000 NA
ATOM      4  C   UNL     1       1.395   9.086  19.186  0.00  0.00    +0.000 A 
ATOM      5  N   UNL     1       0.826  10.315  19.212  0.00  0.00    +0.000 N 
ATOM      6  C   UNL     1       0.365  10.990  20.302  0.00  0.00    +0.000 C 
ATOM      7  N   UNL     1      -0.070  10.431  21.383  0.00  0.00    +0.000 NA
ATOM      8  N   UNL     1       0.505  12.356  20.219  0.00  0.00    +0.000 N 
ATOM      9  C   UNL     1      -0.021  13.165  19.107  0.00  0.00    +0.000 C 
ATOM     10  C   UNL     1       0.820  14.447  18.976  0.00  0.00    +0.000 C 
ATOM     11  O   UNL     1       0.830  15.203  20.197  0.00  0.00    +0.000 OA
ATOM     12  C   UNL     1       1.341  14.406  21.278  0.00  0.00    +0.000 C 
ATOM     13  C   UNL     1       0.507  13.134  21.478  0.00  0.00    +0.000 C 
ATOM     14  S   UNL     1       2.079   8.497  17.721  0.00  0.00    +0.000 S 
ATOM     15  H   UNL     1       1.069  10.901  18.432  0.00  0.00    +0.000 HD
ATOM     16  H   UNL     1      -0.024   9.411  21.259  0.00  0.00    +0.000 HD
ENDROOT
BRANCH   1  23
ATOM     17  C   UNL     1       1.586   4.394  17.982  0.00  0.00    +0.000 C 
ATOM     18  C   UNL     1       2.997   4.805  17.659  0.00  0.00    +0.000 A 
ATOM     19  C   UNL     1       3.835   3.849  17.053  0.00  0.00    +0.000 A 
ATOM     20  C   UNL     1       5.156   4.146  16.724  0.00  0.00    +0.000 A 
ATOM     21  C   UNL     1       5.665   5.403  17.008  0.00  0.00    +0.000 A 
ATOM     22  C   UNL     1       4.852   6.361  17.618  0.00  0.00    +0.000 A 
ATOM     23  C   UNL     1       3.505   6.094  17.948  0.00  0.00    +0.000 A 
ENDBRANCH   1  23
TORSDOF 1
ENDMDL
MODEL 4
REMARK VINA RESULT:      -6.8      3.302      8.304
REMARK  Name = 
REMARK  2 active torsions:
REMARK  status: ('A' for Active; 'I' for Inactive)
REMARK    1  A    between atoms: C_1  and  C_2
REMARK    2  A    between atoms: C_7  and  C_8
REMARK                            x       y       z     vdW  Elec       q    Type
REMARK                         _______ _______ _______ _____ _____    ______ ____
ROOT
ATOM      1  C   UNL     1       2.413   6.254  18.661  0.00  0.00    +0.000 A 
ATOM      2  N   UNL     1       2.470   7.098  17.649  0.00  0.00    +0.000 NA
ATOM      3  N   UNL     1       2.140   8.391  18.005  0.00  0.00    +0.000 NA
ATOM      4  C   UNL     1       1.800   8.500  19.271  0.00  0.00    +0.000 A 
ATOM      5  N   UNL     1       1.306   9.593  19.900  0.00  0.00    +0.000 N 
ATOM      6  C   UNL     1       0.968  10.788  19.338  0.00  0.00    +0.000 C 
ATOM      7  N   UNL     1       1.496  11.269  18.261  0.00  0.00    +0.000 NA
ATOM      8  N   UNL     1      -0.091  11.418  19.951  0.00  0.00    +0.000 N 
ATOM      9  C   UNL     1      -0.136  11.726  21.389  0.00  0.00    +0.000 C 
ATOM     10  C   UNL     1      -1.606  11.804  21.840  0.00  0.00    +0.000 C 
ATOM     11  O   UNL     1      -2.343  12.779  21.086  0.00  0.00    +0.000 OA
ATOM     12  C   UNL     1      -2.290  12.472  19.682  0.00  0.00    +0.000 C 
ATOM     13  C   UNL     1      -0.844  12.428  19.173  0.00  0.00    +0.000 C 
ATOM     14  S   UNL     1       1.983   7.028  20.144  0.00  0.00    +0.000 S 
ATOM     15  H   UNL     1       0.843   9.397  20.771  0.00  0.00    +0.000 HD
ATOM     16  H   UNL     1       2.213  10.609  17.932  0.00  0.00    +0.000 HD
ENDROOT
BRANCH   1  23
ATOM     17  C   UNL     1       5.157   5.140  19.209  0.00  0.00    +0.000 C 
ATOM     18  C   UNL     1       3.980   4.273  18.851  0.00  0.00    +0.000 A 
ATOM     19  C   UNL     1       4.192   2.885  18.761  0.00  0.00    +0.000 A 
ATOM     20  C   UNL     1       3.158   2.012  18.431  0.00  0.00    +0.000 A 
ATOM     21  C   UNL     1       1.893   2.518  18.174  0.00  0.00    +0.000 A 
ATOM     22  C   UNL     1       1.665   3.893  18.249  0.00  0.00    +0.000 A 
ATOM     23  C   UNL     1       2.691   4.800  18.596  0.00  0.00    +0.000 A 
ENDBRANCH   1  23
TORSDOF 1
ENDMDL
MODEL 5
REMARK VINA RESULT:      -6.6      3.552      8.309
REMARK  Name = 
REMARK  2 active torsions:
REMARK  status: ('A' for Active; 'I' for Inactive)
REMARK    1  A    between atoms: C_1  and  C_2
REMARK    2  A    between atoms: C_7  and  C_8
REMARK                            x       y       z     vdW  Elec       q    Type
REMARK                         _______ _______ _______ _____ _____    ______ ____
ROOT
ATOM      1  C   UNL     1       2.214   7.156  18.759  0.00  0.00    +0.000 A 
ATOM      2  N   UNL     1       2.010   7.378  20.042  0.00  0.00    +0.000 NA
ATOM      3  N   UNL     1       1.589   8.667  20.307  0.00  0.00    +0.000 NA
ATOM      4  C   UNL     1       1.518   9.412  19.225  0.00  0.00    +0.000 A 
ATOM      5  N   UNL     1       1.265  10.740  19.156  0.00  0.00    +0.000 N 
ATOM      6  C   UNL     1       1.120  11.610  20.195  0.00  0.00    +0.000 C 
ATOM      7  N   UNL     1       0.705  11.282  21.375  0.00  0.00    +0.000 NA
ATOM      8  N   UNL     1       1.567  12.884  19.930  0.00  0.00    +0.000 N 
ATOM      9  C   UNL     1       1.111  13.688  18.786  0.00  0.00    +0.000 C 
ATOM     10  C   UNL     1       2.208  14.702  18.414  0.00  0.00    +0.000 C 
ATOM     11  O   UNL     1       2.552  15.544  19.526  0.00  0.00    +0.000 OA
ATOM     12  C   UNL     1       2.993  14.751  20.640  0.00  0.00    +0.000 C 
ATOM     13  C   UNL     1       1.914  13.752  21.078  0.00  0.00    +0.000 C 
ATOM     14  S   UNL     1       1.851   8.534  17.783  0.00  0.00    +0.000 S 
ATOM     15  H   UNL     1       1.539  11.171  18.289  0.00  0.00    +0.000 HD
ATOM     16  H   UNL     1       0.492  10.276  21.373  0.00  0.00    +0.000 HD
ENDROOT
BRANCH   1  23
ATOM     17  C   UNL     1       4.923   6.920  17.464  0.00  0.00    +0.000 C 
ATOM     18  C   UNL     1       3.956   5.771  17.550  0.00  0.00    +0.000 A 
ATOM     19  C   UNL     1       4.346   4.542  16.983  0.00  0.00    +0.000 A 
ATOM     20  C   UNL     1       3.509   3.429  17.016  0.00  0.00    +0.000 A 
ATOM     21  C   UNL     1       2.260   3.531  17.607  0.00  0.00    +0.000 A 
ATOM     22  C   UNL     1       1.851   4.744  18.166  0.00  0.00    +0.000 A 
ATOM     23  C   UNL     1       2.684   5.884  18.161  0.00  0.00    +0.000 A 
ENDBRANCH   1  23
TORSDOF 1
ENDMDL
MODEL 6
REMARK VINA RESULT:      -6.5      1.630      1.746
REMARK  Name = 
REMARK  2 active torsions:
REMARK  status: ('A' for Active; 'I' for Inactive)
REMARK    1  A    between atoms: C_1  and  C_2
REMARK    2  A    between atoms: C_7  and  C_8
REMARK                            x       y       z     vdW  Elec       q    Type
REMARK                         _______ _______ _______ _____ _____    ______ ____
ROOT
ATOM      1  C   UNL     1       0.064   9.634  20.599  0.00  0.00    +0.000 A 
ATOM      2  N   UNL     1      -0.177   8.605  21.388  0.00  0.00    +0.000 NA
ATOM      3  N   UNL     1       0.736   7.580  21.232  0.00  0.00    +0.000 NA
ATOM      4  C   UNL     1       1.630   7.831  20.300  0.00  0.00    +0.000 A 
ATOM      5  N   UNL     1       2.574   6.988  19.818  0.00  0.00    +0.000 N 
ATOM      6  C   UNL     1       2.744   5.672  20.127  0.00  0.00    +0.000 C 
ATOM      7  N   UNL     1       2.397   5.129  21.247  0.00  0.00    +0.000 NA
ATOM      8  N   UNL     1       3.222   4.907  19.088  0.00  0.00    +0.000 N 
ATOM      9  C   UNL     1       4.457   5.215  18.348  0.00  0.00    +0.000 C 
ATOM     10  C   UNL     1       4.359   4.615  16.934  0.00  0.00    +0.000 C 
ATOM     11  O   UNL     1       4.126   3.198  16.972  0.00  0.00    +0.000 OA
ATOM     12  C   UNL     1       2.921   2.906  17.700  0.00  0.00    +0.000 C 
ATOM     13  C   UNL     1       2.988   3.446  19.134  0.00  0.00    +0.000 C 
ATOM     14  S   UNL     1       1.478   9.410  19.633  0.00  0.00    +0.000 S 
ATOM     15  H   UNL     1       2.956   7.259  18.928  0.00  0.00    +0.000 HD
ATOM     16  H   UNL     1       2.000   5.862  21.850  0.00  0.00    +0.000 HD
ENDROOT
BRANCH   1  23
ATOM     17  C   UNL     1      -1.650  10.257  18.202  0.00  0.00    +0.000 C 
ATOM     18  C   UNL     1      -1.547  11.171  19.392  0.00  0.00    +0.000 A 
ATOM     19  C   UNL     1      -2.280  12.372  19.361  0.00  0.00    +0.000 A 
ATOM     20  C   UNL     1      -2.238  13.277  20.420  0.00  0.00    +0.000 A 
ATOM     21  C   UNL     1      -1.449  12.998  21.525  0.00  0.00    +0.000 A 
ATOM     22  C   UNL     1      -0.706  11.816  21.570  0.00  0.00    +0.000 A 
ATOM     23  C   UNL     1      -0.742  10.874  20.518  0.00  0.00    +0.000 A 
ENDBRANCH   1  23
TORSDOF 1
ENDMDL
MODEL 7
REMARK VINA RESULT:      -6.4      0.742      1.606
REMARK  Name = 
REMARK  2 active torsions:
REMARK  status: ('A' for Active; 'I' for Inactive)
REMARK    1  A    between atoms: C_1  and  C_2
REMARK    2  A    between atoms: C_7  and  C_8
REMARK                            x       y       z     vdW  Elec       q    Type
REMARK                         _______ _______ _______ _____ _____    ______ ____
ROOT
ATOM      1  C   UNL     1       0.811   9.480  19.538  0.00  0.00    +0.000 A 
ATOM      2  N   UNL     1       0.567   8.803  20.642  0.00  0.00    +0.000 NA
ATOM      3  N   UNL     1       1.318   7.648  20.746  0.00  0.00    +0.000 NA
ATOM      4  C   UNL     1       2.089   7.447  19.699  0.00  0.00    +0.000 A 
ATOM      5  N   UNL     1       2.845   6.356  19.432  0.00  0.00    +0.000 N 
ATOM      6  C   UNL     1       2.900   5.193  20.141  0.00  0.00    +0.000 C 
ATOM      7  N   UNL     1       2.658   5.093  21.407  0.00  0.00    +0.000 NA
ATOM      8  N   UNL     1       3.126   4.075  19.373  0.00  0.00    +0.000 N 
ATOM      9  C   UNL     1       4.267   3.932  18.454  0.00  0.00    +0.000 C 
ATOM     10  C   UNL     1       3.892   2.943  17.336  0.00  0.00    +0.000 C 
ATOM     11  O   UNL     1       3.499   1.667  17.864  0.00  0.00    +0.000 OA
ATOM     12  C   UNL     1       2.387   1.815  18.763  0.00  0.00    +0.000 C 
ATOM     13  C   UNL     1       2.728   2.759  19.923  0.00  0.00    +0.000 C 
ATOM     14  S   UNL     1       2.032   8.740  18.565  0.00  0.00    +0.000 S 
ATOM     15  H   UNL     1       3.123   6.268  18.469  0.00  0.00    +0.000 HD
ATOM     16  H   UNL     1       2.444   6.031  21.769  0.00  0.00    +0.000 HD
ENDROOT
BRANCH   1  23
ATOM     17  C   UNL     1       1.784  12.155  20.522  0.00  0.00    +0.000 C 
ATOM     18  C   UNL     1       0.610  12.004  19.593  0.00  0.00    +0.000 A 
ATOM     19  C   UNL     1      -0.060  13.174  19.187  0.00  0.00    +0.000 A 
ATOM     20  C   UNL     1      -1.159  13.123  18.332  0.00  0.00    +0.000 A 
ATOM     21  C   UNL     1      -1.614  11.895  17.878  0.00  0.00    +0.000 A 
ATOM     22  C   UNL     1      -0.969  10.722  18.278  0.00  0.00    +0.000 A 
ATOM     23  C   UNL     1       0.157  10.745  19.131  0.00  0.00    +0.000 A 
ENDBRANCH   1  23
TORSDOF 1
ENDMDL
MODEL 8
REMARK VINA RESULT:      -6.3      1.898      2.271
REMARK  Name = 
REMARK  2 active torsions:
REMARK  status: ('A' for Active; 'I' for Inactive)
REMARK    1  A    between atoms: C_1  and  C_2
REMARK    2  A    between atoms: C_7  and  C_8
REMARK                            x       y       z     vdW  Elec       q    Type
REMARK                         _______ _______ _______ _____ _____    ______ ____
ROOT
ATOM      1  C   UNL     1       0.010   9.529  20.602  0.00  0.00    +0.000 A 
ATOM      2  N   UNL     1      -0.199   8.493  21.389  0.00  0.00    +0.000 NA
ATOM      3  N   UNL     1       0.744   7.496  21.232  0.00  0.00    +0.000 NA
ATOM      4  C   UNL     1       1.630   7.775  20.300  0.00  0.00    +0.000 A 
ATOM      5  N   UNL     1       2.599   6.963  19.816  0.00  0.00    +0.000 N 
ATOM      6  C   UNL     1       2.809   5.652  20.124  0.00  0.00    +0.000 C 
ATOM      7  N   UNL     1       2.479   5.098  21.244  0.00  0.00    +0.000 NA
ATOM      8  N   UNL     1       3.310   4.903  19.084  0.00  0.00    +0.000 N 
ATOM      9  C   UNL     1       4.534   5.249  18.344  0.00  0.00    +0.000 C 
ATOM     10  C   UNL     1       4.454   4.648  16.929  0.00  0.00    +0.000 C 
ATOM     11  O   UNL     1       4.264   3.224  16.966  0.00  0.00    +0.000 OA
ATOM     12  C   UNL     1       3.069   2.895  17.694  0.00  0.00    +0.000 C 
ATOM     13  C   UNL     1       3.121   3.435  19.128  0.00  0.00    +0.000 C 
ATOM     14  S   UNL     1       1.430   9.350  19.635  0.00  0.00    +0.000 S 
ATOM     15  H   UNL     1       2.973   7.246  18.926  0.00  0.00    +0.000 HD
ATOM     16  H   UNL     1       2.061   5.817  21.848  0.00  0.00    +0.000 HD
ENDROOT
BRANCH   1  23
ATOM     17  C   UNL     1      -0.925  10.973  23.075  0.00  0.00    +0.000 C 
ATOM     18  C   UNL     1      -1.277  11.424  21.683  0.00  0.00    +0.000 A 
ATOM     19  C   UNL     1      -2.090  12.566  21.550  0.00  0.00    +0.000 A 
ATOM     20  C   UNL     1      -2.465  13.049  20.298  0.00  0.00    +0.000 A 
ATOM     21  C   UNL     1      -2.041  12.387  19.156  0.00  0.00    +0.000 A 
ATOM     22  C   UNL     1      -1.242  11.248  19.268  0.00  0.00    +0.000 A 
ATOM     23  C   UNL     1      -0.833  10.745  20.523  0.00  0.00    +0.000 A 
ENDBRANCH   1  23
TORSDOF 1
ENDMDL
MODEL 9
REMARK VINA RESULT:      -6.3      5.358      9.001
REMARK  Name = 
REMARK  2 active torsions:
REMARK  status: ('A' for Active; 'I' for Inactive)
REMARK    1  A    between atoms: C_1  and  C_2
REMARK    2  A    between atoms: C_7  and  C_8
REMARK                            x       y       z     vdW  Elec       q    Type
REMARK                         _______ _______ _______ _____ _____    ______ ____
ROOT
ATOM      1  C   UNL     1       0.806   9.754  21.021  0.00  0.00    +0.000 A 
ATOM      2  N   UNL     1       1.230  11.002  21.041  0.00  0.00    +0.000 NA
ATOM      3  N   UNL     1       0.467  11.819  21.853  0.00  0.00    +0.000 NA
ATOM      4  C   UNL     1      -0.546  11.186  22.403  0.00  0.00    +0.000 A 
ATOM      5  N   UNL     1      -1.547  11.722  23.142  0.00  0.00    +0.000 N 
ATOM      6  C   UNL     1      -1.772  13.041  23.397  0.00  0.00    +0.000 C 
ATOM      7  N   UNL     1      -0.854  13.951  23.424  0.00  0.00    +0.000 NA
ATOM      8  N   UNL     1      -3.102  13.373  23.517  0.00  0.00    +0.000 N 
ATOM      9  C   UNL     1      -4.028  12.714  24.451  0.00  0.00    +0.000 C 
ATOM     10  C   UNL     1      -5.462  12.830  23.905  0.00  0.00    +0.000 C 
ATOM     11  O   UNL     1      -5.840  14.199  23.693  0.00  0.00    +0.000 OA
ATOM     12  C   UNL     1      -4.929  14.837  22.782  0.00  0.00    +0.000 C 
ATOM     13  C   UNL     1      -3.488  14.787  23.305  0.00  0.00    +0.000 C 
ATOM     14  S   UNL     1      -0.557   9.502  22.052  0.00  0.00    +0.000 S 
ATOM     15  H   UNL     1      -2.363  11.139  23.221  0.00  0.00    +0.000 HD
ATOM     16  H   UNL     1       0.052  13.500  23.243  0.00  0.00    +0.000 HD
ENDROOT
BRANCH   1  23
ATOM     17  C   UNL     1       1.523  10.081  18.114  0.00  0.00    +0.000 C 
ATOM     18  C   UNL     1       1.735   8.796  18.868  0.00  0.00    +0.000 A 
ATOM     19  C   UNL     1       2.282   7.706  18.165  0.00  0.00    +0.000 A 
ATOM     20  C   UNL     1       2.508   6.480  18.787  0.00  0.00    +0.000 A 
ATOM     21  C   UNL     1       2.177   6.322  20.123  0.00  0.00    +0.000 A 
ATOM     22  C   UNL     1       1.624   7.388  20.835  0.00  0.00    +0.000 A 
ATOM     23  C   UNL     1       1.399   8.647  20.235  0.00  0.00    +0.000 A 
ENDBRANCH   1  23
TORSDOF 1
ENDMDL
