MODEL 1
REMARK VINA RESULT:      -8.7      0.000      0.000
REMARK  Name = 
REMARK  10 active torsions:
REMARK  status: ('A' for Active; 'I' for Inactive)
REMARK    1  A    between atoms: C_1  and  O_2
REMARK    2  A    between atoms: O_2  and  C_3
REMARK    3  A    between atoms: C_6  and  C_7
REMARK    4  A    between atoms: N_9  and  C_10
REMARK    5  A    between atoms: C_10  and  C_11
REMARK    6  A    between atoms: C_10  and  C_12
REMARK    7  A    between atoms: C_22  and  C_23
REMARK    8  A    between atoms: C_24  and  C_25
REMARK    9  A    between atoms: N_27  and  C_28
REMARK   10  A    between atoms: C_28  and  C_29
REMARK                            x       y       z     vdW  Elec       q    Type
REMARK                         _______ _______ _______ _____ _____    ______ ____
ROOT
ATOM      1  C   UNL     1       1.482  10.043  18.466  0.00  0.00    +0.000 A 
ATOM      2  C   UNL     1       2.318   9.490  17.487  0.00  0.00    +0.000 A 
ATOM      3  C   UNL     1       2.808   8.194  17.621  0.00  0.00    +0.000 A 
ATOM      4  C   UNL     1       2.493   7.444  18.755  0.00  0.00    +0.000 A 
ATOM      5  C   UNL     1       1.708   8.012  19.767  0.00  0.00    +0.000 A 
ATOM      6  C   UNL     1       1.209   9.319  19.636  0.00  0.00    +0.000 A 
ENDROOT
BRANCH   4   7
ATOM      7  C   UNL     1       3.049   6.064  18.846  0.00  0.00    +0.000 C 
ATOM      8  N   UNL     1       4.285   5.844  18.494  0.00  0.00    +0.000 NA
ATOM      9  N   UNL     1       4.821   4.589  18.701  0.00  0.00    +0.000 N 
ATOM     10  C   UNL     1       4.276   3.656  19.594  0.00  0.00    +0.000 C 
ATOM     11  O   UNL     1       4.816   2.581  19.858  0.00  0.00    +0.000 OA
ATOM     12  C   UNL     1       3.001   4.107  20.293  0.00  0.00    +0.000 C 
ATOM     13  C   UNL     1       2.177   2.921  20.815  0.00  0.00    +0.000 C 
ATOM     14  C   UNL     1       1.374   2.237  19.741  0.00  0.00    +0.000 C 
ATOM     15  C   UNL     1       1.149   2.778  18.535  0.00  0.00    +0.000 C 
ATOM     16  C   UNL     1       1.632   4.141  18.144  0.00  0.00    +0.000 C 
ATOM     17  C   UNL     1       2.164   4.951  19.339  0.00  0.00    +0.000 C 
BRANCH   9  18
ATOM     18  C   UNL     1       6.004   4.218  17.905  0.00  0.00    +0.000 C 
ATOM     19  C   UNL     1       5.674   4.239  16.408  0.00  0.00    +0.000 C 
ATOM     20  C   UNL     1       7.224   5.095  18.185  0.00  0.00    +0.000 C 
ENDBRANCH   9  18
ENDBRANCH   4   7
BRANCH   1  22
ATOM     21  C   UNL     1       1.859  12.364  18.523  0.00  0.00    +0.000 C 
ATOM     22  O   UNL     1       0.931  11.297  18.332  0.00  0.00    +0.000 OA
ENDBRANCH   1  22
BRANCH   6  23
ATOM     23  C   UNL     1       0.432   9.865  20.720  0.00  0.00    +0.000 C 
ATOM     24  C   UNL     1      -0.167  10.345  21.644  0.00  0.00    +0.000 C 
BRANCH  24  25
ATOM     25  C   UNL     1      -0.864  10.953  22.763  0.00  0.00    +0.000 C 
ATOM     26  O   UNL     1      -0.861  10.404  23.854  0.00  0.00    +0.000 OA
ATOM     27  N   UNL     1      -1.492  12.136  22.482  0.00  0.00    +0.000 N 
ATOM     28  H   UNL     1      -1.462  12.478  21.532  0.00  0.00    +0.000 HD
BRANCH  27  29
ATOM     29  C   UNL     1      -2.214  12.898  23.478  0.00  0.00    +0.000 C 
BRANCH  29  30
ATOM     30  C   UNL     1      -3.658  12.509  23.407  0.00  0.00    +0.000 C 
ATOM     31  C   UNL     1      -4.430  12.398  24.699  0.00  0.00    +0.000 C 
ATOM     32  C   UNL     1      -4.802  13.452  23.698  0.00  0.00    +0.000 C 
ENDBRANCH  29  30
ENDBRANCH  27  29
ENDBRANCH  24  25
ENDBRANCH   6  23
TORSDOF 7
ENDMDL
MODEL 2
REMARK VINA RESULT:      -8.3      0.690      1.090
REMARK  Name = 
REMARK  10 active torsions:
REMARK  status: ('A' for Active; 'I' for Inactive)
REMARK    1  A    between atoms: C_1  and  O_2
REMARK    2  A    between atoms: O_2  and  C_3
REMARK    3  A    between atoms: C_6  and  C_7
REMARK    4  A    between atoms: N_9  and  C_10
REMARK    5  A    between atoms: C_10  and  C_11
REMARK    6  A    between atoms: C_10  and  C_12
REMARK    7  A    between atoms: C_22  and  C_23
REMARK    8  A    between atoms: C_24  and  C_25
REMARK    9  A    between atoms: N_27  and  C_28
REMARK   10  A    between atoms: C_28  and  C_29
REMARK                            x       y       z     vdW  Elec       q    Type
REMARK                         _______ _______ _______ _____ _____    ______ ____
ROOT
ATOM      1  C   UNL     1       1.479  10.031  18.501  0.00  0.00    +0.000 A 
ATOM      2  C   UNL     1       2.320   9.488  17.522  0.00  0.00    +0.000 A 
ATOM      3  C   UNL     1       2.812   8.191  17.647  0.00  0.00    +0.000 A 
ATOM      4  C   UNL     1       2.493   7.431  18.772  0.00  0.00    +0.000 A 
ATOM      5  C   UNL     1       1.703   7.990  19.786  0.00  0.00    +0.000 A 
ATOM      6  C   UNL     1       1.202   9.297  19.664  0.00  0.00    +0.000 A 
ENDROOT
BRANCH   4   7
ATOM      7  C   UNL     1       3.050   6.051  18.855  0.00  0.00    +0.000 C 
ATOM      8  N   UNL     1       4.288   5.836  18.507  0.00  0.00    +0.000 NA
ATOM      9  N   UNL     1       4.824   4.579  18.706  0.00  0.00    +0.000 N 
ATOM     10  C   UNL     1       4.276   3.639  19.589  0.00  0.00    +0.000 C 
ATOM     11  O   UNL     1       4.817   2.562  19.845  0.00  0.00    +0.000 OA
ATOM     12  C   UNL     1       2.998   4.082  20.285  0.00  0.00    +0.000 C 
ATOM     13  C   UNL     1       2.172   2.890  20.793  0.00  0.00    +0.000 C 
ATOM     14  C   UNL     1       1.376   2.215  19.708  0.00  0.00    +0.000 C 
ATOM     15  C   UNL     1       1.156   2.766  18.506  0.00  0.00    +0.000 C 
ATOM     16  C   UNL     1       1.639   4.133  18.129  0.00  0.00    +0.000 C 
ATOM     17  C   UNL     1       2.164   4.933  19.334  0.00  0.00    +0.000 C 
BRANCH   9  18
ATOM     18  C   UNL     1       6.012   4.217  17.912  0.00  0.00    +0.000 C 
ATOM     19  C   UNL     1       5.667   4.168  16.419  0.00  0.00    +0.000 C 
ATOM     20  C   UNL     1       7.204   5.145  18.145  0.00  0.00    +0.000 C 
ENDBRANCH   9  18
ENDBRANCH   4   7
BRANCH   1  22
ATOM     21  C   UNL     1       1.862  12.352  18.535  0.00  0.00    +0.000 C 
ATOM     22  O   UNL     1       0.927  11.286  18.375  0.00  0.00    +0.000 OA
ENDBRANCH   1  22
BRANCH   6  23
ATOM     23  C   UNL     1       0.420   9.833  20.749  0.00  0.00    +0.000 C 
ATOM     24  C   UNL     1      -0.208  10.333  21.643  0.00  0.00    +0.000 C 
BRANCH  24  25
ATOM     25  C   UNL     1      -0.964  10.970  22.706  0.00  0.00    +0.000 C 
ATOM     26  O   UNL     1      -0.957  10.492  23.830  0.00  0.00    +0.000 OA
ATOM     27  N   UNL     1      -1.649  12.096  22.337  0.00  0.00    +0.000 N 
ATOM     28  H   UNL     1      -1.615  12.378  21.367  0.00  0.00    +0.000 HD
BRANCH  27  29
ATOM     29  C   UNL     1      -2.434  12.878  23.267  0.00  0.00    +0.000 C 
BRANCH  29  30
ATOM     30  C   UNL     1      -1.589  14.015  23.750  0.00  0.00    +0.000 C 
ATOM     31  C   UNL     1      -1.660  15.324  22.999  0.00  0.00    +0.000 C 
ATOM     32  C   UNL     1      -2.140  15.253  24.419  0.00  0.00    +0.000 C 
ENDBRANCH  29  30
ENDBRANCH  27  29
ENDBRANCH  24  25
ENDBRANCH   6  23
TORSDOF 7
ENDMDL
MODEL 3
REMARK VINA RESULT:      -8.0      1.027      2.938
REMARK  Name = 
REMARK  10 active torsions:
REMARK  status: ('A' for Active; 'I' for Inactive)
REMARK    1  A    between atoms: C_1  and  O_2
REMARK    2  A    between atoms: O_2  and  C_3
REMARK    3  A    between atoms: C_6  and  C_7
REMARK    4  A    between atoms: N_9  and  C_10
REMARK    5  A    between atoms: C_10  and  C_11
REMARK    6  A    between atoms: C_10  and  C_12
REMARK    7  A    between atoms: C_22  and  C_23
REMARK    8  A    between atoms: C_24  and  C_25
REMARK    9  A    between atoms: N_27  and  C_28
REMARK   10  A    between atoms: C_28  and  C_29
REMARK                            x       y       z     vdW  Elec       q    Type
REMARK                         _______ _______ _______ _____ _____    ______ ____
ROOT
ATOM      1  C   UNL     1       1.589  10.159  18.462  0.00  0.00    +0.000 A 
ATOM      2  C   UNL     1       2.425   9.652  17.458  0.00  0.00    +0.000 A 
ATOM      3  C   UNL     1       2.852   8.327  17.491  0.00  0.00    +0.000 A 
ATOM      4  C   UNL     1       2.473   7.499  18.548  0.00  0.00    +0.000 A 
ATOM      5  C   UNL     1       1.687   8.016  19.587  0.00  0.00    +0.000 A 
ATOM      6  C   UNL     1       1.252   9.351  19.558  0.00  0.00    +0.000 A 
ENDROOT
BRANCH   4   7
ATOM      7  C   UNL     1       2.963   6.091  18.532  0.00  0.00    +0.000 C 
ATOM      8  N   UNL     1       2.261   5.160  19.117  0.00  0.00    +0.000 NA
ATOM      9  N   UNL     1       2.665   3.846  18.987  0.00  0.00    +0.000 N 
ATOM     10  C   UNL     1       3.532   3.402  17.979  0.00  0.00    +0.000 C 
ATOM     11  O   UNL     1       3.803   2.214  17.800  0.00  0.00    +0.000 OA
ATOM     12  C   UNL     1       4.051   4.493  17.054  0.00  0.00    +0.000 C 
ATOM     13  C   UNL     1       5.353   4.082  16.348  0.00  0.00    +0.000 C 
ATOM     14  C   UNL     1       6.570   4.213  17.224  0.00  0.00    +0.000 C 
ATOM     15  C   UNL     1       6.576   4.900  18.376  0.00  0.00    +0.000 C 
ATOM     16  C   UNL     1       5.387   5.651  18.890  0.00  0.00    +0.000 C 
ATOM     17  C   UNL     1       4.264   5.778  17.845  0.00  0.00    +0.000 C 
BRANCH   9  18
ATOM     18  C   UNL     1       2.175   2.886  19.992  0.00  0.00    +0.000 C 
ATOM     19  C   UNL     1       2.252   3.492  21.398  0.00  0.00    +0.000 C 
ATOM     20  C   UNL     1       0.758   2.385  19.714  0.00  0.00    +0.000 C 
ENDBRANCH   9  18
ENDBRANCH   4   7
BRANCH   1  22
ATOM     21  C   UNL     1       2.111  12.451  18.370  0.00  0.00    +0.000 C 
ATOM     22  O   UNL     1       1.100  11.445  18.424  0.00  0.00    +0.000 OA
ENDBRANCH   1  22
BRANCH   6  23
ATOM     23  C   UNL     1       0.472   9.840  20.667  0.00  0.00    +0.000 C 
ATOM     24  C   UNL     1      -0.128  10.261  21.619  0.00  0.00    +0.000 C 
BRANCH  24  25
ATOM     25  C   UNL     1      -0.824  10.793  22.777  0.00  0.00    +0.000 C 
ATOM     26  O   UNL     1      -0.823  10.169  23.827  0.00  0.00    +0.000 OA
ATOM     27  N   UNL     1      -1.447  11.994  22.578  0.00  0.00    +0.000 N 
ATOM     28  H   UNL     1      -1.415  12.401  21.654  0.00  0.00    +0.000 HD
BRANCH  27  29
ATOM     29  C   UNL     1      -2.166  12.688  23.625  0.00  0.00    +0.000 C 
BRANCH  29  30
ATOM     30  C   UNL     1      -3.616  12.334  23.508  0.00  0.00    +0.000 C 
ATOM     31  C   UNL     1      -4.469  12.403  24.752  0.00  0.00    +0.000 C 
ATOM     32  C   UNL     1      -4.742  13.337  23.609  0.00  0.00    +0.000 C 
ENDBRANCH  29  30
ENDBRANCH  27  29
ENDBRANCH  24  25
ENDBRANCH   6  23
TORSDOF 7
ENDMDL
MODEL 4
REMARK VINA RESULT:      -8.0      3.053     10.225
REMARK  Name = 
REMARK  10 active torsions:
REMARK  status: ('A' for Active; 'I' for Inactive)
REMARK    1  A    between atoms: C_1  and  O_2
REMARK    2  A    between atoms: O_2  and  C_3
REMARK    3  A    between atoms: C_6  and  C_7
REMARK    4  A    between atoms: N_9  and  C_10
REMARK    5  A    between atoms: C_10  and  C_11
REMARK    6  A    between atoms: C_10  and  C_12
REMARK    7  A    between atoms: C_22  and  C_23
REMARK    8  A    between atoms: C_24  and  C_25
REMARK    9  A    between atoms: N_27  and  C_28
REMARK   10  A    between atoms: C_28  and  C_29
REMARK                            x       y       z     vdW  Elec       q    Type
REMARK                         _______ _______ _______ _____ _____    ______ ____
ROOT
ATOM      1  C   UNL     1       2.758   6.279  19.599  0.00  0.00    +0.000 A 
ATOM      2  C   UNL     1       1.850   6.794  20.534  0.00  0.00    +0.000 A 
ATOM      3  C   UNL     1       1.238   8.026  20.326  0.00  0.00    +0.000 A 
ATOM      4  C   UNL     1       1.550   8.777  19.192  0.00  0.00    +0.000 A 
ATOM      5  C   UNL     1       2.504   8.297  18.284  0.00  0.00    +0.000 A 
ATOM      6  C   UNL     1       3.124   7.053  18.487  0.00  0.00    +0.000 A 
ENDROOT
BRANCH   4   7
ATOM      7  C   UNL     1       0.867  10.091  19.023  0.00  0.00    +0.000 C 
ATOM      8  N   UNL     1      -0.358  10.125  18.580  0.00  0.00    +0.000 NA
ATOM      9  N   UNL     1      -1.018  11.339  18.548  0.00  0.00    +0.000 N 
ATOM     10  C   UNL     1      -0.617  12.453  19.296  0.00  0.00    +0.000 C 
ATOM     11  O   UNL     1      -1.269  13.498  19.349  0.00  0.00    +0.000 OA
ATOM     12  C   UNL     1       0.645  12.252  20.121  0.00  0.00    +0.000 C 
ATOM     13  C   UNL     1       1.325  13.584  20.475  0.00  0.00    +0.000 C 
ATOM     14  C   UNL     1       2.129  14.160  19.340  0.00  0.00    +0.000 C 
ATOM     15  C   UNL     1       2.478  13.455  18.255  0.00  0.00    +0.000 C 
ATOM     16  C   UNL     1       2.146  12.005  18.076  0.00  0.00    +0.000 C 
ATOM     17  C   UNL     1       1.615  11.352  19.364  0.00  0.00    +0.000 C 
BRANCH   9  18
ATOM     18  C   UNL     1      -2.177  11.454  17.645  0.00  0.00    +0.000 C 
ATOM     19  C   UNL     1      -2.195  10.296  16.641  0.00  0.00    +0.000 C 
ATOM     20  C   UNL     1      -3.514  11.532  18.380  0.00  0.00    +0.000 C 
ENDBRANCH   9  18
ENDBRANCH   4   7
BRANCH   1  22
ATOM     21  C   UNL     1       2.526   4.105  20.466  0.00  0.00    +0.000 C 
ATOM     22  O   UNL     1       3.332   5.036  19.746  0.00  0.00    +0.000 OA
ENDBRANCH   1  22
BRANCH   6  23
ATOM     23  C   UNL     1       4.118   6.621  17.538  0.00  0.00    +0.000 C 
ATOM     24  C   UNL     1       4.988   6.272  16.788  0.00  0.00    +0.000 C 
BRANCH  24  25
ATOM     25  C   UNL     1       6.062   5.841  15.910  0.00  0.00    +0.000 C 
ATOM     26  O   UNL     1       7.220   6.120  16.181  0.00  0.00    +0.000 OA
ATOM     27  N   UNL     1       5.663   5.134  14.809  0.00  0.00    +0.000 N 
ATOM     28  H   UNL     1       4.672   4.997  14.663  0.00  0.00    +0.000 HD
BRANCH  27  29
ATOM     29  C   UNL     1       6.594   4.602  13.838  0.00  0.00    +0.000 C 
BRANCH  29  30
ATOM     30  C   UNL     1       5.976   3.386  13.218  0.00  0.00    +0.000 C 
ATOM     31  C   UNL     1       4.934   3.586  12.144  0.00  0.00    +0.000 C 
ATOM     32  C   UNL     1       6.241   2.933  11.801  0.00  0.00    +0.000 C 
ENDBRANCH  29  30
ENDBRANCH  27  29
ENDBRANCH  24  25
ENDBRANCH   6  23
TORSDOF 7
ENDMDL
MODEL 5
REMARK VINA RESULT:      -7.7      2.773     10.004
REMARK  Name = 
REMARK  10 active torsions:
REMARK  status: ('A' for Active; 'I' for Inactive)
REMARK    1  A    between atoms: C_1  and  O_2
REMARK    2  A    between atoms: O_2  and  C_3
REMARK    3  A    between atoms: C_6  and  C_7
REMARK    4  A    between atoms: N_9  and  C_10
REMARK    5  A    between atoms: C_10  and  C_11
REMARK    6  A    between atoms: C_10  and  C_12
REMARK    7  A    between atoms: C_22  and  C_23
REMARK    8  A    between atoms: C_24  and  C_25
REMARK    9  A    between atoms: N_27  and  C_28
REMARK   10  A    between atoms: C_28  and  C_29
REMARK                            x       y       z     vdW  Elec       q    Type
REMARK                         _______ _______ _______ _____ _____    ______ ____
ROOT
ATOM      1  C   UNL     1       2.317   6.469  19.800  0.00  0.00    +0.000 A 
ATOM      2  C   UNL     1       1.482   7.049  20.763  0.00  0.00    +0.000 A 
ATOM      3  C   UNL     1       1.024   8.355  20.612  0.00  0.00    +0.000 A 
ATOM      4  C   UNL     1       1.423   9.111  19.509  0.00  0.00    +0.000 A 
ATOM      5  C   UNL     1       2.309   8.558  18.574  0.00  0.00    +0.000 A 
ATOM      6  C   UNL     1       2.772   7.240  18.719  0.00  0.00    +0.000 A 
ENDROOT
BRANCH   4   7
ATOM      7  C   UNL     1       0.905  10.504  19.402  0.00  0.00    +0.000 C 
ATOM      8  N   UNL     1       1.696  11.454  18.988  0.00  0.00    +0.000 NA
ATOM      9  N   UNL     1       1.168  12.712  18.777  0.00  0.00    +0.000 N 
ATOM     10  C   UNL     1      -0.202  12.954  18.607  0.00  0.00    +0.000 C 
ATOM     11  O   UNL     1      -0.658  14.059  18.310  0.00  0.00    +0.000 OA
ATOM     12  C   UNL     1      -1.090  11.724  18.725  0.00  0.00    +0.000 C 
ATOM     13  C   UNL     1      -2.543  12.089  19.064  0.00  0.00    +0.000 C 
ATOM     14  C   UNL     1      -2.751  12.410  20.520  0.00  0.00    +0.000 C 
ATOM     15  C   UNL     1      -1.858  12.111  21.473  0.00  0.00    +0.000 C 
ATOM     16  C   UNL     1      -0.577  11.383  21.199  0.00  0.00    +0.000 C 
ATOM     17  C   UNL     1      -0.524  10.783  19.783  0.00  0.00    +0.000 C 
BRANCH   9  18
ATOM     18  C   UNL     1       2.107  13.847  18.771  0.00  0.00    +0.000 C 
ATOM     19  C   UNL     1       2.412  14.302  20.203  0.00  0.00    +0.000 C 
ATOM     20  C   UNL     1       3.409  13.555  18.025  0.00  0.00    +0.000 C 
ENDBRANCH   9  18
ENDBRANCH   4   7
BRANCH   1  22
ATOM     21  C   UNL     1       2.116   4.421  20.940  0.00  0.00    +0.000 C 
ATOM     22  O   UNL     1       2.735   5.160  19.888  0.00  0.00    +0.000 OA
ENDBRANCH   1  22
BRANCH   6  23
ATOM     23  C   UNL     1       3.704   6.732  17.745  0.00  0.00    +0.000 C 
ATOM     24  C   UNL     1       4.516   6.291  16.977  0.00  0.00    +0.000 C 
BRANCH  24  25
ATOM     25  C   UNL     1       5.509   5.733  16.075  0.00  0.00    +0.000 C 
ATOM     26  O   UNL     1       6.512   6.373  15.803  0.00  0.00    +0.000 OA
ATOM     27  N   UNL     1       5.216   4.489  15.588  0.00  0.00    +0.000 N 
ATOM     28  H   UNL     1       4.334   4.069  15.850  0.00  0.00    +0.000 HD
BRANCH  27  29
ATOM     29  C   UNL     1       6.099   3.766  14.699  0.00  0.00    +0.000 C 
BRANCH  29  30
ATOM     30  C   UNL     1       5.731   4.116  13.291  0.00  0.00    +0.000 C 
ATOM     31  C   UNL     1       6.699   3.752  12.190  0.00  0.00    +0.000 C 
ATOM     32  C   UNL     1       5.349   3.099  12.240  0.00  0.00    +0.000 C 
ENDBRANCH  29  30
ENDBRANCH  27  29
ENDBRANCH  24  25
ENDBRANCH   6  23
TORSDOF 7
ENDMDL
MODEL 6
REMARK VINA RESULT:      -7.5      2.464      4.449
REMARK  Name = 
REMARK  10 active torsions:
REMARK  status: ('A' for Active; 'I' for Inactive)
REMARK    1  A    between atoms: C_1  and  O_2
REMARK    2  A    between atoms: O_2  and  C_3
REMARK    3  A    between atoms: C_6  and  C_7
REMARK    4  A    between atoms: N_9  and  C_10
REMARK    5  A    between atoms: C_10  and  C_11
REMARK    6  A    between atoms: C_10  and  C_12
REMARK    7  A    between atoms: C_22  and  C_23
REMARK    8  A    between atoms: C_24  and  C_25
REMARK    9  A    between atoms: N_27  and  C_28
REMARK   10  A    between atoms: C_28  and  C_29
REMARK                            x       y       z     vdW  Elec       q    Type
REMARK                         _______ _______ _______ _____ _____    ______ ____
ROOT
ATOM      1  C   UNL     1       0.439   8.954  21.064  0.00  0.00    +0.000 A 
ATOM      2  C   UNL     1       0.618   7.619  21.447  0.00  0.00    +0.000 A 
ATOM      3  C   UNL     1       1.481   6.786  20.739  0.00  0.00    +0.000 A 
ATOM      4  C   UNL     1       2.152   7.271  19.617  0.00  0.00    +0.000 A 
ATOM      5  C   UNL     1       1.930   8.587  19.191  0.00  0.00    +0.000 A 
ATOM      6  C   UNL     1       1.063   9.433  19.902  0.00  0.00    +0.000 A 
ENDROOT
BRANCH   4   7
ATOM      7  C   UNL     1       3.060   6.333  18.896  0.00  0.00    +0.000 C 
ATOM      8  N   UNL     1       4.029   6.810  18.167  0.00  0.00    +0.000 NA
ATOM      9  N   UNL     1       4.934   5.929  17.608  0.00  0.00    +0.000 N 
ATOM     10  C   UNL     1       5.115   4.617  18.065  0.00  0.00    +0.000 C 
ATOM     11  O   UNL     1       5.996   3.870  17.636  0.00  0.00    +0.000 OA
ATOM     12  C   UNL     1       4.195   4.202  19.204  0.00  0.00    +0.000 C 
ATOM     13  C   UNL     1       4.049   2.676  19.304  0.00  0.00    +0.000 C 
ATOM     14  C   UNL     1       3.092   2.104  18.292  0.00  0.00    +0.000 C 
ATOM     15  C   UNL     1       2.228   2.853  17.592  0.00  0.00    +0.000 C 
ATOM     16  C   UNL     1       2.088   4.333  17.777  0.00  0.00    +0.000 C 
ATOM     17  C   UNL     1       2.828   4.851  19.022  0.00  0.00    +0.000 C 
BRANCH   9  18
ATOM     18  C   UNL     1       5.711   6.402  16.449  0.00  0.00    +0.000 C 
ATOM     19  C   UNL     1       7.184   6.589  16.828  0.00  0.00    +0.000 C 
ATOM     20  C   UNL     1       5.595   5.492  15.227  0.00  0.00    +0.000 C 
ENDBRANCH   9  18
ENDBRANCH   4   7
BRANCH   1  22
ATOM     21  C   UNL     1      -0.247   9.674  23.196  0.00  0.00    +0.000 C 
ATOM     22  O   UNL     1      -0.357   9.819  21.780  0.00  0.00    +0.000 OA
ENDBRANCH   1  22
BRANCH   6  23
ATOM     23  C   UNL     1       0.849  10.768  19.403  0.00  0.00    +0.000 C 
ATOM     24  C   UNL     1       0.631  11.889  19.031  0.00  0.00    +0.000 C 
BRANCH  24  25
ATOM     25  C   UNL     1       0.356  13.253  18.616  0.00  0.00    +0.000 C 
ATOM     26  O   UNL     1      -0.650  13.502  17.970  0.00  0.00    +0.000 OA
ATOM     27  N   UNL     1       1.291  14.175  18.999  0.00  0.00    +0.000 N 
ATOM     28  H   UNL     1       2.107  13.849  19.498  0.00  0.00    +0.000 HD
BRANCH  27  29
ATOM     29  C   UNL     1       1.172  15.586  18.699  0.00  0.00    +0.000 C 
BRANCH  29  30
ATOM     30  C   UNL     1       2.550  16.140  18.510  0.00  0.00    +0.000 C 
ATOM     31  C   UNL     1       3.480  15.427  17.557  0.00  0.00    +0.000 C 
ATOM     32  C   UNL     1       3.020  16.820  17.245  0.00  0.00    +0.000 C 
ENDBRANCH  29  30
ENDBRANCH  27  29
ENDBRANCH  24  25
ENDBRANCH   6  23
TORSDOF 7
ENDMDL
MODEL 7
REMARK VINA RESULT:      -7.4      3.872     10.058
REMARK  Name = 
REMARK  10 active torsions:
REMARK  status: ('A' for Active; 'I' for Inactive)
REMARK    1  A    between atoms: C_1  and  O_2
REMARK    2  A    between atoms: O_2  and  C_3
REMARK    3  A    between atoms: C_6  and  C_7
REMARK    4  A    between atoms: N_9  and  C_10
REMARK    5  A    between atoms: C_10  and  C_11
REMARK    6  A    between atoms: C_10  and  C_12
REMARK    7  A    between atoms: C_22  and  C_23
REMARK    8  A    between atoms: C_24  and  C_25
REMARK    9  A    between atoms: N_27  and  C_28
REMARK   10  A    between atoms: C_28  and  C_29
REMARK                            x       y       z     vdW  Elec       q    Type
REMARK                         _______ _______ _______ _____ _____    ______ ____
ROOT
ATOM      1  C   UNL     1      -0.665  11.034  18.360  0.00  0.00    +0.000 A 
ATOM      2  C   UNL     1      -1.261  12.301  18.346  0.00  0.00    +0.000 A 
ATOM      3  C   UNL     1      -0.490  13.451  18.494  0.00  0.00    +0.000 A 
ATOM      4  C   UNL     1       0.887  13.346  18.691  0.00  0.00    +0.000 A 
ATOM      5  C   UNL     1       1.482  12.079  18.768  0.00  0.00    +0.000 A 
ATOM      6  C   UNL     1       0.710  10.915  18.617  0.00  0.00    +0.000 A 
ENDROOT
BRANCH   4   7
ATOM      7  C   UNL     1       1.661  14.610  18.848  0.00  0.00    +0.000 C 
ATOM      8  N   UNL     1       1.048  15.756  18.745  0.00  0.00    +0.000 NA
ATOM      9  N   UNL     1       1.753  16.912  19.016  0.00  0.00    +0.000 N 
ATOM     10  C   UNL     1       2.947  16.932  19.750  0.00  0.00    +0.000 C 
ATOM     11  O   UNL     1       3.515  17.974  20.082  0.00  0.00    +0.000 OA
ATOM     12  C   UNL     1       3.452  15.566  20.191  0.00  0.00    +0.000 C 
ATOM     13  C   UNL     1       4.957  15.576  20.497  0.00  0.00    +0.000 C 
ATOM     14  C   UNL     1       5.814  15.520  19.261  0.00  0.00    +0.000 C 
ATOM     15  C   UNL     1       5.341  15.183  18.052  0.00  0.00    +0.000 C 
ATOM     16  C   UNL     1       3.918  14.781  17.812  0.00  0.00    +0.000 C 
ATOM     17  C   UNL     1       3.140  14.532  19.116  0.00  0.00    +0.000 C 
BRANCH   9  18
ATOM     18  C   UNL     1       1.225  18.171  18.463  0.00  0.00    +0.000 C 
ATOM     19  C   UNL     1       1.273  18.149  16.931  0.00  0.00    +0.000 C 
ATOM     20  C   UNL     1      -0.191  18.496  18.938  0.00  0.00    +0.000 C 
ENDBRANCH   9  18
ENDBRANCH   4   7
BRANCH   1  22
ATOM     21  C   UNL     1      -2.336   9.974  17.088  0.00  0.00    +0.000 C 
ATOM     22  O   UNL     1      -1.390   9.882  18.153  0.00  0.00    +0.000 OA
ENDBRANCH   1  22
BRANCH   6  23
ATOM     23  C   UNL     1       1.367   9.639  18.735  0.00  0.00    +0.000 C 
ATOM     24  C   UNL     1       1.890   8.558  18.781  0.00  0.00    +0.000 C 
BRANCH  24  25
ATOM     25  C   UNL     1       2.521   7.250  18.801  0.00  0.00    +0.000 C 
ATOM     26  O   UNL     1       3.137   6.856  17.823  0.00  0.00    +0.000 OA
ATOM     27  N   UNL     1       2.358   6.545  19.962  0.00  0.00    +0.000 N 
ATOM     28  H   UNL     1       1.793   6.954  20.693  0.00  0.00    +0.000 HD
BRANCH  27  29
ATOM     29  C   UNL     1       2.937   5.236  20.174  0.00  0.00    +0.000 C 
BRANCH  29  30
ATOM     30  C   UNL     1       2.010   4.453  21.050  0.00  0.00    +0.000 C 
ATOM     31  C   UNL     1       1.115   3.424  20.401  0.00  0.00    +0.000 C 
ATOM     32  C   UNL     1       2.181   2.983  21.360  0.00  0.00    +0.000 C 
ENDBRANCH  29  30
ENDBRANCH  27  29
ENDBRANCH  24  25
ENDBRANCH   6  23
TORSDOF 7
ENDMDL
MODEL 8
REMARK VINA RESULT:      -7.4      2.915      3.678
REMARK  Name = 
REMARK  10 active torsions:
REMARK  status: ('A' for Active; 'I' for Inactive)
REMARK    1  A    between atoms: C_1  and  O_2
REMARK    2  A    between atoms: O_2  and  C_3
REMARK    3  A    between atoms: C_6  and  C_7
REMARK    4  A    between atoms: N_9  and  C_10
REMARK    5  A    between atoms: C_10  and  C_11
REMARK    6  A    between atoms: C_10  and  C_12
REMARK    7  A    between atoms: C_22  and  C_23
REMARK    8  A    between atoms: C_24  and  C_25
REMARK    9  A    between atoms: N_27  and  C_28
REMARK   10  A    between atoms: C_28  and  C_29
REMARK                            x       y       z     vdW  Elec       q    Type
REMARK                         _______ _______ _______ _____ _____    ______ ____
ROOT
ATOM      1  C   UNL     1       0.312   9.876  20.903  0.00  0.00    +0.000 A 
ATOM      2  C   UNL     1       1.198   9.165  21.724  0.00  0.00    +0.000 A 
ATOM      3  C   UNL     1       1.965   8.124  21.207  0.00  0.00    +0.000 A 
ATOM      4  C   UNL     1       1.832   7.759  19.867  0.00  0.00    +0.000 A 
ATOM      5  C   UNL     1       0.903   8.425  19.056  0.00  0.00    +0.000 A 
ATOM      6  C   UNL     1       0.128   9.478  19.570  0.00  0.00    +0.000 A 
ENDROOT
BRANCH   4   7
ATOM      7  C   UNL     1       2.675   6.635  19.371  0.00  0.00    +0.000 C 
ATOM      8  N   UNL     1       3.778   6.895  18.725  0.00  0.00    +0.000 NA
ATOM      9  N   UNL     1       4.608   5.847  18.382  0.00  0.00    +0.000 N 
ATOM     10  C   UNL     1       4.553   4.587  18.994  0.00  0.00    +0.000 C 
ATOM     11  O   UNL     1       5.364   3.690  18.762  0.00  0.00    +0.000 OA
ATOM     12  C   UNL     1       3.462   4.433  20.044  0.00  0.00    +0.000 C 
ATOM     13  C   UNL     1       3.095   2.960  20.285  0.00  0.00    +0.000 C 
ATOM     14  C   UNL     1       2.189   2.394  19.225  0.00  0.00    +0.000 C 
ATOM     15  C   UNL     1       1.520   3.154  18.346  0.00  0.00    +0.000 C 
ATOM     16  C   UNL     1       1.567   4.651  18.354  0.00  0.00    +0.000 C 
ATOM     17  C   UNL     1       2.228   5.220  19.622  0.00  0.00    +0.000 C 
BRANCH   9  18
ATOM     18  C   UNL     1       5.568   6.075  17.288  0.00  0.00    +0.000 C 
ATOM     19  C   UNL     1       4.880   6.759  16.101  0.00  0.00    +0.000 C 
ATOM     20  C   UNL     1       6.797   6.878  17.715  0.00  0.00    +0.000 C 
ENDBRANCH   9  18
ENDBRANCH   4   7
BRANCH   1  22
ATOM     21  C   UNL     1      -0.740  10.874  22.755  0.00  0.00    +0.000 C 
ATOM     22  O   UNL     1      -0.412  10.950  21.368  0.00  0.00    +0.000 OA
ENDBRANCH   1  22
BRANCH   6  23
ATOM     23  C   UNL     1      -0.832  10.108  18.700  0.00  0.00    +0.000 C 
ATOM     24  C   UNL     1      -1.667  10.585  17.981  0.00  0.00    +0.000 C 
BRANCH  24  25
ATOM     25  C   UNL     1      -2.702  11.141  17.127  0.00  0.00    +0.000 C 
ATOM     26  O   UNL     1      -2.544  11.168  15.916  0.00  0.00    +0.000 OA
ATOM     27  N   UNL     1      -3.807  11.608  17.785  0.00  0.00    +0.000 N 
ATOM     28  H   UNL     1      -3.812  11.572  18.795  0.00  0.00    +0.000 HD
BRANCH  27  29
ATOM     29  C   UNL     1      -4.950  12.171  17.098  0.00  0.00    +0.000 C 
BRANCH  29  30
ATOM     30  C   UNL     1      -6.181  11.487  17.606  0.00  0.00    +0.000 C 
ATOM     31  C   UNL     1      -6.204  11.036  19.047  0.00  0.00    +0.000 C 
ATOM     32  C   UNL     1      -7.149  12.108  18.588  0.00  0.00    +0.000 C 
ENDBRANCH  29  30
ENDBRANCH  27  29
ENDBRANCH  24  25
ENDBRANCH   6  23
TORSDOF 7
ENDMDL
MODEL 9
REMARK VINA RESULT:      -7.3      3.183      4.010
REMARK  Name = 
REMARK  10 active torsions:
REMARK  status: ('A' for Active; 'I' for Inactive)
REMARK    1  A    between atoms: C_1  and  O_2
REMARK    2  A    between atoms: O_2  and  C_3
REMARK    3  A    between atoms: C_6  and  C_7
REMARK    4  A    between atoms: N_9  and  C_10
REMARK    5  A    between atoms: C_10  and  C_11
REMARK    6  A    between atoms: C_10  and  C_12
REMARK    7  A    between atoms: C_22  and  C_23
REMARK    8  A    between atoms: C_24  and  C_25
REMARK    9  A    between atoms: N_27  and  C_28
REMARK   10  A    between atoms: C_28  and  C_29
REMARK                            x       y       z     vdW  Elec       q    Type
REMARK                         _______ _______ _______ _____ _____    ______ ____
ROOT
ATOM      1  C   UNL     1       0.107   9.962  20.503  0.00  0.00    +0.000 A 
ATOM      2  C   UNL     1       1.028   9.280  21.308  0.00  0.00    +0.000 A 
ATOM      3  C   UNL     1       1.875   8.319  20.762  0.00  0.00    +0.000 A 
ATOM      4  C   UNL     1       1.789   8.004  19.405  0.00  0.00    +0.000 A 
ATOM      5  C   UNL     1       0.827   8.639  18.606  0.00  0.00    +0.000 A 
ATOM      6  C   UNL     1      -0.028   9.611  19.152  0.00  0.00    +0.000 A 
ENDROOT
BRANCH   4   7
ATOM      7  C   UNL     1       2.717   6.965  18.876  0.00  0.00    +0.000 C 
ATOM      8  N   UNL     1       3.760   7.328  18.185  0.00  0.00    +0.000 NA
ATOM      9  N   UNL     1       4.675   6.364  17.809  0.00  0.00    +0.000 N 
ATOM     10  C   UNL     1       4.769   5.109  18.426  0.00  0.00    +0.000 C 
ATOM     11  O   UNL     1       5.655   4.294  18.163  0.00  0.00    +0.000 OA
ATOM     12  C   UNL     1       3.744   4.855  19.521  0.00  0.00    +0.000 C 
ATOM     13  C   UNL     1       3.533   3.355  19.781  0.00  0.00    +0.000 C 
ATOM     14  C   UNL     1       2.643   2.696  18.761  0.00  0.00    +0.000 C 
ATOM     15  C   UNL     1       1.868   3.381  17.909  0.00  0.00    +0.000 C 
ATOM     16  C   UNL     1       1.767   4.876  17.912  0.00  0.00    +0.000 C 
ATOM     17  C   UNL     1       2.421   5.515  19.150  0.00  0.00    +0.000 C 
BRANCH   9  18
ATOM     18  C   UNL     1       5.562   6.678  16.675  0.00  0.00    +0.000 C 
ATOM     19  C   UNL     1       7.019   6.772  17.142  0.00  0.00    +0.000 C 
ATOM     20  C   UNL     1       5.445   5.685  15.519  0.00  0.00    +0.000 C 
ENDBRANCH   9  18
ENDBRANCH   4   7
BRANCH   1  22
ATOM     21  C   UNL     1      -0.803  10.970  22.424  0.00  0.00    +0.000 C 
ATOM     22  O   UNL     1      -0.699  10.961  21.001  0.00  0.00    +0.000 OA
ENDBRANCH   1  22
BRANCH   6  23
ATOM     23  C   UNL     1      -1.018  10.210  18.292  0.00  0.00    +0.000 C 
ATOM     24  C   UNL     1      -1.876  10.660  17.582  0.00  0.00    +0.000 C 
BRANCH  24  25
ATOM     25  C   UNL     1      -2.938  11.183  16.742  0.00  0.00    +0.000 C 
ATOM     26  O   UNL     1      -2.805  11.193  15.528  0.00  0.00    +0.000 OA
ATOM     27  N   UNL     1      -4.039  11.639  17.414  0.00  0.00    +0.000 N 
ATOM     28  H   UNL     1      -4.022  11.619  18.425  0.00  0.00    +0.000 HD
BRANCH  27  29
ATOM     29  C   UNL     1      -5.205  12.170  16.743  0.00  0.00    +0.000 C 
BRANCH  29  30
ATOM     30  C   UNL     1      -6.042  12.885  17.758  0.00  0.00    +0.000 C 
ATOM     31  C   UNL     1      -7.205  13.713  17.266  0.00  0.00    +0.000 C 
ATOM     32  C   UNL     1      -7.460  12.497  18.107  0.00  0.00    +0.000 C 
ENDBRANCH  29  30
ENDBRANCH  27  29
ENDBRANCH  24  25
ENDBRANCH   6  23
TORSDOF 7
ENDMDL
