MODEL 1
REMARK VINA RESULT:      -7.3      0.000      0.000
REMARK  Name = 
REMARK  8 active torsions:
REMARK  status: ('A' for Active; 'I' for Inactive)
REMARK    1  A    between atoms: C_1  and  C_2
REMARK    2  A    between atoms: C_7  and  C_8
REMARK    3  A    between atoms: C_8  and  N_9
REMARK    4  A    between atoms: N_9  and  C_10
REMARK    5  A    between atoms: C_10  and  C_11
REMARK    6  A    between atoms: C_10  and  C_12
REMARK    7  A    between atoms: C_10  and  C_13
REMARK    8  A    between atoms: C_14  and  O_15
REMARK                            x       y       z     vdW  Elec       q    Type
REMARK                         _______ _______ _______ _____ _____    ______ ____
ROOT
ATOM      1  C   UNL     1       2.323   3.575  21.327  0.00  0.00    +0.000 C 
ATOM      2  C   UNL     1       2.856   3.740  19.933  0.00  0.00    +0.000 A 
ATOM      3  C   UNL     1       1.995   3.752  18.839  0.00  0.00    +0.000 A 
ATOM      4  C   UNL     1       2.508   3.896  17.552  0.00  0.00    +0.000 A 
ATOM      5  C   UNL     1       3.893   4.035  17.360  0.00  0.00    +0.000 A 
ATOM      6  C   UNL     1       4.434   4.167  16.076  0.00  0.00    +0.000 A 
ATOM      7  C   UNL     1       5.812   4.316  15.900  0.00  0.00    +0.000 A 
ATOM      8  C   UNL     1       6.592   4.323  17.050  0.00  0.00    +0.000 A 
ATOM      9  N   UNL     1       6.106   4.197  18.299  0.00  0.00    +0.000 NA
ATOM     10  C   UNL     1       4.777   4.048  18.453  0.00  0.00    +0.000 A 
ATOM     11  C   UNL     1       4.235   3.897  19.723  0.00  0.00    +0.000 A 
ENDROOT
BRANCH   8  12
ATOM     12  O   UNL     1       7.949   4.472  16.985  0.00  0.00    +0.000 OA
ATOM     13  H   UNL     1       8.245   4.742  17.872  0.00  0.00    +0.000 HD
ENDBRANCH   8  12
BRANCH   7  14
ATOM     14  C   UNL     1       6.370   4.520  14.519  0.00  0.00    +0.000 C 
BRANCH  14  15
ATOM     15  N   UNL     1       6.357   3.281  13.731  0.00  0.00    +0.000 NA
ATOM     16  H   UNL     1       5.517   2.753  13.982  0.00  0.00    +0.000 HD
BRANCH  15  17
ATOM     17  C   UNL     1       6.351   3.491  12.262  0.00  0.00    +0.000 C 
ATOM     18  C   UNL     1       6.835   2.228  11.531  0.00  0.00    +0.000 C 
ATOM     19  C   UNL     1       4.894   3.764  11.835  0.00  0.00    +0.000 C 
ATOM     20  C   UNL     1       7.192   4.709  11.835  0.00  0.00    +0.000 C 
ENDBRANCH  15  17
ENDBRANCH  14  15
ENDBRANCH   7  14
TORSDOF 4
ENDMDL
MODEL 2
REMARK VINA RESULT:      -7.0      1.915      6.433
REMARK  Name = 
REMARK  8 active torsions:
REMARK  status: ('A' for Active; 'I' for Inactive)
REMARK    1  A    between atoms: C_1  and  C_2
REMARK    2  A    between atoms: C_7  and  C_8
REMARK    3  A    between atoms: C_8  and  N_9
REMARK    4  A    between atoms: N_9  and  C_10
REMARK    5  A    between atoms: C_10  and  C_11
REMARK    6  A    between atoms: C_10  and  C_12
REMARK    7  A    between atoms: C_10  and  C_13
REMARK    8  A    between atoms: C_14  and  O_15
REMARK                            x       y       z     vdW  Elec       q    Type
REMARK                         _______ _______ _______ _____ _____    ______ ____
ROOT
ATOM      1  C   UNL     1       7.831   5.054  12.852  0.00  0.00    +0.000 C 
ATOM      2  C   UNL     1       6.958   4.780  14.042  0.00  0.00    +0.000 A 
ATOM      3  C   UNL     1       5.703   4.198  13.885  0.00  0.00    +0.000 A 
ATOM      4  C   UNL     1       4.903   3.961  15.000  0.00  0.00    +0.000 A 
ATOM      5  C   UNL     1       5.365   4.303  16.282  0.00  0.00    +0.000 A 
ATOM      6  C   UNL     1       4.574   4.088  17.416  0.00  0.00    +0.000 A 
ATOM      7  C   UNL     1       5.051   4.423  18.686  0.00  0.00    +0.000 A 
ATOM      8  C   UNL     1       6.325   4.971  18.751  0.00  0.00    +0.000 A 
ATOM      9  N   UNL     1       7.113   5.193  17.682  0.00  0.00    +0.000 NA
ATOM     10  C   UNL     1       6.638   4.871  16.464  0.00  0.00    +0.000 A 
ATOM     11  C   UNL     1       7.410   5.100  15.332  0.00  0.00    +0.000 A 
ENDROOT
BRANCH   8  12
ATOM     12  O   UNL     1       6.885   5.323  19.947  0.00  0.00    +0.000 OA
ATOM     13  H   UNL     1       6.155   5.398  20.587  0.00  0.00    +0.000 HD
ENDBRANCH   8  12
BRANCH   7  14
ATOM     14  C   UNL     1       4.213   4.126  19.899  0.00  0.00    +0.000 C 
BRANCH  14  15
ATOM     15  N   UNL     1       3.273   3.024  19.664  0.00  0.00    +0.000 NA
ATOM     16  H   UNL     1       3.625   2.195  20.152  0.00  0.00    +0.000 HD
BRANCH  15  17
ATOM     17  C   UNL     1       1.891   3.287  20.136  0.00  0.00    +0.000 C 
ATOM     18  C   UNL     1       1.624   4.799  20.219  0.00  0.00    +0.000 C 
ATOM     19  C   UNL     1       0.920   2.685  19.099  0.00  0.00    +0.000 C 
ATOM     20  C   UNL     1       1.591   2.618  21.492  0.00  0.00    +0.000 C 
ENDBRANCH  15  17
ENDBRANCH  14  15
ENDBRANCH   7  14
TORSDOF 4
ENDMDL
MODEL 3
REMARK VINA RESULT:      -7.0      1.871      6.367
REMARK  Name = 
REMARK  8 active torsions:
REMARK  status: ('A' for Active; 'I' for Inactive)
REMARK    1  A    between atoms: C_1  and  C_2
REMARK    2  A    between atoms: C_7  and  C_8
REMARK    3  A    between atoms: C_8  and  N_9
REMARK    4  A    between atoms: N_9  and  C_10
REMARK    5  A    between atoms: C_10  and  C_11
REMARK    6  A    between atoms: C_10  and  C_12
REMARK    7  A    between atoms: C_10  and  C_13
REMARK    8  A    between atoms: C_14  and  O_15
REMARK                            x       y       z     vdW  Elec       q    Type
REMARK                         _______ _______ _______ _____ _____    ______ ____
ROOT
ATOM      1  C   UNL     1       7.878   5.258  12.770  0.00  0.00    +0.000 C 
ATOM      2  C   UNL     1       7.033   4.849  13.941  0.00  0.00    +0.000 A 
ATOM      3  C   UNL     1       5.868   4.109  13.755  0.00  0.00    +0.000 A 
ATOM      4  C   UNL     1       5.091   3.747  14.853  0.00  0.00    +0.000 A 
ATOM      5  C   UNL     1       5.486   4.123  16.147  0.00  0.00    +0.000 A 
ATOM      6  C   UNL     1       4.715   3.784  17.265  0.00  0.00    +0.000 A 
ATOM      7  C   UNL     1       5.126   4.156  18.548  0.00  0.00    +0.000 A 
ATOM      8  C   UNL     1       6.315   4.866  18.642  0.00  0.00    +0.000 A 
ATOM      9  N   UNL     1       7.081   5.211  17.590  0.00  0.00    +0.000 NA
ATOM     10  C   UNL     1       6.670   4.852  16.359  0.00  0.00    +0.000 A 
ATOM     11  C   UNL     1       7.421   5.202  15.244  0.00  0.00    +0.000 A 
ENDROOT
BRANCH   8  12
ATOM     12  O   UNL     1       6.807   5.267  19.853  0.00  0.00    +0.000 OA
ATOM     13  H   UNL     1       7.703   4.895  19.929  0.00  0.00    +0.000 HD
ENDBRANCH   8  12
BRANCH   7  14
ATOM     14  C   UNL     1       4.318   3.729  19.742  0.00  0.00    +0.000 C 
BRANCH  14  15
ATOM     15  N   UNL     1       3.222   2.826  19.372  0.00  0.00    +0.000 NA
ATOM     16  H   UNL     1       3.445   1.892  19.727  0.00  0.00    +0.000 HD
BRANCH  15  17
ATOM     17  C   UNL     1       1.896   3.221  19.909  0.00  0.00    +0.000 C 
ATOM     18  C   UNL     1       0.765   2.601  19.073  0.00  0.00    +0.000 C 
ATOM     19  C   UNL     1       1.790   2.667  21.345  0.00  0.00    +0.000 C 
ATOM     20  C   UNL     1       1.723   4.750  19.990  0.00  0.00    +0.000 C 
ENDBRANCH  15  17
ENDBRANCH  14  15
ENDBRANCH   7  14
TORSDOF 4
ENDMDL
MODEL 4
REMARK VINA RESULT:      -6.9      1.038      1.451
REMARK  Name = 
REMARK  8 active torsions:
REMARK  status: ('A' for Active; 'I' for Inactive)
REMARK    1  A    between atoms: C_1  and  C_2
REMARK    2  A    between atoms: C_7  and  C_8
REMARK    3  A    between atoms: C_8  and  N_9
REMARK    4  A    between atoms: N_9  and  C_10
REMARK    5  A    between atoms: C_10  and  C_11
REMARK    6  A    between atoms: C_10  and  C_12
REMARK    7  A    between atoms: C_10  and  C_13
REMARK    8  A    between atoms: C_14  and  O_15
REMARK                            x       y       z     vdW  Elec       q    Type
REMARK                         _______ _______ _______ _____ _____    ______ ____
ROOT
ATOM      1  C   UNL     1       1.715   3.985  20.802  0.00  0.00    +0.000 C 
ATOM      2  C   UNL     1       2.504   3.879  19.529  0.00  0.00    +0.000 A 
ATOM      3  C   UNL     1       2.279   2.834  18.637  0.00  0.00    +0.000 A 
ATOM      4  C   UNL     1       3.028   2.747  17.466  0.00  0.00    +0.000 A 
ATOM      5  C   UNL     1       4.005   3.716  17.183  0.00  0.00    +0.000 A 
ATOM      6  C   UNL     1       4.781   3.641  16.020  0.00  0.00    +0.000 A 
ATOM      7  C   UNL     1       5.742   4.618  15.747  0.00  0.00    +0.000 A 
ATOM      8  C   UNL     1       5.878   5.640  16.678  0.00  0.00    +0.000 A 
ATOM      9  N   UNL     1       5.151   5.742  17.807  0.00  0.00    +0.000 NA
ATOM     10  C   UNL     1       4.233   4.790  18.060  0.00  0.00    +0.000 A 
ATOM     11  C   UNL     1       3.474   4.848  19.222  0.00  0.00    +0.000 A 
ENDROOT
BRANCH   8  12
ATOM     12  O   UNL     1       6.784   6.648  16.497  0.00  0.00    +0.000 OA
ATOM     13  H   UNL     1       6.595   7.320  17.176  0.00  0.00    +0.000 HD
ENDBRANCH   8  12
BRANCH   7  14
ATOM     14  C   UNL     1       6.522   4.558  14.463  0.00  0.00    +0.000 C 
BRANCH  14  15
ATOM     15  N   UNL     1       6.334   3.281  13.763  0.00  0.00    +0.000 NA
ATOM     16  H   UNL     1       5.453   2.869  14.083  0.00  0.00    +0.000 HD
BRANCH  15  17
ATOM     17  C   UNL     1       6.281   3.395  12.285  0.00  0.00    +0.000 C 
ATOM     18  C   UNL     1       4.842   3.652  11.811  0.00  0.00    +0.000 C 
ATOM     19  C   UNL     1       7.143   4.609  11.879  0.00  0.00    +0.000 C 
ATOM     20  C   UNL     1       6.864   2.158  11.574  0.00  0.00    +0.000 C 
ENDBRANCH  15  17
ENDBRANCH  14  15
ENDBRANCH   7  14
TORSDOF 4
ENDMDL
MODEL 5
REMARK VINA RESULT:      -6.9      1.496      1.857
REMARK  Name = 
REMARK  8 active torsions:
REMARK  status: ('A' for Active; 'I' for Inactive)
REMARK    1  A    between atoms: C_1  and  C_2
REMARK    2  A    between atoms: C_7  and  C_8
REMARK    3  A    between atoms: C_8  and  N_9
REMARK    4  A    between atoms: N_9  and  C_10
REMARK    5  A    between atoms: C_10  and  C_11
REMARK    6  A    between atoms: C_10  and  C_12
REMARK    7  A    between atoms: C_10  and  C_13
REMARK    8  A    between atoms: C_14  and  O_15
REMARK                            x       y       z     vdW  Elec       q    Type
REMARK                         _______ _______ _______ _____ _____    ______ ____
ROOT
ATOM      1  C   UNL     1       1.904   6.485  20.401  0.00  0.00    +0.000 C 
ATOM      2  C   UNL     1       2.626   5.856  19.246  0.00  0.00    +0.000 A 
ATOM      3  C   UNL     1       2.079   4.768  18.571  0.00  0.00    +0.000 A 
ATOM      4  C   UNL     1       2.769   4.192  17.507  0.00  0.00    +0.000 A 
ATOM      5  C   UNL     1       4.013   4.712  17.112  0.00  0.00    +0.000 A 
ATOM      6  C   UNL     1       4.732   4.141  16.056  0.00  0.00    +0.000 A 
ATOM      7  C   UNL     1       5.963   4.676  15.666  0.00  0.00    +0.000 A 
ATOM      8  C   UNL     1       6.418   5.780  16.376  0.00  0.00    +0.000 A 
ATOM      9  N   UNL     1       5.754   6.353  17.398  0.00  0.00    +0.000 NA
ATOM     10  C   UNL     1       4.572   5.823  17.766  0.00  0.00    +0.000 A 
ATOM     11  C   UNL     1       3.863   6.373  18.826  0.00  0.00    +0.000 A 
ENDROOT
BRANCH   8  12
ATOM     12  O   UNL     1       7.605   6.381  16.066  0.00  0.00    +0.000 OA
ATOM     13  H   UNL     1       8.288   5.950  16.609  0.00  0.00    +0.000 HD
ENDBRANCH   8  12
BRANCH   7  14
ATOM     14  C   UNL     1       6.691   4.090  14.489  0.00  0.00    +0.000 C 
BRANCH  14  15
ATOM     15  N   UNL     1       5.884   3.086  13.785  0.00  0.00    +0.000 NA
ATOM     16  H   UNL     1       4.913   3.182  14.098  0.00  0.00    +0.000 HD
BRANCH  15  17
ATOM     17  C   UNL     1       5.907   3.211  12.306  0.00  0.00    +0.000 C 
ATOM     18  C   UNL     1       4.562   3.740  11.784  0.00  0.00    +0.000 C 
ATOM     19  C   UNL     1       7.000   4.236  11.941  0.00  0.00    +0.000 C 
ATOM     20  C   UNL     1       6.266   1.886  11.606  0.00  0.00    +0.000 C 
ENDBRANCH  15  17
ENDBRANCH  14  15
ENDBRANCH   7  14
TORSDOF 4
ENDMDL
MODEL 6
REMARK VINA RESULT:      -6.9      1.871      6.466
REMARK  Name = 
REMARK  8 active torsions:
REMARK  status: ('A' for Active; 'I' for Inactive)
REMARK    1  A    between atoms: C_1  and  C_2
REMARK    2  A    between atoms: C_7  and  C_8
REMARK    3  A    between atoms: C_8  and  N_9
REMARK    4  A    between atoms: N_9  and  C_10
REMARK    5  A    between atoms: C_10  and  C_11
REMARK    6  A    between atoms: C_10  and  C_12
REMARK    7  A    between atoms: C_10  and  C_13
REMARK    8  A    between atoms: C_14  and  O_15
REMARK                            x       y       z     vdW  Elec       q    Type
REMARK                         _______ _______ _______ _____ _____    ______ ____
ROOT
ATOM      1  C   UNL     1       7.913   5.328  12.694  0.00  0.00    +0.000 C 
ATOM      2  C   UNL     1       7.098   4.866  13.866  0.00  0.00    +0.000 A 
ATOM      3  C   UNL     1       5.975   4.063  13.681  0.00  0.00    +0.000 A 
ATOM      4  C   UNL     1       5.225   3.653  14.781  0.00  0.00    +0.000 A 
ATOM      5  C   UNL     1       5.604   4.045  16.075  0.00  0.00    +0.000 A 
ATOM      6  C   UNL     1       4.858   3.658  17.194  0.00  0.00    +0.000 A 
ATOM      7  C   UNL     1       5.254   4.046  18.478  0.00  0.00    +0.000 A 
ATOM      8  C   UNL     1       6.402   4.822  18.571  0.00  0.00    +0.000 A 
ATOM      9  N   UNL     1       7.143   5.214  17.516  0.00  0.00    +0.000 NA
ATOM     10  C   UNL     1       6.746   4.838  16.286  0.00  0.00    +0.000 A 
ATOM     11  C   UNL     1       7.471   5.235  15.169  0.00  0.00    +0.000 A 
ENDROOT
BRANCH   8  12
ATOM     12  O   UNL     1       6.876   5.245  19.781  0.00  0.00    +0.000 OA
ATOM     13  H   UNL     1       6.689   4.534  20.419  0.00  0.00    +0.000 HD
ENDBRANCH   8  12
BRANCH   7  14
ATOM     14  C   UNL     1       4.477   3.569  19.673  0.00  0.00    +0.000 C 
BRANCH  14  15
ATOM     15  N   UNL     1       3.143   4.178  19.743  0.00  0.00    +0.000 NA
ATOM     16  H   UNL     1       2.897   4.515  18.808  0.00  0.00    +0.000 HD
BRANCH  15  17
ATOM     17  C   UNL     1       2.073   3.257  20.200  0.00  0.00    +0.000 C 
ATOM     18  C   UNL     1       2.391   2.707  21.600  0.00  0.00    +0.000 C 
ATOM     19  C   UNL     1       0.765   4.069  20.290  0.00  0.00    +0.000 C 
ATOM     20  C   UNL     1       1.830   2.098  19.214  0.00  0.00    +0.000 C 
ENDBRANCH  15  17
ENDBRANCH  14  15
ENDBRANCH   7  14
TORSDOF 4
ENDMDL
MODEL 7
REMARK VINA RESULT:      -6.8      3.750      6.632
REMARK  Name = 
REMARK  8 active torsions:
REMARK  status: ('A' for Active; 'I' for Inactive)
REMARK    1  A    between atoms: C_1  and  C_2
REMARK    2  A    between atoms: C_7  and  C_8
REMARK    3  A    between atoms: C_8  and  N_9
REMARK    4  A    between atoms: N_9  and  C_10
REMARK    5  A    between atoms: C_10  and  C_11
REMARK    6  A    between atoms: C_10  and  C_12
REMARK    7  A    between atoms: C_10  and  C_13
REMARK    8  A    between atoms: C_14  and  O_15
REMARK                            x       y       z     vdW  Elec       q    Type
REMARK                         _______ _______ _______ _____ _____    ______ ____
ROOT
ATOM      1  C   UNL     1       8.179   8.753  17.419  0.00  0.00    +0.000 C 
ATOM      2  C   UNL     1       7.493   7.499  17.877  0.00  0.00    +0.000 A 
ATOM      3  C   UNL     1       8.079   6.678  18.837  0.00  0.00    +0.000 A 
ATOM      4  C   UNL     1       7.432   5.512  19.242  0.00  0.00    +0.000 A 
ATOM      5  C   UNL     1       6.188   5.170  18.686  0.00  0.00    +0.000 A 
ATOM      6  C   UNL     1       5.526   3.997  19.066  0.00  0.00    +0.000 A 
ATOM      7  C   UNL     1       4.283   3.675  18.514  0.00  0.00    +0.000 A 
ATOM      8  C   UNL     1       3.760   4.567  17.586  0.00  0.00    +0.000 A 
ATOM      9  N   UNL     1       4.370   5.703  17.196  0.00  0.00    +0.000 NA
ATOM     10  C   UNL     1       5.570   5.997  17.732  0.00  0.00    +0.000 A 
ATOM     11  C   UNL     1       6.241   7.150  17.345  0.00  0.00    +0.000 A 
ENDROOT
BRANCH   8  12
ATOM     12  O   UNL     1       2.548   4.346  16.996  0.00  0.00    +0.000 OA
ATOM     13  H   UNL     1       2.448   3.382  16.911  0.00  0.00    +0.000 HD
ENDBRANCH   8  12
BRANCH   7  14
ATOM     14  C   UNL     1       3.556   2.444  18.980  0.00  0.00    +0.000 C 
BRANCH  14  15
ATOM     15  N   UNL     1       3.183   2.528  20.397  0.00  0.00    +0.000 NA
ATOM     16  H   UNL     1       3.885   3.098  20.878  0.00  0.00    +0.000 HD
BRANCH  15  17
ATOM     17  C   UNL     1       1.849   3.130  20.644  0.00  0.00    +0.000 C 
ATOM     18  C   UNL     1       0.870   2.761  19.518  0.00  0.00    +0.000 C 
ATOM     19  C   UNL     1       1.308   2.540  21.963  0.00  0.00    +0.000 C 
ATOM     20  C   UNL     1       1.913   4.660  20.815  0.00  0.00    +0.000 C 
ENDBRANCH  15  17
ENDBRANCH  14  15
ENDBRANCH   7  14
TORSDOF 4
ENDMDL
MODEL 8
REMARK VINA RESULT:      -6.7      1.982      2.296
REMARK  Name = 
REMARK  8 active torsions:
REMARK  status: ('A' for Active; 'I' for Inactive)
REMARK    1  A    between atoms: C_1  and  C_2
REMARK    2  A    between atoms: C_7  and  C_8
REMARK    3  A    between atoms: C_8  and  N_9
REMARK    4  A    between atoms: N_9  and  C_10
REMARK    5  A    between atoms: C_10  and  C_11
REMARK    6  A    between atoms: C_10  and  C_12
REMARK    7  A    between atoms: C_10  and  C_13
REMARK    8  A    between atoms: C_14  and  O_15
REMARK                            x       y       z     vdW  Elec       q    Type
REMARK                         _______ _______ _______ _____ _____    ______ ____
ROOT
ATOM      1  C   UNL     1       1.335   2.580  21.754  0.00  0.00    +0.000 C 
ATOM      2  C   UNL     1       2.066   3.447  20.770  0.00  0.00    +0.000 A 
ATOM      3  C   UNL     1       1.406   4.472  20.097  0.00  0.00    +0.000 A 
ATOM      4  C   UNL     1       2.099   5.259  19.180  0.00  0.00    +0.000 A 
ATOM      5  C   UNL     1       3.463   5.022  18.940  0.00  0.00    +0.000 A 
ATOM      6  C   UNL     1       4.177   5.790  18.012  0.00  0.00    +0.000 A 
ATOM      7  C   UNL     1       5.536   5.550  17.792  0.00  0.00    +0.000 A 
ATOM      8  C   UNL     1       6.119   4.528  18.529  0.00  0.00    +0.000 A 
ATOM      9  N   UNL     1       5.463   3.768  19.427  0.00  0.00    +0.000 NA
ATOM     10  C   UNL     1       4.152   4.007  19.625  0.00  0.00    +0.000 A 
ATOM     11  C   UNL     1       3.433   3.235  20.530  0.00  0.00    +0.000 A 
ENDROOT
BRANCH   8  12
ATOM     12  O   UNL     1       7.444   4.221  18.393  0.00  0.00    +0.000 OA
ATOM     13  H   UNL     1       7.582   3.367  18.839  0.00  0.00    +0.000 HD
ENDBRANCH   8  12
BRANCH   7  14
ATOM     14  C   UNL     1       6.302   6.425  16.839  0.00  0.00    +0.000 C 
BRANCH  14  15
ATOM     15  N   UNL     1       7.217   5.650  15.992  0.00  0.00    +0.000 NA
ATOM     16  H   UNL     1       7.618   4.899  16.561  0.00  0.00    +0.000 HD
BRANCH  15  17
ATOM     17  C   UNL     1       6.577   5.038  14.802  0.00  0.00    +0.000 C 
ATOM     18  C   UNL     1       6.219   3.568  15.072  0.00  0.00    +0.000 C 
ATOM     19  C   UNL     1       5.267   5.807  14.528  0.00  0.00    +0.000 C 
ATOM     20  C   UNL     1       7.450   5.150  13.537  0.00  0.00    +0.000 C 
ENDBRANCH  15  17
ENDBRANCH  14  15
ENDBRANCH   7  14
TORSDOF 4
ENDMDL
MODEL 9
REMARK VINA RESULT:      -6.7      1.325      1.712
REMARK  Name = 
REMARK  8 active torsions:
REMARK  status: ('A' for Active; 'I' for Inactive)
REMARK    1  A    between atoms: C_1  and  C_2
REMARK    2  A    between atoms: C_7  and  C_8
REMARK    3  A    between atoms: C_8  and  N_9
REMARK    4  A    between atoms: N_9  and  C_10
REMARK    5  A    between atoms: C_10  and  C_11
REMARK    6  A    between atoms: C_10  and  C_12
REMARK    7  A    between atoms: C_10  and  C_13
REMARK    8  A    between atoms: C_14  and  O_15
REMARK                            x       y       z     vdW  Elec       q    Type
REMARK                         _______ _______ _______ _____ _____    ______ ____
ROOT
ATOM      1  C   UNL     1       2.079   3.955  21.203  0.00  0.00    +0.000 C 
ATOM      2  C   UNL     1       2.865   3.777  19.937  0.00  0.00    +0.000 A 
ATOM      3  C   UNL     1       3.070   2.509  19.399  0.00  0.00    +0.000 A 
ATOM      4  C   UNL     1       3.810   2.362  18.228  0.00  0.00    +0.000 A 
ATOM      5  C   UNL     1       4.344   3.493  17.588  0.00  0.00    +0.000 A 
ATOM      6  C   UNL     1       5.103   3.370  16.419  0.00  0.00    +0.000 A 
ATOM      7  C   UNL     1       5.618   4.505  15.786  0.00  0.00    +0.000 A 
ATOM      8  C   UNL     1       5.339   5.731  16.376  0.00  0.00    +0.000 A 
ATOM      9  N   UNL     1       4.614   5.887  17.501  0.00  0.00    +0.000 NA
ATOM     10  C   UNL     1       4.129   4.784  18.102  0.00  0.00    +0.000 A 
ATOM     11  C   UNL     1       3.391   4.897  19.274  0.00  0.00    +0.000 A 
ENDROOT
BRANCH   8  12
ATOM     12  O   UNL     1       5.790   6.900  15.830  0.00  0.00    +0.000 OA
ATOM     13  H   UNL     1       5.117   7.188  15.188  0.00  0.00    +0.000 HD
ENDBRANCH   8  12
BRANCH   7  14
ATOM     14  C   UNL     1       6.378   4.360  14.497  0.00  0.00    +0.000 C 
BRANCH  14  15
ATOM     15  N   UNL     1       6.000   3.143  13.768  0.00  0.00    +0.000 NA
ATOM     16  H   UNL     1       5.055   2.878  14.060  0.00  0.00    +0.000 HD
BRANCH  15  17
ATOM     17  C   UNL     1       6.005   3.288  12.291  0.00  0.00    +0.000 C 
ATOM     18  C   UNL     1       7.027   4.348  11.853  0.00  0.00    +0.000 C 
ATOM     19  C   UNL     1       6.431   1.933  11.690  0.00  0.00    +0.000 C 
ATOM     20  C   UNL     1       4.611   3.626  11.726  0.00  0.00    +0.000 C 
ENDBRANCH  15  17
ENDBRANCH  14  15
ENDBRANCH   7  14
TORSDOF 4
ENDMDL
