MODEL 1
REMARK VINA RESULT:      -7.8      0.000      0.000
REMARK  Name = 
REMARK  8 active torsions:
REMARK  status: ('A' for Active; 'I' for Inactive)
REMARK    1  A    between atoms: C_2  and  C_3
REMARK    2  A    between atoms: C_3  and  N_4
REMARK    3  A    between atoms: C_5  and  S_6
REMARK    4  A    between atoms: S_6  and  C_7
REMARK    5  A    between atoms: C_7  and  C_8
REMARK    6  A    between atoms: C_13  and  C_14
REMARK    7  A    between atoms: C_20  and  C_21
REMARK    8  A    between atoms: C_21  and  C_22
REMARK                            x       y       z     vdW  Elec       q    Type
REMARK                         _______ _______ _______ _____ _____    ______ ____
ROOT
ATOM      1  N   UNL     1       3.169   5.272  19.312  0.00  0.00    +0.000 N 
ATOM      2  C   UNL     1       3.018   6.558  18.781  0.00  0.00    +0.000 A 
ATOM      3  N   UNL     1       3.578   6.989  17.685  0.00  0.00    +0.000 NA
ATOM      4  C   UNL     1       4.386   6.092  17.067  0.00  0.00    +0.000 A 
ATOM      5  S   UNL     1       5.248   6.472  15.644  0.00  0.00    +0.000 S 
ATOM      6  C   UNL     1       5.938   4.902  15.549  0.00  0.00    +0.000 A 
ATOM      7  C   UNL     1       5.529   4.115  16.607  0.00  0.00    +0.000 A 
ATOM      8  C   UNL     1       4.636   4.806  17.476  0.00  0.00    +0.000 A 
ATOM      9  C   UNL     1       3.995   4.331  18.679  0.00  0.00    +0.000 A 
ATOM     10  O   UNL     1       4.208   3.196  19.105  0.00  0.00    +0.000 OA
ENDROOT
BRANCH   6  11
ATOM     11  C   UNL     1       6.831   4.516  14.405  0.00  0.00    +0.000 C 
ATOM     12  C   UNL     1       6.103   3.721  13.332  0.00  0.00    +0.000 C 
ENDBRANCH   6  11
BRANCH   1  13
ATOM     13  C   UNL     1       2.546   4.818  20.557  0.00  0.00    +0.000 C 
BRANCH  13  15
ATOM     14  C   UNL     1       0.934   2.891  20.529  0.00  0.00    +0.000 C 
ATOM     15  C   UNL     1       1.212   4.179  20.278  0.00  0.00    +0.000 C 
ENDBRANCH  13  15
ENDBRANCH   1  13
BRANCH   2  16
ATOM     16  S   UNL     1       2.028   7.693  19.696  0.00  0.00    +0.000 S 
BRANCH  16  17
ATOM     17  C   UNL     1       1.806   9.077  18.556  0.00  0.00    +0.000 C 
BRANCH  17  18
ATOM     18  C   UNL     1       0.554   9.866  18.896  0.00  0.00    +0.000 C 
ATOM     19  O   UNL     1       0.431  10.395  19.995  0.00  0.00    +0.000 OA
ATOM     20  N   UNL     1      -0.369   9.871  17.870  0.00  0.00    +0.000 N 
ATOM     21  C   UNL     1      -1.536  10.605  17.891  0.00  0.00    +0.000 A 
ATOM     22  C   UNL     1      -2.596  10.429  16.969  0.00  0.00    +0.000 A 
ATOM     23  C   UNL     1      -3.541  11.351  17.346  0.00  0.00    +0.000 A 
ATOM     24  C   UNL     1      -4.884  11.714  16.866  0.00  0.00    +0.000 C 
ATOM     25  O   UNL     1      -3.074  12.053  18.409  0.00  0.00    +0.000 OA
ATOM     26  N   UNL     1      -1.823  11.587  18.752  0.00  0.00    +0.000 NA
ATOM     27  H   UNL     1      -0.259   9.199  17.116  0.00  0.00    +0.000 HD
ENDBRANCH  17  18
ENDBRANCH  16  17
ENDBRANCH   2  16
TORSDOF 6
ENDMDL
MODEL 2
REMARK VINA RESULT:      -7.5      2.842      3.093
REMARK  Name = 
REMARK  8 active torsions:
REMARK  status: ('A' for Active; 'I' for Inactive)
REMARK    1  A    between atoms: C_2  and  C_3
REMARK    2  A    between atoms: C_3  and  N_4
REMARK    3  A    between atoms: C_5  and  S_6
REMARK    4  A    between atoms: S_6  and  C_7
REMARK    5  A    between atoms: C_7  and  C_8
REMARK    6  A    between atoms: C_13  and  C_14
REMARK    7  A    between atoms: C_20  and  C_21
REMARK    8  A    between atoms: C_21  and  C_22
REMARK                            x       y       z     vdW  Elec       q    Type
REMARK                         _______ _______ _______ _____ _____    ______ ____
ROOT
ATOM      1  N   UNL     1       2.084   4.614  18.999  0.00  0.00    +0.000 N 
ATOM      2  C   UNL     1       2.578   5.879  19.340  0.00  0.00    +0.000 A 
ATOM      3  N   UNL     1       3.572   6.481  18.750  0.00  0.00    +0.000 NA
ATOM      4  C   UNL     1       4.161   5.769  17.758  0.00  0.00    +0.000 A 
ATOM      5  S   UNL     1       5.508   6.359  16.890  0.00  0.00    +0.000 S 
ATOM      6  C   UNL     1       5.588   4.954  15.905  0.00  0.00    +0.000 A 
ATOM      7  C   UNL     1       4.612   4.044  16.258  0.00  0.00    +0.000 A 
ATOM      8  C   UNL     1       3.795   4.520  17.324  0.00  0.00    +0.000 A 
ATOM      9  C   UNL     1       2.679   3.869  17.970  0.00  0.00    +0.000 A 
ATOM     10  O   UNL     1       2.329   2.737  17.639  0.00  0.00    +0.000 OA
ENDROOT
BRANCH   6  11
ATOM     11  C   UNL     1       6.602   4.837  14.803  0.00  0.00    +0.000 C 
ATOM     12  C   UNL     1       6.156   3.899  13.691  0.00  0.00    +0.000 C 
ENDBRANCH   6  11
BRANCH   1  13
ATOM     13  C   UNL     1       0.979   3.948  19.692  0.00  0.00    +0.000 C 
BRANCH  13  15
ATOM     14  C   UNL     1       2.289   3.032  21.631  0.00  0.00    +0.000 C 
ATOM     15  C   UNL     1       1.497   2.837  20.567  0.00  0.00    +0.000 C 
ENDBRANCH  13  15
ENDBRANCH   1  13
BRANCH   2  16
ATOM     16  S   UNL     1       1.818   6.695  20.704  0.00  0.00    +0.000 S 
BRANCH  16  17
ATOM     17  C   UNL     1       1.464   8.347  20.065  0.00  0.00    +0.000 C 
BRANCH  17  18
ATOM     18  C   UNL     1       0.545   9.109  21.005  0.00  0.00    +0.000 C 
ATOM     19  O   UNL     1      -0.238   8.508  21.731  0.00  0.00    +0.000 OA
ATOM     20  N   UNL     1       0.692  10.477  20.902  0.00  0.00    +0.000 N 
ATOM     21  C   UNL     1       0.051  11.381  21.723  0.00  0.00    +0.000 A 
ATOM     22  C   UNL     1      -0.003  12.774  21.473  0.00  0.00    +0.000 A 
ATOM     23  C   UNL     1      -0.723  13.287  22.524  0.00  0.00    +0.000 A 
ATOM     24  C   UNL     1      -1.182  14.633  22.906  0.00  0.00    +0.000 C 
ATOM     25  O   UNL     1      -1.060  12.277  23.364  0.00  0.00    +0.000 OA
ATOM     26  N   UNL     1      -0.579  11.086  22.864  0.00  0.00    +0.000 NA
ATOM     27  H   UNL     1       1.187  10.853  20.099  0.00  0.00    +0.000 HD
ENDBRANCH  17  18
ENDBRANCH  16  17
ENDBRANCH   2  16
TORSDOF 6
ENDMDL
MODEL 3
REMARK VINA RESULT:      -7.5      3.740      7.558
REMARK  Name = 
REMARK  8 active torsions:
REMARK  status: ('A' for Active; 'I' for Inactive)
REMARK    1  A    between atoms: C_2  and  C_3
REMARK    2  A    between atoms: C_3  and  N_4
REMARK    3  A    between atoms: C_5  and  S_6
REMARK    4  A    between atoms: S_6  and  C_7
REMARK    5  A    between atoms: C_7  and  C_8
REMARK    6  A    between atoms: C_13  and  C_14
REMARK    7  A    between atoms: C_20  and  C_21
REMARK    8  A    between atoms: C_21  and  C_22
REMARK                            x       y       z     vdW  Elec       q    Type
REMARK                         _______ _______ _______ _____ _____    ______ ____
ROOT
ATOM      1  N   UNL     1       3.259   4.375  19.208  0.00  0.00    +0.000 N 
ATOM      2  C   UNL     1       3.563   4.980  17.983  0.00  0.00    +0.000 A 
ATOM      3  N   UNL     1       3.281   6.213  17.665  0.00  0.00    +0.000 NA
ATOM      4  C   UNL     1       2.612   6.909  18.616  0.00  0.00    +0.000 A 
ATOM      5  S   UNL     1       2.110   8.522  18.380  0.00  0.00    +0.000 S 
ATOM      6  C   UNL     1       1.416   8.620  19.948  0.00  0.00    +0.000 A 
ATOM      7  C   UNL     1       1.550   7.424  20.625  0.00  0.00    +0.000 A 
ATOM      8  C   UNL     1       2.240   6.445  19.853  0.00  0.00    +0.000 A 
ATOM      9  C   UNL     1       2.574   5.085  20.205  0.00  0.00    +0.000 A 
ATOM     10  O   UNL     1       2.238   4.611  21.290  0.00  0.00    +0.000 OA
ENDROOT
BRANCH   6  11
ATOM     11  C   UNL     1       0.799   9.895  20.446  0.00  0.00    +0.000 C 
ATOM     12  C   UNL     1       0.775  10.989  19.388  0.00  0.00    +0.000 C 
ENDBRANCH   6  11
BRANCH   1  13
ATOM     13  C   UNL     1       3.567   2.981  19.535  0.00  0.00    +0.000 C 
BRANCH  13  15
ATOM     14  C   UNL     1       1.237   2.340  18.846  0.00  0.00    +0.000 C 
ATOM     15  C   UNL     1       2.546   2.058  18.925  0.00  0.00    +0.000 C 
ENDBRANCH  13  15
ENDBRANCH   1  13
BRANCH   2  16
ATOM     16  S   UNL     1       4.347   3.977  16.765  0.00  0.00    +0.000 S 
BRANCH  16  17
ATOM     17  C   UNL     1       6.108   4.199  17.104  0.00  0.00    +0.000 C 
BRANCH  17  18
ATOM     18  C   UNL     1       6.534   5.635  16.850  0.00  0.00    +0.000 C 
ATOM     19  O   UNL     1       6.257   6.187  15.792  0.00  0.00    +0.000 OA
ATOM     20  N   UNL     1       7.253   6.171  17.898  0.00  0.00    +0.000 N 
ATOM     21  C   UNL     1       7.658   7.488  17.956  0.00  0.00    +0.000 A 
ATOM     22  C   UNL     1       8.597   7.985  18.892  0.00  0.00    +0.000 A 
ATOM     23  C   UNL     1       8.703   9.322  18.601  0.00  0.00    +0.000 A 
ATOM     24  C   UNL     1       9.495  10.441  19.140  0.00  0.00    +0.000 C 
ATOM     25  O   UNL     1       7.868   9.619  17.575  0.00  0.00    +0.000 OA
ATOM     26  N   UNL     1       7.216   8.474  17.169  0.00  0.00    +0.000 NA
ATOM     27  H   UNL     1       7.625   5.542  18.604  0.00  0.00    +0.000 HD
ENDBRANCH  17  18
ENDBRANCH  16  17
ENDBRANCH   2  16
TORSDOF 6
ENDMDL
MODEL 4
REMARK VINA RESULT:      -7.5      5.524      7.778
REMARK  Name = 
REMARK  8 active torsions:
REMARK  status: ('A' for Active; 'I' for Inactive)
REMARK    1  A    between atoms: C_2  and  C_3
REMARK    2  A    between atoms: C_3  and  N_4
REMARK    3  A    between atoms: C_5  and  S_6
REMARK    4  A    between atoms: S_6  and  C_7
REMARK    5  A    between atoms: C_7  and  C_8
REMARK    6  A    between atoms: C_13  and  C_14
REMARK    7  A    between atoms: C_20  and  C_21
REMARK    8  A    between atoms: C_21  and  C_22
REMARK                            x       y       z     vdW  Elec       q    Type
REMARK                         _______ _______ _______ _____ _____    ______ ____
ROOT
ATOM      1  N   UNL     1       5.836   5.287  17.588  0.00  0.00    +0.000 N 
ATOM      2  C   UNL     1       6.966   5.987  17.150  0.00  0.00    +0.000 A 
ATOM      3  N   UNL     1       7.467   5.928  15.948  0.00  0.00    +0.000 NA
ATOM      4  C   UNL     1       6.827   5.082  15.104  0.00  0.00    +0.000 A 
ATOM      5  S   UNL     1       7.350   4.826  13.500  0.00  0.00    +0.000 S 
ATOM      6  C   UNL     1       6.075   3.721  13.177  0.00  0.00    +0.000 A 
ATOM      7  C   UNL     1       5.281   3.540  14.291  0.00  0.00    +0.000 A 
ATOM      8  C   UNL     1       5.719   4.326  15.396  0.00  0.00    +0.000 A 
ATOM      9  C   UNL     1       5.158   4.414  16.723  0.00  0.00    +0.000 A 
ATOM     10  O   UNL     1       4.184   3.735  17.045  0.00  0.00    +0.000 OA
ENDROOT
BRANCH   6  11
ATOM     11  C   UNL     1       5.905   3.111  11.815  0.00  0.00    +0.000 C 
ATOM     12  C   UNL     1       4.457   3.110  11.347  0.00  0.00    +0.000 C 
ENDBRANCH   6  11
BRANCH   1  13
ATOM     13  C   UNL     1       5.304   5.353  18.950  0.00  0.00    +0.000 C 
BRANCH  13  15
ATOM     14  C   UNL     1       2.945   5.708  19.739  0.00  0.00    +0.000 C 
ATOM     15  C   UNL     1       3.980   6.069  18.966  0.00  0.00    +0.000 C 
ENDBRANCH  13  15
ENDBRANCH   1  13
BRANCH   2  16
ATOM     16  S   UNL     1       7.796   6.991  18.336  0.00  0.00    +0.000 S 
BRANCH  16  17
ATOM     17  C   UNL     1       7.728   8.646  17.613  0.00  0.00    +0.000 C 
BRANCH  17  18
ATOM     18  C   UNL     1       8.645   9.603  18.355  0.00  0.00    +0.000 C 
ATOM     19  O   UNL     1       9.161   9.271  19.416  0.00  0.00    +0.000 OA
ATOM     20  N   UNL     1       8.775  10.819  17.718  0.00  0.00    +0.000 N 
ATOM     21  C   UNL     1       9.635  11.814  18.133  0.00  0.00    +0.000 A 
ATOM     22  C   UNL     1       9.598  13.143  17.645  0.00  0.00    +0.000 A 
ATOM     23  C   UNL     1      10.612  13.786  18.312  0.00  0.00    +0.000 A 
ATOM     24  C   UNL     1      11.133  15.163  18.325  0.00  0.00    +0.000 C 
ATOM     25  O   UNL     1      11.235  12.901  19.129  0.00  0.00    +0.000 OA
ATOM     26  N   UNL     1      10.624  11.669  19.020  0.00  0.00    +0.000 NA
ATOM     27  H   UNL     1       8.111  11.057  16.987  0.00  0.00    +0.000 HD
ENDBRANCH  17  18
ENDBRANCH  16  17
ENDBRANCH   2  16
TORSDOF 6
ENDMDL
MODEL 5
REMARK VINA RESULT:      -7.4      2.865      8.134
REMARK  Name = 
REMARK  8 active torsions:
REMARK  status: ('A' for Active; 'I' for Inactive)
REMARK    1  A    between atoms: C_2  and  C_3
REMARK    2  A    between atoms: C_3  and  N_4
REMARK    3  A    between atoms: C_5  and  S_6
REMARK    4  A    between atoms: S_6  and  C_7
REMARK    5  A    between atoms: C_7  and  C_8
REMARK    6  A    between atoms: C_13  and  C_14
REMARK    7  A    between atoms: C_20  and  C_21
REMARK    8  A    between atoms: C_21  and  C_22
REMARK                            x       y       z     vdW  Elec       q    Type
REMARK                         _______ _______ _______ _____ _____    ______ ____
ROOT
ATOM      1  N   UNL     1       2.120   6.373  20.258  0.00  0.00    +0.000 N 
ATOM      2  C   UNL     1       2.788   6.487  19.034  0.00  0.00    +0.000 A 
ATOM      3  N   UNL     1       2.782   7.544  18.271  0.00  0.00    +0.000 NA
ATOM      4  C   UNL     1       2.027   8.573  18.728  0.00  0.00    +0.000 A 
ATOM      5  S   UNL     1       1.849  10.030  17.857  0.00  0.00    +0.000 S 
ATOM      6  C   UNL     1       0.836  10.718  19.061  0.00  0.00    +0.000 A 
ATOM      7  C   UNL     1       0.623   9.831  20.097  0.00  0.00    +0.000 A 
ATOM      8  C   UNL     1       1.312   8.599  19.899  0.00  0.00    +0.000 A 
ATOM      9  C   UNL     1       1.341   7.432  20.748  0.00  0.00    +0.000 A 
ATOM     10  O   UNL     1       0.694   7.393  21.793  0.00  0.00    +0.000 OA
ENDROOT
BRANCH   6  11
ATOM     11  C   UNL     1       0.325  12.125  18.933  0.00  0.00    +0.000 C 
ATOM     12  C   UNL     1      -1.032  12.198  18.250  0.00  0.00    +0.000 C 
ENDBRANCH   6  11
BRANCH   1  13
ATOM     13  C   UNL     1       2.124   5.166  21.087  0.00  0.00    +0.000 C 
BRANCH  13  15
ATOM     14  C   UNL     1       1.094   2.878  20.956  0.00  0.00    +0.000 C 
ATOM     15  C   UNL     1       1.142   4.156  20.555  0.00  0.00    +0.000 C 
ENDBRANCH  13  15
ENDBRANCH   1  13
BRANCH   2  16
ATOM     16  S   UNL     1       3.668   5.070  18.465  0.00  0.00    +0.000 S 
BRANCH  16  17
ATOM     17  C   UNL     1       5.394   5.474  18.817  0.00  0.00    +0.000 C 
BRANCH  17  18
ATOM     18  C   UNL     1       6.148   5.800  17.539  0.00  0.00    +0.000 C 
ATOM     19  O   UNL     1       6.875   6.785  17.481  0.00  0.00    +0.000 OA
ATOM     20  N   UNL     1       5.886   4.905  16.522  0.00  0.00    +0.000 N 
ATOM     21  C   UNL     1       6.529   4.922  15.302  0.00  0.00    +0.000 A 
ATOM     22  C   UNL     1       6.101   4.179  14.175  0.00  0.00    +0.000 A 
ATOM     23  C   UNL     1       7.012   4.480  13.194  0.00  0.00    +0.000 A 
ATOM     24  C   UNL     1       7.180   4.098  11.782  0.00  0.00    +0.000 C 
ATOM     25  O   UNL     1       7.942   5.328  13.700  0.00  0.00    +0.000 OA
ATOM     26  N   UNL     1       7.640   5.606  15.016  0.00  0.00    +0.000 NA
ATOM     27  H   UNL     1       5.086   4.286  16.615  0.00  0.00    +0.000 HD
ENDBRANCH  17  18
ENDBRANCH  16  17
ENDBRANCH   2  16
TORSDOF 6
ENDMDL
MODEL 6
REMARK VINA RESULT:      -7.3      3.523      7.611
REMARK  Name = 
REMARK  8 active torsions:
REMARK  status: ('A' for Active; 'I' for Inactive)
REMARK    1  A    between atoms: C_2  and  C_3
REMARK    2  A    between atoms: C_3  and  N_4
REMARK    3  A    between atoms: C_5  and  S_6
REMARK    4  A    between atoms: S_6  and  C_7
REMARK    5  A    between atoms: C_7  and  C_8
REMARK    6  A    between atoms: C_13  and  C_14
REMARK    7  A    between atoms: C_20  and  C_21
REMARK    8  A    between atoms: C_21  and  C_22
REMARK                            x       y       z     vdW  Elec       q    Type
REMARK                         _______ _______ _______ _____ _____    ______ ____
ROOT
ATOM      1  N   UNL     1       3.647   4.828  19.195  0.00  0.00    +0.000 N 
ATOM      2  C   UNL     1       4.008   5.387  17.963  0.00  0.00    +0.000 A 
ATOM      3  N   UNL     1       3.644   6.564  17.537  0.00  0.00    +0.000 NA
ATOM      4  C   UNL     1       2.824   7.245  18.374  0.00  0.00    +0.000 A 
ATOM      5  S   UNL     1       2.198   8.784  17.984  0.00  0.00    +0.000 S 
ATOM      6  C   UNL     1       1.351   8.904  19.473  0.00  0.00    +0.000 A 
ATOM      7  C   UNL     1       1.531   7.770  20.240  0.00  0.00    +0.000 A 
ATOM      8  C   UNL     1       2.380   6.820  19.602  0.00  0.00    +0.000 A 
ATOM      9  C   UNL     1       2.805   5.525  20.075  0.00  0.00    +0.000 A 
ATOM     10  O   UNL     1       2.413   5.085  21.154  0.00  0.00    +0.000 OA
ENDROOT
BRANCH   6  11
ATOM     11  C   UNL     1       0.571  10.139  19.824  0.00  0.00    +0.000 C 
ATOM     12  C   UNL     1      -0.668  10.318  18.961  0.00  0.00    +0.000 C 
ENDBRANCH   6  11
BRANCH   1  13
ATOM     13  C   UNL     1       4.051   3.494  19.642  0.00  0.00    +0.000 C 
BRANCH  13  15
ATOM     14  C   UNL     1       3.365   1.415  18.408  0.00  0.00    +0.000 C 
ATOM     15  C   UNL     1       3.055   2.460  19.189  0.00  0.00    +0.000 C 
ENDBRANCH  13  15
ENDBRANCH   1  13
BRANCH   2  16
ATOM     16  S   UNL     1       4.997   4.397  16.892  0.00  0.00    +0.000 S 
BRANCH  16  17
ATOM     17  C   UNL     1       6.185   5.572  16.205  0.00  0.00    +0.000 C 
BRANCH  17  18
ATOM     18  C   UNL     1       6.913   6.319  17.310  0.00  0.00    +0.000 C 
ATOM     19  O   UNL     1       7.174   5.761  18.369  0.00  0.00    +0.000 OA
ATOM     20  N   UNL     1       7.185   7.630  16.978  0.00  0.00    +0.000 N 
ATOM     21  C   UNL     1       7.931   8.482  17.766  0.00  0.00    +0.000 A 
ATOM     22  C   UNL     1       8.007   9.881  17.562  0.00  0.00    +0.000 A 
ATOM     23  C   UNL     1       8.845  10.331  18.552  0.00  0.00    +0.000 A 
ATOM     24  C   UNL     1       9.352  11.651  18.960  0.00  0.00    +0.000 C 
ATOM     25  O   UNL     1       9.266   9.273  19.290  0.00  0.00    +0.000 OA
ATOM     26  N   UNL     1       8.693   8.118  18.801  0.00  0.00    +0.000 NA
ATOM     27  H   UNL     1       6.704   8.039  16.182  0.00  0.00    +0.000 HD
ENDBRANCH  17  18
ENDBRANCH  16  17
ENDBRANCH   2  16
TORSDOF 6
ENDMDL
MODEL 7
REMARK VINA RESULT:      -7.3      2.859      3.005
REMARK  Name = 
REMARK  8 active torsions:
REMARK  status: ('A' for Active; 'I' for Inactive)
REMARK    1  A    between atoms: C_2  and  C_3
REMARK    2  A    between atoms: C_3  and  N_4
REMARK    3  A    between atoms: C_5  and  S_6
REMARK    4  A    between atoms: S_6  and  C_7
REMARK    5  A    between atoms: C_7  and  C_8
REMARK    6  A    between atoms: C_13  and  C_14
REMARK    7  A    between atoms: C_20  and  C_21
REMARK    8  A    between atoms: C_21  and  C_22
REMARK                            x       y       z     vdW  Elec       q    Type
REMARK                         _______ _______ _______ _____ _____    ______ ____
ROOT
ATOM      1  N   UNL     1       2.954   4.212  19.786  0.00  0.00    +0.000 N 
ATOM      2  C   UNL     1       2.653   5.560  19.559  0.00  0.00    +0.000 A 
ATOM      3  N   UNL     1       3.153   6.291  18.603  0.00  0.00    +0.000 NA
ATOM      4  C   UNL     1       4.056   5.658  17.814  0.00  0.00    +0.000 A 
ATOM      5  S   UNL     1       4.860   6.449  16.534  0.00  0.00    +0.000 S 
ATOM      6  C   UNL     1       5.727   5.032  16.098  0.00  0.00    +0.000 A 
ATOM      7  C   UNL     1       5.418   3.982  16.939  0.00  0.00    +0.000 A 
ATOM      8  C   UNL     1       4.455   4.349  17.924  0.00  0.00    +0.000 A 
ATOM      9  C   UNL     1       3.880   3.542  18.973  0.00  0.00    +0.000 A 
ATOM     10  O   UNL     1       4.226   2.372  19.133  0.00  0.00    +0.000 OA
ENDROOT
BRANCH   6  11
ATOM     11  C   UNL     1       6.653   5.023  14.915  0.00  0.00    +0.000 C 
ATOM     12  C   UNL     1       6.274   3.975  13.879  0.00  0.00    +0.000 C 
ENDBRANCH   6  11
BRANCH   1  13
ATOM     13  C   UNL     1       2.395   3.417  20.881  0.00  0.00    +0.000 C 
BRANCH  13  15
ATOM     14  C   UNL     1       0.674   2.529  19.279  0.00  0.00    +0.000 C 
ATOM     15  C   UNL     1       1.026   2.905  20.517  0.00  0.00    +0.000 C 
ENDBRANCH  13  15
ENDBRANCH   1  13
BRANCH   2  16
ATOM     16  S   UNL     1       1.543   6.334  20.689  0.00  0.00    +0.000 S 
BRANCH  16  17
ATOM     17  C   UNL     1       1.702   8.092  20.301  0.00  0.00    +0.000 C 
BRANCH  17  18
ATOM     18  C   UNL     1       0.759   8.925  21.152  0.00  0.00    +0.000 C 
ATOM     19  O   UNL     1      -0.036   8.382  21.911  0.00  0.00    +0.000 OA
ATOM     20  N   UNL     1       0.901  10.280  20.936  0.00  0.00    +0.000 N 
ATOM     21  C   UNL     1       0.238  11.246  21.663  0.00  0.00    +0.000 A 
ATOM     22  C   UNL     1       0.183  12.612  21.294  0.00  0.00    +0.000 A 
ATOM     23  C   UNL     1      -0.562  13.208  22.281  0.00  0.00    +0.000 A 
ATOM     24  C   UNL     1      -1.036  14.578  22.537  0.00  0.00    +0.000 C 
ATOM     25  O   UNL     1      -0.912  12.272  23.198  0.00  0.00    +0.000 OA
ATOM     26  N   UNL     1      -0.415  11.045  22.812  0.00  0.00    +0.000 NA
ATOM     27  H   UNL     1       1.412  10.589  20.114  0.00  0.00    +0.000 HD
ENDBRANCH  17  18
ENDBRANCH  16  17
ENDBRANCH   2  16
TORSDOF 6
ENDMDL
MODEL 8
REMARK VINA RESULT:      -7.2      2.383      3.022
REMARK  Name = 
REMARK  8 active torsions:
REMARK  status: ('A' for Active; 'I' for Inactive)
REMARK    1  A    between atoms: C_2  and  C_3
REMARK    2  A    between atoms: C_3  and  N_4
REMARK    3  A    between atoms: C_5  and  S_6
REMARK    4  A    between atoms: S_6  and  C_7
REMARK    5  A    between atoms: C_7  and  C_8
REMARK    6  A    between atoms: C_13  and  C_14
REMARK    7  A    between atoms: C_20  and  C_21
REMARK    8  A    between atoms: C_21  and  C_22
REMARK                            x       y       z     vdW  Elec       q    Type
REMARK                         _______ _______ _______ _____ _____    ______ ____
ROOT
ATOM      1  N   UNL     1       3.082   5.403  19.444  0.00  0.00    +0.000 N 
ATOM      2  C   UNL     1       2.925   6.660  18.848  0.00  0.00    +0.000 A 
ATOM      3  N   UNL     1       3.500   7.044  17.743  0.00  0.00    +0.000 NA
ATOM      4  C   UNL     1       4.330   6.130  17.185  0.00  0.00    +0.000 A 
ATOM      5  S   UNL     1       5.214   6.451  15.761  0.00  0.00    +0.000 S 
ATOM      6  C   UNL     1       5.926   4.889  15.755  0.00  0.00    +0.000 A 
ATOM      7  C   UNL     1       5.508   4.148  16.843  0.00  0.00    +0.000 A 
ATOM      8  C   UNL     1       4.589   4.869  17.661  0.00  0.00    +0.000 A 
ATOM      9  C   UNL     1       3.932   4.444  18.874  0.00  0.00    +0.000 A 
ATOM     10  O   UNL     1       4.152   3.335  19.359  0.00  0.00    +0.000 OA
ENDROOT
BRANCH   6  11
ATOM     11  C   UNL     1       6.846   4.459  14.648  0.00  0.00    +0.000 C 
ATOM     12  C   UNL     1       6.107   3.807  13.489  0.00  0.00    +0.000 C 
ENDBRANCH   6  11
BRANCH   1  13
ATOM     13  C   UNL     1       2.442   5.003  20.699  0.00  0.00    +0.000 C 
BRANCH  13  15
ATOM     14  C   UNL     1       0.897   3.057  20.323  0.00  0.00    +0.000 C 
ATOM     15  C   UNL     1       1.099   4.378  20.431  0.00  0.00    +0.000 C 
ENDBRANCH  13  15
ENDBRANCH   1  13
BRANCH   2  16
ATOM     16  S   UNL     1       1.903   7.824  19.689  0.00  0.00    +0.000 S 
BRANCH  16  17
ATOM     17  C   UNL     1       1.500   9.035  18.410  0.00  0.00    +0.000 C 
BRANCH  17  18
ATOM     18  C   UNL     1       1.248  10.405  19.017  0.00  0.00    +0.000 C 
ATOM     19  O   UNL     1       0.508  10.528  19.985  0.00  0.00    +0.000 OA
ATOM     20  N   UNL     1       1.905  11.415  18.344  0.00  0.00    +0.000 N 
ATOM     21  C   UNL     1       1.924  12.729  18.763  0.00  0.00    +0.000 A 
ATOM     22  C   UNL     1       2.376  13.806  17.963  0.00  0.00    +0.000 A 
ATOM     23  C   UNL     1       2.227  14.915  18.758  0.00  0.00    +0.000 A 
ATOM     24  C   UNL     1       2.469  16.357  18.581  0.00  0.00    +0.000 C 
ATOM     25  O   UNL     1       1.741  14.532  19.965  0.00  0.00    +0.000 OA
ATOM     26  N   UNL     1       1.549  13.167  19.969  0.00  0.00    +0.000 NA
ATOM     27  H   UNL     1       2.282  11.218  17.422  0.00  0.00    +0.000 HD
ENDBRANCH  17  18
ENDBRANCH  16  17
ENDBRANCH   2  16
TORSDOF 6
ENDMDL
MODEL 9
REMARK VINA RESULT:      -7.2      2.237      2.584
REMARK  Name = 
REMARK  8 active torsions:
REMARK  status: ('A' for Active; 'I' for Inactive)
REMARK    1  A    between atoms: C_2  and  C_3
REMARK    2  A    between atoms: C_3  and  N_4
REMARK    3  A    between atoms: C_5  and  S_6
REMARK    4  A    between atoms: S_6  and  C_7
REMARK    5  A    between atoms: C_7  and  C_8
REMARK    6  A    between atoms: C_13  and  C_14
REMARK    7  A    between atoms: C_20  and  C_21
REMARK    8  A    between atoms: C_21  and  C_22
REMARK                            x       y       z     vdW  Elec       q    Type
REMARK                         _______ _______ _______ _____ _____    ______ ____
ROOT
ATOM      1  N   UNL     1       3.112   5.284  19.401  0.00  0.00    +0.000 N 
ATOM      2  C   UNL     1       2.959   6.555  18.835  0.00  0.00    +0.000 A 
ATOM      3  N   UNL     1       3.528   6.960  17.734  0.00  0.00    +0.000 NA
ATOM      4  C   UNL     1       4.349   6.054  17.150  0.00  0.00    +0.000 A 
ATOM      5  S   UNL     1       5.225   6.402  15.727  0.00  0.00    +0.000 S 
ATOM      6  C   UNL     1       5.928   4.836  15.682  0.00  0.00    +0.000 A 
ATOM      7  C   UNL     1       5.512   4.074  16.756  0.00  0.00    +0.000 A 
ATOM      8  C   UNL     1       4.604   4.781  17.596  0.00  0.00    +0.000 A 
ATOM      9  C   UNL     1       3.953   4.333  18.804  0.00  0.00    +0.000 A 
ATOM     10  O   UNL     1       4.169   3.212  19.262  0.00  0.00    +0.000 OA
ENDROOT
BRANCH   6  11
ATOM     11  C   UNL     1       6.837   4.426  14.559  0.00  0.00    +0.000 C 
ATOM     12  C   UNL     1       6.087   3.805  13.391  0.00  0.00    +0.000 C 
ENDBRANCH   6  11
BRANCH   1  13
ATOM     13  C   UNL     1       2.479   4.859  20.651  0.00  0.00    +0.000 C 
BRANCH  13  15
ATOM     14  C   UNL     1       0.812   3.148  19.870  0.00  0.00    +0.000 C 
ATOM     15  C   UNL     1       1.085   4.353  20.391  0.00  0.00    +0.000 C 
ENDBRANCH  13  15
ENDBRANCH   1  13
BRANCH   2  16
ATOM     16  S   UNL     1       1.950   7.706  19.708  0.00  0.00    +0.000 S 
BRANCH  16  17
ATOM     17  C   UNL     1       1.425   8.867  18.427  0.00  0.00    +0.000 C 
BRANCH  17  18
ATOM     18  C   UNL     1       1.254  10.265  18.997  0.00  0.00    +0.000 C 
ATOM     19  O   UNL     1       1.812  11.222  18.472  0.00  0.00    +0.000 OA
ATOM     20  N   UNL     1       0.462  10.288  20.126  0.00  0.00    +0.000 N 
ATOM     21  C   UNL     1       0.068  11.446  20.763  0.00  0.00    +0.000 A 
ATOM     22  C   UNL     1      -0.528  11.476  22.047  0.00  0.00    +0.000 A 
ATOM     23  C   UNL     1      -0.758  12.807  22.292  0.00  0.00    +0.000 A 
ATOM     24  C   UNL     1      -1.321  13.572  23.417  0.00  0.00    +0.000 C 
ATOM     25  O   UNL     1      -0.351  13.531  21.219  0.00  0.00    +0.000 OA
ATOM     26  N   UNL     1       0.167  12.682  20.264  0.00  0.00    +0.000 NA
ATOM     27  H   UNL     1       0.265   9.410  20.598  0.00  0.00    +0.000 HD
ENDBRANCH  17  18
ENDBRANCH  16  17
ENDBRANCH   2  16
TORSDOF 6
ENDMDL
