MODEL 1
REMARK VINA RESULT:      -7.3      0.000      0.000
REMARK  Name = 
REMARK  6 active torsions:
REMARK  status: ('A' for Active; 'I' for Inactive)
REMARK    1  A    between atoms: C_1  and  S_2
REMARK    2  A    between atoms: S_2  and  C_3
REMARK    3  A    between atoms: C_6  and  C_7
REMARK    4  A    between atoms: C_7  and  N_8
REMARK    5  A    between atoms: C_12  and  C_14
REMARK    6  A    between atoms: C_17  and  N_18
REMARK                            x       y       z     vdW  Elec       q    Type
REMARK                         _______ _______ _______ _____ _____    ______ ____
ROOT
ATOM      1  N   UNL     1       1.508   6.862  20.010  0.00  0.00    +0.000 NA
ATOM      2  C   UNL     1       2.053   6.970  18.651  0.00  0.00    +0.000 C 
ATOM      3  C   UNL     1       3.411   6.301  18.376  0.00  0.00    +0.000 C 
ATOM      4  N   UNL     1       3.623   4.988  18.983  0.00  0.00    +0.000 N 
ATOM      5  C   UNL     1       4.532   4.004  18.523  0.00  0.00    +0.000 C 
ATOM      6  O   UNL     1       4.706   2.944  19.116  0.00  0.00    +0.000 OA
ATOM      7  C   UNL     1       3.133   4.883  20.360  0.00  0.00    +0.000 C 
ATOM      8  C   UNL     1       1.732   5.507  20.557  0.00  0.00    +0.000 C 
ENDROOT
BRANCH   5   9
ATOM      9  C   UNL     1       5.327   4.241  17.267  0.00  0.00    +0.000 A 
ATOM     10  C   UNL     1       6.640   4.723  17.314  0.00  0.00    +0.000 A 
ATOM     11  C   UNL     1       7.342   5.038  16.151  0.00  0.00    +0.000 A 
ATOM     12  C   UNL     1       6.775   4.752  14.908  0.00  0.00    +0.000 A 
ATOM     13  C   UNL     1       5.505   4.160  14.835  0.00  0.00    +0.000 A 
ATOM     14  C   UNL     1       4.778   3.917  16.016  0.00  0.00    +0.000 A 
BRANCH  12  15
ATOM     15  N   UNL     1       7.539   5.050  13.690  0.00  0.00    +0.000 N 
ATOM     16  O   UNL     1       8.507   5.818  13.796  0.00  0.00    +0.000 OA
ATOM     17  O   UNL     1       7.174   4.519  12.634  0.00  0.00    +0.000 OA
ENDBRANCH  12  15
ENDBRANCH   5   9
BRANCH   1  18
ATOM     18  C   UNL     1       1.933   7.932  20.919  0.00  0.00    +0.000 C 
BRANCH  18  22
ATOM     19  C   UNL     1      -0.880  11.176  21.666  0.00  0.00    +0.000 A 
ATOM     20  C   UNL     1      -0.480  10.346  22.716  0.00  0.00    +0.000 A 
ATOM     21  C   UNL     1       0.402   9.277  22.480  0.00  0.00    +0.000 A 
ATOM     22  C   UNL     1       0.884   9.008  21.188  0.00  0.00    +0.000 A 
ATOM     23  C   UNL     1       0.448   9.829  20.138  0.00  0.00    +0.000 A 
ATOM     24  C   UNL     1      -0.424  10.901  20.376  0.00  0.00    +0.000 A 
BRANCH  19  26
ATOM     25  C   UNL     1      -2.828  12.055  23.439  0.00  0.00    +0.000 C 
ATOM     26  S   UNL     1      -2.002  12.547  21.900  0.00  0.00    +0.000 S 
ENDBRANCH  19  26
ENDBRANCH  18  22
ENDBRANCH   1  18
TORSDOF 5
ENDMDL
MODEL 2
REMARK VINA RESULT:      -7.2      0.567      1.448
REMARK  Name = 
REMARK  6 active torsions:
REMARK  status: ('A' for Active; 'I' for Inactive)
REMARK    1  A    between atoms: C_1  and  S_2
REMARK    2  A    between atoms: S_2  and  C_3
REMARK    3  A    between atoms: C_6  and  C_7
REMARK    4  A    between atoms: C_7  and  N_8
REMARK    5  A    between atoms: C_12  and  C_14
REMARK    6  A    between atoms: C_17  and  N_18
REMARK                            x       y       z     vdW  Elec       q    Type
REMARK                         _______ _______ _______ _____ _____    ______ ____
ROOT
ATOM      1  N   UNL     1       1.578   7.066  19.981  0.00  0.00    +0.000 NA
ATOM      2  C   UNL     1       2.132   7.238  18.632  0.00  0.00    +0.000 C 
ATOM      3  C   UNL     1       3.437   6.495  18.300  0.00  0.00    +0.000 C 
ATOM      4  N   UNL     1       3.551   5.126  18.803  0.00  0.00    +0.000 N 
ATOM      5  C   UNL     1       4.386   4.117  18.265  0.00  0.00    +0.000 C 
ATOM      6  O   UNL     1       4.481   3.004  18.774  0.00  0.00    +0.000 OA
ATOM      7  C   UNL     1       3.052   4.951  20.170  0.00  0.00    +0.000 C 
ATOM      8  C   UNL     1       1.701   5.660  20.421  0.00  0.00    +0.000 C 
ENDROOT
BRANCH   5   9
ATOM      9  C   UNL     1       5.198   4.391  17.028  0.00  0.00    +0.000 A 
ATOM     10  C   UNL     1       4.655   4.227  15.748  0.00  0.00    +0.000 A 
ATOM     11  C   UNL     1       5.435   4.384  14.602  0.00  0.00    +0.000 A 
ATOM     12  C   UNL     1       6.751   4.833  14.722  0.00  0.00    +0.000 A 
ATOM     13  C   UNL     1       7.283   5.116  15.989  0.00  0.00    +0.000 A 
ATOM     14  C   UNL     1       6.508   4.882  17.141  0.00  0.00    +0.000 A 
BRANCH  12  15
ATOM     15  N   UNL     1       7.550   5.032  13.507  0.00  0.00    +0.000 N 
ATOM     16  O   UNL     1       8.498   5.829  13.570  0.00  0.00    +0.000 OA
ATOM     17  O   UNL     1       7.232   4.395  12.495  0.00  0.00    +0.000 OA
ENDBRANCH  12  15
ENDBRANCH   5   9
BRANCH   1  18
ATOM     18  C   UNL     1       2.079   8.028  20.967  0.00  0.00    +0.000 C 
BRANCH  18  22
ATOM     19  C   UNL     1      -0.946  10.927  22.168  0.00  0.00    +0.000 A 
ATOM     20  C   UNL     1      -0.455  10.935  20.861  0.00  0.00    +0.000 A 
ATOM     21  C   UNL     1       0.545  10.026  20.472  0.00  0.00    +0.000 A 
ATOM     22  C   UNL     1       1.082   9.105  21.387  0.00  0.00    +0.000 A 
ATOM     23  C   UNL     1       0.603   9.130  22.704  0.00  0.00    +0.000 A 
ATOM     24  C   UNL     1      -0.400  10.031  23.090  0.00  0.00    +0.000 A 
BRANCH  19  26
ATOM     25  C   UNL     1      -1.220  13.543  23.056  0.00  0.00    +0.000 C 
ATOM     26  S   UNL     1      -2.210  12.059  22.726  0.00  0.00    +0.000 S 
ENDBRANCH  19  26
ENDBRANCH  18  22
ENDBRANCH   1  18
TORSDOF 5
ENDMDL
MODEL 3
REMARK VINA RESULT:      -7.2      0.624      1.135
REMARK  Name = 
REMARK  6 active torsions:
REMARK  status: ('A' for Active; 'I' for Inactive)
REMARK    1  A    between atoms: C_1  and  S_2
REMARK    2  A    between atoms: S_2  and  C_3
REMARK    3  A    between atoms: C_6  and  C_7
REMARK    4  A    between atoms: C_7  and  N_8
REMARK    5  A    between atoms: C_12  and  C_14
REMARK    6  A    between atoms: C_17  and  N_18
REMARK                            x       y       z     vdW  Elec       q    Type
REMARK                         _______ _______ _______ _____ _____    ______ ____
ROOT
ATOM      1  N   UNL     1       1.609   7.058  19.763  0.00  0.00    +0.000 NA
ATOM      2  C   UNL     1       2.147   7.200  18.404  0.00  0.00    +0.000 C 
ATOM      3  C   UNL     1       3.482   6.501  18.093  0.00  0.00    +0.000 C 
ATOM      4  N   UNL     1       3.658   5.160  18.650  0.00  0.00    +0.000 N 
ATOM      5  C   UNL     1       4.533   4.167  18.146  0.00  0.00    +0.000 C 
ATOM      6  O   UNL     1       4.679   3.081  18.699  0.00  0.00    +0.000 OA
ATOM      7  C   UNL     1       3.175   5.020  20.027  0.00  0.00    +0.000 C 
ATOM      8  C   UNL     1       1.796   5.678  20.258  0.00  0.00    +0.000 C 
ENDROOT
BRANCH   5   9
ATOM      9  C   UNL     1       5.325   4.425  16.893  0.00  0.00    +0.000 A 
ATOM     10  C   UNL     1       4.771   4.219  15.624  0.00  0.00    +0.000 A 
ATOM     11  C   UNL     1       5.534   4.361  14.465  0.00  0.00    +0.000 A 
ATOM     12  C   UNL     1       6.842   4.838  14.558  0.00  0.00    +0.000 A 
ATOM     13  C   UNL     1       7.384   5.163  15.812  0.00  0.00    +0.000 A 
ATOM     14  C   UNL     1       6.627   4.944  16.978  0.00  0.00    +0.000 A 
BRANCH  12  15
ATOM     15  N   UNL     1       7.623   5.023  13.329  0.00  0.00    +0.000 N 
ATOM     16  O   UNL     1       8.557   5.838  13.361  0.00  0.00    +0.000 OA
ATOM     17  O   UNL     1       7.305   4.356  12.336  0.00  0.00    +0.000 OA
ENDBRANCH  12  15
ENDBRANCH   5   9
BRANCH   1  18
ATOM     18  C   UNL     1       2.074   8.081  20.706  0.00  0.00    +0.000 C 
BRANCH  18  22
ATOM     19  C   UNL     1      -0.817  11.023  22.114  0.00  0.00    +0.000 A 
ATOM     20  C   UNL     1      -0.398   9.997  22.964  0.00  0.00    +0.000 A 
ATOM     21  C   UNL     1       0.509   9.024  22.510  0.00  0.00    +0.000 A 
ATOM     22  C   UNL     1       0.999   9.050  21.194  0.00  0.00    +0.000 A 
ATOM     23  C   UNL     1       0.545  10.066  20.341  0.00  0.00    +0.000 A 
ATOM     24  C   UNL     1      -0.352  11.042  20.797  0.00  0.00    +0.000 A 
BRANCH  19  26
ATOM     25  C   UNL     1      -2.809  12.645  21.059  0.00  0.00    +0.000 C 
ATOM     26  S   UNL     1      -1.972  12.286  22.629  0.00  0.00    +0.000 S 
ENDBRANCH  19  26
ENDBRANCH  18  22
ENDBRANCH   1  18
TORSDOF 5
ENDMDL
MODEL 4
REMARK VINA RESULT:      -6.9      0.646      1.330
REMARK  Name = 
REMARK  6 active torsions:
REMARK  status: ('A' for Active; 'I' for Inactive)
REMARK    1  A    between atoms: C_1  and  S_2
REMARK    2  A    between atoms: S_2  and  C_3
REMARK    3  A    between atoms: C_6  and  C_7
REMARK    4  A    between atoms: C_7  and  N_8
REMARK    5  A    between atoms: C_12  and  C_14
REMARK    6  A    between atoms: C_17  and  N_18
REMARK                            x       y       z     vdW  Elec       q    Type
REMARK                         _______ _______ _______ _____ _____    ______ ____
ROOT
ATOM      1  N   UNL     1       1.586   6.705  19.965  0.00  0.00    +0.000 NA
ATOM      2  C   UNL     1       2.156   6.907  18.627  0.00  0.00    +0.000 C 
ATOM      3  C   UNL     1       3.475   6.186  18.301  0.00  0.00    +0.000 C 
ATOM      4  N   UNL     1       3.600   4.811  18.784  0.00  0.00    +0.000 N 
ATOM      5  C   UNL     1       4.456   3.822  18.240  0.00  0.00    +0.000 C 
ATOM      6  O   UNL     1       4.558   2.702  18.733  0.00  0.00    +0.000 OA
ATOM      7  C   UNL     1       3.086   4.608  20.141  0.00  0.00    +0.000 C 
ATOM      8  C   UNL     1       1.723   5.294  20.384  0.00  0.00    +0.000 C 
ENDROOT
BRANCH   5   9
ATOM      9  C   UNL     1       5.280   4.126  17.019  0.00  0.00    +0.000 A 
ATOM     10  C   UNL     1       6.638   4.455  17.118  0.00  0.00    +0.000 A 
ATOM     11  C   UNL     1       7.378   4.834  15.998  0.00  0.00    +0.000 A 
ATOM     12  C   UNL     1       6.792   4.768  14.733  0.00  0.00    +0.000 A 
ATOM     13  C   UNL     1       5.466   4.330  14.595  0.00  0.00    +0.000 A 
ATOM     14  C   UNL     1       4.709   4.022  15.741  0.00  0.00    +0.000 A 
BRANCH  12  15
ATOM     15  N   UNL     1       7.593   5.132  13.557  0.00  0.00    +0.000 N 
ATOM     16  O   UNL     1       7.231   4.684  12.458  0.00  0.00    +0.000 OA
ATOM     17  O   UNL     1       8.577   5.861  13.731  0.00  0.00    +0.000 OA
ENDBRANCH  12  15
ENDBRANCH   5   9
BRANCH   1  18
ATOM     18  C   UNL     1       2.062   7.658  20.974  0.00  0.00    +0.000 C 
BRANCH  18  22
ATOM     19  C   UNL     1      -0.722  10.942  21.656  0.00  0.00    +0.000 A 
ATOM     20  C   UNL     1      -0.204  10.723  20.378  0.00  0.00    +0.000 A 
ATOM     21  C   UNL     1       0.719   9.686  20.153  0.00  0.00    +0.000 A 
ATOM     22  C   UNL     1       1.155   8.864  21.205  0.00  0.00    +0.000 A 
ATOM     23  C   UNL     1       0.652   9.116  22.490  0.00  0.00    +0.000 A 
ATOM     24  C   UNL     1      -0.276  10.144  22.711  0.00  0.00    +0.000 A 
BRANCH  19  26
ATOM     25  C   UNL     1      -1.541  13.398  20.652  0.00  0.00    +0.000 C 
ATOM     26  S   UNL     1      -1.893  12.244  22.008  0.00  0.00    +0.000 S 
ENDBRANCH  19  26
ENDBRANCH  18  22
ENDBRANCH   1  18
TORSDOF 5
ENDMDL
MODEL 5
REMARK VINA RESULT:      -6.9      0.779      1.101
REMARK  Name = 
REMARK  6 active torsions:
REMARK  status: ('A' for Active; 'I' for Inactive)
REMARK    1  A    between atoms: C_1  and  S_2
REMARK    2  A    between atoms: S_2  and  C_3
REMARK    3  A    between atoms: C_6  and  C_7
REMARK    4  A    between atoms: C_7  and  N_8
REMARK    5  A    between atoms: C_12  and  C_14
REMARK    6  A    between atoms: C_17  and  N_18
REMARK                            x       y       z     vdW  Elec       q    Type
REMARK                         _______ _______ _______ _____ _____    ______ ____
ROOT
ATOM      1  N   UNL     1       1.524   6.650  19.960  0.00  0.00    +0.000 NA
ATOM      2  C   UNL     1       2.032   6.739  18.586  0.00  0.00    +0.000 C 
ATOM      3  C   UNL     1       3.430   6.163  18.306  0.00  0.00    +0.000 C 
ATOM      4  N   UNL     1       3.753   4.896  18.963  0.00  0.00    +0.000 N 
ATOM      5  C   UNL     1       4.725   3.964  18.523  0.00  0.00    +0.000 C 
ATOM      6  O   UNL     1       4.990   2.946  19.157  0.00  0.00    +0.000 OA
ATOM      7  C   UNL     1       3.300   4.815  20.355  0.00  0.00    +0.000 C 
ATOM      8  C   UNL     1       1.862   5.341  20.558  0.00  0.00    +0.000 C 
ENDROOT
BRANCH   5   9
ATOM      9  C   UNL     1       5.473   4.204  17.241  0.00  0.00    +0.000 A 
ATOM     10  C   UNL     1       6.778   4.713  17.241  0.00  0.00    +0.000 A 
ATOM     11  C   UNL     1       7.435   5.030  16.052  0.00  0.00    +0.000 A 
ATOM     12  C   UNL     1       6.834   4.721  14.831  0.00  0.00    +0.000 A 
ATOM     13  C   UNL     1       5.575   4.103  14.805  0.00  0.00    +0.000 A 
ATOM     14  C   UNL     1       4.892   3.857  16.011  0.00  0.00    +0.000 A 
BRANCH  12  15
ATOM     15  N   UNL     1       7.553   5.022  13.587  0.00  0.00    +0.000 N 
ATOM     16  O   UNL     1       7.159   4.466  12.550  0.00  0.00    +0.000 OA
ATOM     17  O   UNL     1       8.504   5.811  13.645  0.00  0.00    +0.000 OA
ENDBRANCH  12  15
ENDBRANCH   5   9
BRANCH   1  18
ATOM     18  C   UNL     1       1.886   7.788  20.813  0.00  0.00    +0.000 C 
BRANCH  18  22
ATOM     19  C   UNL     1      -0.612  11.353  20.606  0.00  0.00    +0.000 A 
ATOM     20  C   UNL     1      -0.615  10.568  21.761  0.00  0.00    +0.000 A 
ATOM     21  C   UNL     1       0.162   9.398  21.827  0.00  0.00    +0.000 A 
ATOM     22  C   UNL     1       0.941   8.984  20.733  0.00  0.00    +0.000 A 
ATOM     23  C   UNL     1       0.908   9.764  19.568  0.00  0.00    +0.000 A 
ATOM     24  C   UNL     1       0.140  10.936  19.507  0.00  0.00    +0.000 A 
BRANCH  19  26
ATOM     25  C   UNL     1      -3.073  12.208  19.645  0.00  0.00    +0.000 C 
ATOM     26  S   UNL     1      -1.582  12.847  20.458  0.00  0.00    +0.000 S 
ENDBRANCH  19  26
ENDBRANCH  18  22
ENDBRANCH   1  18
TORSDOF 5
ENDMDL
MODEL 6
REMARK VINA RESULT:      -6.8      3.332      4.813
REMARK  Name = 
REMARK  6 active torsions:
REMARK  status: ('A' for Active; 'I' for Inactive)
REMARK    1  A    between atoms: C_1  and  S_2
REMARK    2  A    between atoms: S_2  and  C_3
REMARK    3  A    between atoms: C_6  and  C_7
REMARK    4  A    between atoms: C_7  and  N_8
REMARK    5  A    between atoms: C_12  and  C_14
REMARK    6  A    between atoms: C_17  and  N_18
REMARK                            x       y       z     vdW  Elec       q    Type
REMARK                         _______ _______ _______ _____ _____    ______ ____
ROOT
ATOM      1  N   UNL     1       0.693  10.329  21.375  0.00  0.00    +0.000 NA
ATOM      2  C   UNL     1       1.326   9.053  21.730  0.00  0.00    +0.000 C 
ATOM      3  C   UNL     1       1.462   7.995  20.621  0.00  0.00    +0.000 C 
ATOM      4  N   UNL     1       1.848   8.487  19.299  0.00  0.00    +0.000 N 
ATOM      5  C   UNL     1       2.474   7.720  18.285  0.00  0.00    +0.000 C 
ATOM      6  O   UNL     1       2.716   8.179  17.173  0.00  0.00    +0.000 OA
ATOM      7  C   UNL     1       1.180   9.732  18.909  0.00  0.00    +0.000 C 
ATOM      8  C   UNL     1       1.142  10.782  20.042  0.00  0.00    +0.000 C 
ENDROOT
BRANCH   5   9
ATOM      9  C   UNL     1       2.864   6.293  18.553  0.00  0.00    +0.000 A 
ATOM     10  C   UNL     1       4.100   5.969  19.127  0.00  0.00    +0.000 A 
ATOM     11  C   UNL     1       4.505   4.644  19.284  0.00  0.00    +0.000 A 
ATOM     12  C   UNL     1       3.615   3.613  18.977  0.00  0.00    +0.000 A 
ATOM     13  C   UNL     1       2.327   3.913  18.508  0.00  0.00    +0.000 A 
ATOM     14  C   UNL     1       1.959   5.253  18.285  0.00  0.00    +0.000 A 
BRANCH  12  15
ATOM     15  N   UNL     1       4.037   2.222  19.183  0.00  0.00    +0.000 N 
ATOM     16  O   UNL     1       3.647   1.378  18.363  0.00  0.00    +0.000 OA
ATOM     17  O   UNL     1       4.756   1.974  20.160  0.00  0.00    +0.000 OA
ENDBRANCH  12  15
ENDBRANCH   5   9
BRANCH   1  18
ATOM     18  C   UNL     1      -0.765  10.345  21.533  0.00  0.00    +0.000 C 
BRANCH  18  22
ATOM     19  C   UNL     1      -2.687  14.167  22.362  0.00  0.00    +0.000 A 
ATOM     20  C   UNL     1      -2.802  13.591  21.096  0.00  0.00    +0.000 A 
ATOM     21  C   UNL     1      -2.160  12.374  20.807  0.00  0.00    +0.000 A 
ATOM     22  C   UNL     1      -1.377  11.722  21.774  0.00  0.00    +0.000 A 
ATOM     23  C   UNL     1      -1.243  12.329  23.032  0.00  0.00    +0.000 A 
ATOM     24  C   UNL     1      -1.891  13.537  23.321  0.00  0.00    +0.000 A 
BRANCH  19  26
ATOM     25  C   UNL     1      -2.308  16.363  24.019  0.00  0.00    +0.000 C 
ATOM     26  S   UNL     1      -3.474  15.714  22.789  0.00  0.00    +0.000 S 
ENDBRANCH  19  26
ENDBRANCH  18  22
ENDBRANCH   1  18
TORSDOF 5
ENDMDL
MODEL 7
REMARK VINA RESULT:      -6.7      3.384      5.060
REMARK  Name = 
REMARK  6 active torsions:
REMARK  status: ('A' for Active; 'I' for Inactive)
REMARK    1  A    between atoms: C_1  and  S_2
REMARK    2  A    between atoms: S_2  and  C_3
REMARK    3  A    between atoms: C_6  and  C_7
REMARK    4  A    between atoms: C_7  and  N_8
REMARK    5  A    between atoms: C_12  and  C_14
REMARK    6  A    between atoms: C_17  and  N_18
REMARK                            x       y       z     vdW  Elec       q    Type
REMARK                         _______ _______ _______ _____ _____    ______ ____
ROOT
ATOM      1  N   UNL     1       0.714  10.453  21.785  0.00  0.00    +0.000 NA
ATOM      2  C   UNL     1       1.362   9.153  22.002  0.00  0.00    +0.000 C 
ATOM      3  C   UNL     1       1.401   8.173  20.817  0.00  0.00    +0.000 C 
ATOM      4  N   UNL     1       1.686   8.752  19.505  0.00  0.00    +0.000 N 
ATOM      5  C   UNL     1       2.224   8.054  18.395  0.00  0.00    +0.000 C 
ATOM      6  O   UNL     1       2.382   8.586  17.301  0.00  0.00    +0.000 OA
ATOM      7  C   UNL     1       1.001  10.023  19.253  0.00  0.00    +0.000 C 
ATOM      8  C   UNL     1       1.060  10.994  20.454  0.00  0.00    +0.000 C 
ENDROOT
BRANCH   5   9
ATOM      9  C   UNL     1       2.623   6.610  18.534  0.00  0.00    +0.000 A 
ATOM     10  C   UNL     1       1.813   5.578  18.044  0.00  0.00    +0.000 A 
ATOM     11  C   UNL     1       2.132   4.238  18.260  0.00  0.00    +0.000 A 
ATOM     12  C   UNL     1       3.344   3.910  18.869  0.00  0.00    +0.000 A 
ATOM     13  C   UNL     1       4.228   4.924  19.266  0.00  0.00    +0.000 A 
ATOM     14  C   UNL     1       3.859   6.274  19.109  0.00  0.00    +0.000 A 
BRANCH  12  15
ATOM     15  N   UNL     1       3.687   2.494  19.056  0.00  0.00    +0.000 N 
ATOM     16  O   UNL     1       3.470   1.723  18.109  0.00  0.00    +0.000 OA
ATOM     17  O   UNL     1       4.172   2.156  20.143  0.00  0.00    +0.000 OA
ENDBRANCH  12  15
ENDBRANCH   5   9
BRANCH   1  18
ATOM     18  C   UNL     1      -0.727  10.462  22.058  0.00  0.00    +0.000 C 
BRANCH  18  22
ATOM     19  C   UNL     1      -2.782  14.305  22.073  0.00  0.00    +0.000 A 
ATOM     20  C   UNL     1      -2.910  13.452  20.975  0.00  0.00    +0.000 A 
ATOM     21  C   UNL     1      -2.226  12.224  20.946  0.00  0.00    +0.000 A 
ATOM     22  C   UNL     1      -1.389  11.836  22.005  0.00  0.00    +0.000 A 
ATOM     23  C   UNL     1      -1.244  12.717  23.086  0.00  0.00    +0.000 A 
ATOM     24  C   UNL     1      -1.934  13.937  23.120  0.00  0.00    +0.000 A 
BRANCH  19  26
ATOM     25  C   UNL     1      -2.253  16.966  22.662  0.00  0.00    +0.000 C 
ATOM     26  S   UNL     1      -3.621  15.880  22.169  0.00  0.00    +0.000 S 
ENDBRANCH  19  26
ENDBRANCH  18  22
ENDBRANCH   1  18
TORSDOF 5
ENDMDL
MODEL 8
REMARK VINA RESULT:      -6.7      3.269      5.111
REMARK  Name = 
REMARK  6 active torsions:
REMARK  status: ('A' for Active; 'I' for Inactive)
REMARK    1  A    between atoms: C_1  and  S_2
REMARK    2  A    between atoms: S_2  and  C_3
REMARK    3  A    between atoms: C_6  and  C_7
REMARK    4  A    between atoms: C_7  and  N_8
REMARK    5  A    between atoms: C_12  and  C_14
REMARK    6  A    between atoms: C_17  and  N_18
REMARK                            x       y       z     vdW  Elec       q    Type
REMARK                         _______ _______ _______ _____ _____    ______ ____
ROOT
ATOM      1  N   UNL     1       0.549  10.614  22.002  0.00  0.00    +0.000 NA
ATOM      2  C   UNL     1       1.306   9.384  22.265  0.00  0.00    +0.000 C 
ATOM      3  C   UNL     1       1.357   8.329  21.146  0.00  0.00    +0.000 C 
ATOM      4  N   UNL     1       1.527   8.835  19.785  0.00  0.00    +0.000 N 
ATOM      5  C   UNL     1       2.057   8.103  18.693  0.00  0.00    +0.000 C 
ATOM      6  O   UNL     1       2.115   8.568  17.559  0.00  0.00    +0.000 OA
ATOM      7  C   UNL     1       0.733  10.032  19.491  0.00  0.00    +0.000 C 
ATOM      8  C   UNL     1       0.781  11.086  20.621  0.00  0.00    +0.000 C 
ENDROOT
BRANCH   5   9
ATOM      9  C   UNL     1       2.572   6.706  18.903  0.00  0.00    +0.000 A 
ATOM     10  C   UNL     1       3.578   6.169  18.090  0.00  0.00    +0.000 A 
ATOM     11  C   UNL     1       3.986   4.842  18.218  0.00  0.00    +0.000 A 
ATOM     12  C   UNL     1       3.474   4.063  19.256  0.00  0.00    +0.000 A 
ATOM     13  C   UNL     1       2.550   4.613  20.158  0.00  0.00    +0.000 A 
ATOM     14  C   UNL     1       2.092   5.931  19.971  0.00  0.00    +0.000 A 
BRANCH  12  15
ATOM     15  N   UNL     1       3.941   2.679  19.406  0.00  0.00    +0.000 N 
ATOM     16  O   UNL     1       4.919   2.481  20.143  0.00  0.00    +0.000 OA
ATOM     17  O   UNL     1       3.333   1.794  18.792  0.00  0.00    +0.000 OA
ENDBRANCH  12  15
ENDBRANCH   5   9
BRANCH   1  18
ATOM     18  C   UNL     1      -0.872  10.537  22.358  0.00  0.00    +0.000 C 
BRANCH  18  22
ATOM     19  C   UNL     1      -2.507  14.258  23.930  0.00  0.00    +0.000 A 
ATOM     20  C   UNL     1      -3.297  13.107  23.905  0.00  0.00    +0.000 A 
ATOM     21  C   UNL     1      -2.791  11.909  23.370  0.00  0.00    +0.000 A 
ATOM     22  C   UNL     1      -1.493  11.846  22.835  0.00  0.00    +0.000 A 
ATOM     23  C   UNL     1      -0.723  13.018  22.838  0.00  0.00    +0.000 A 
ATOM     24  C   UNL     1      -1.225  14.210  23.380  0.00  0.00    +0.000 A 
BRANCH  19  26
ATOM     25  C   UNL     1      -4.845  15.743  24.122  0.00  0.00    +0.000 C 
ATOM     26  S   UNL     1      -3.093  15.811  24.591  0.00  0.00    +0.000 S 
ENDBRANCH  19  26
ENDBRANCH  18  22
ENDBRANCH   1  18
TORSDOF 5
ENDMDL
MODEL 9
REMARK VINA RESULT:      -6.7      3.253      4.689
REMARK  Name = 
REMARK  6 active torsions:
REMARK  status: ('A' for Active; 'I' for Inactive)
REMARK    1  A    between atoms: C_1  and  S_2
REMARK    2  A    between atoms: S_2  and  C_3
REMARK    3  A    between atoms: C_6  and  C_7
REMARK    4  A    between atoms: C_7  and  N_8
REMARK    5  A    between atoms: C_12  and  C_14
REMARK    6  A    between atoms: C_17  and  N_18
REMARK                            x       y       z     vdW  Elec       q    Type
REMARK                         _______ _______ _______ _____ _____    ______ ____
ROOT
ATOM      1  N   UNL     1       0.754  10.339  20.980  0.00  0.00    +0.000 NA
ATOM      2  C   UNL     1       1.382   9.071  21.370  0.00  0.00    +0.000 C 
ATOM      3  C   UNL     1       1.549   7.996  20.283  0.00  0.00    +0.000 C 
ATOM      4  N   UNL     1       1.966   8.468  18.963  0.00  0.00    +0.000 N 
ATOM      5  C   UNL     1       2.620   7.687  17.977  0.00  0.00    +0.000 C 
ATOM      6  O   UNL     1       2.888   8.129  16.864  0.00  0.00    +0.000 OA
ATOM      7  C   UNL     1       1.305   9.704  18.536  0.00  0.00    +0.000 C 
ATOM      8  C   UNL     1       1.235  10.772  19.651  0.00  0.00    +0.000 C 
ENDROOT
BRANCH   5   9
ATOM      9  C   UNL     1       3.008   6.265  18.277  0.00  0.00    +0.000 A 
ATOM     10  C   UNL     1       2.134   5.201  18.026  0.00  0.00    +0.000 A 
ATOM     11  C   UNL     1       2.453   3.894  18.396  0.00  0.00    +0.000 A 
ATOM     12  C   UNL     1       3.718   3.617  18.915  0.00  0.00    +0.000 A 
ATOM     13  C   UNL     1       4.656   4.649  19.069  0.00  0.00    +0.000 A 
ATOM     14  C   UNL     1       4.294   5.974  18.761  0.00  0.00    +0.000 A 
BRANCH  12  15
ATOM     15  N   UNL     1       4.057   2.232  19.264  0.00  0.00    +0.000 N 
ATOM     16  O   UNL     1       4.863   2.056  20.190  0.00  0.00    +0.000 OA
ATOM     17  O   UNL     1       3.520   1.324  18.616  0.00  0.00    +0.000 OA
ENDBRANCH  12  15
ENDBRANCH   5   9
BRANCH   1  18
ATOM     18  C   UNL     1      -0.708  10.352  21.101  0.00  0.00    +0.000 C 
BRANCH  18  22
ATOM     19  C   UNL     1      -2.254  14.209  22.414  0.00  0.00    +0.000 A 
ATOM     20  C   UNL     1      -1.436  13.462  23.263  0.00  0.00    +0.000 A 
ATOM     21  C   UNL     1      -0.958  12.202  22.863  0.00  0.00    +0.000 A 
ATOM     22  C   UNL     1      -1.304  11.659  21.614  0.00  0.00    +0.000 A 
ATOM     23  C   UNL     1      -2.153  12.406  20.784  0.00  0.00    +0.000 A 
ATOM     24  C   UNL     1      -2.622  13.667  21.181  0.00  0.00    +0.000 A 
BRANCH  19  26
ATOM     25  C   UNL     1      -4.578  15.372  23.391  0.00  0.00    +0.000 C 
ATOM     26  S   UNL     1      -2.898  15.813  22.866  0.00  0.00    +0.000 S 
ENDBRANCH  19  26
ENDBRANCH  18  22
ENDBRANCH   1  18
TORSDOF 5
ENDMDL
