MODEL 1
REMARK VINA RESULT:      -7.0      0.000      0.000
REMARK  Name = 
REMARK  8 active torsions:
REMARK  status: ('A' for Active; 'I' for Inactive)
REMARK    1  A    between atoms: C_1  and  O_2
REMARK    2  A    between atoms: O_2  and  C_3
REMARK    3  A    between atoms: C_9  and  C_10
REMARK    4  A    between atoms: C_10  and  N_11
REMARK    5  A    between atoms: N_14  and  C_15
REMARK    6  A    between atoms: C_15  and  C_16
REMARK    7  A    between atoms: N_20  and  C_21
REMARK    8  A    between atoms: C_22  and  C_23
REMARK                            x       y       z     vdW  Elec       q    Type
REMARK                         _______ _______ _______ _____ _____    ______ ____
ROOT
ATOM      1  N   UNL     1       5.812   4.429  19.042  0.00  0.00    +0.000 NA
ATOM      2  C   UNL     1       5.494   3.680  17.805  0.00  0.00    +0.000 C 
ATOM      3  C   UNL     1       5.176   4.546  16.559  0.00  0.00    +0.000 C 
ATOM      4  N   UNL     1       6.142   5.640  16.254  0.00  0.00    +0.000 NA
ATOM      5  C   UNL     1       6.436   6.370  17.512  0.00  0.00    +0.000 C 
ATOM      6  C   UNL     1       7.335   7.608  17.386  0.00  0.00    +0.000 C 
ATOM      7  C   UNL     1       6.851   5.439  18.697  0.00  0.00    +0.000 C 
ENDROOT
BRANCH   1   8
ATOM      8  C   UNL     1       4.638   5.124  19.629  0.00  0.00    +0.000 C 
BRANCH   8  15
ATOM      9  C   UNL     1       2.238   4.640  18.871  0.00  0.00    +0.000 A 
ATOM     10  C   UNL     1       0.992   4.044  19.106  0.00  0.00    +0.000 A 
ATOM     11  C   UNL     1       0.811   3.167  20.174  0.00  0.00    +0.000 A 
ATOM     12  C   UNL     1       1.881   2.894  21.009  0.00  0.00    +0.000 A 
ATOM     13  F   UNL     1       1.706   2.084  22.061  0.00  0.00    +0.000 F 
ATOM     14  C   UNL     1       3.123   3.484  20.803  0.00  0.00    +0.000 A 
ATOM     15  C   UNL     1       3.332   4.364  19.723  0.00  0.00    +0.000 A 
BRANCH   9  17
ATOM     16  C   UNL     1       2.369   6.951  18.324  0.00  0.00    +0.000 C 
ATOM     17  O   UNL     1       2.214   5.603  17.893  0.00  0.00    +0.000 OA
ENDBRANCH   9  17
ENDBRANCH   8  15
ENDBRANCH   1   8
BRANCH   4  18
ATOM     18  C   UNL     1       7.335   5.108  15.563  0.00  0.00    +0.000 C 
BRANCH  18  19
ATOM     19  C   UNL     1       6.998   4.518  14.214  0.00  0.00    +0.000 A 
ATOM     20  N   UNL     1       6.084   3.587  14.003  0.00  0.00    +0.000 NA
ATOM     21  C   UNL     1       6.004   3.440  12.646  0.00  0.00    +0.000 A 
ATOM     22  C   UNL     1       6.885   4.274  12.005  0.00  0.00    +0.000 A 
ATOM     23  N   UNL     1       7.547   4.930  13.018  0.00  0.00    +0.000 N 
ATOM     24  C   UNL     1       8.611   5.880  12.826  0.00  0.00    +0.000 C 
ENDBRANCH  18  19
ENDBRANCH   4  18
TORSDOF 5
ENDMDL
MODEL 2
REMARK VINA RESULT:      -6.8      6.610     10.047
REMARK  Name = 
REMARK  8 active torsions:
REMARK  status: ('A' for Active; 'I' for Inactive)
REMARK    1  A    between atoms: C_1  and  O_2
REMARK    2  A    between atoms: O_2  and  C_3
REMARK    3  A    between atoms: C_9  and  C_10
REMARK    4  A    between atoms: C_10  and  N_11
REMARK    5  A    between atoms: N_14  and  C_15
REMARK    6  A    between atoms: C_15  and  C_16
REMARK    7  A    between atoms: N_20  and  C_21
REMARK    8  A    between atoms: C_22  and  C_23
REMARK                            x       y       z     vdW  Elec       q    Type
REMARK                         _______ _______ _______ _____ _____    ______ ____
ROOT
ATOM      1  N   UNL     1       0.279   8.580  20.468  0.00  0.00    +0.000 NA
ATOM      2  C   UNL     1      -0.455   8.640  21.752  0.00  0.00    +0.000 C 
ATOM      3  C   UNL     1       0.003   9.748  22.735  0.00  0.00    +0.000 C 
ATOM      4  N   UNL     1       0.138  11.119  22.165  0.00  0.00    +0.000 NA
ATOM      5  C   UNL     1       0.879  11.022  20.882  0.00  0.00    +0.000 C 
ATOM      6  C   UNL     1       1.216  12.349  20.189  0.00  0.00    +0.000 C 
ATOM      7  C   UNL     1       0.297   9.956  19.899  0.00  0.00    +0.000 C 
ENDROOT
BRANCH   1   8
ATOM      8  C   UNL     1       1.676   8.097  20.610  0.00  0.00    +0.000 C 
BRANCH   8  15
ATOM      9  C   UNL     1       2.701   6.431  18.953  0.00  0.00    +0.000 A 
ATOM     10  C   UNL     1       2.819   5.121  18.472  0.00  0.00    +0.000 A 
ATOM     11  C   UNL     1       2.253   4.053  19.166  0.00  0.00    +0.000 A 
ATOM     12  C   UNL     1       1.562   4.303  20.339  0.00  0.00    +0.000 A 
ATOM     13  F   UNL     1       0.980   3.288  20.992  0.00  0.00    +0.000 F 
ATOM     14  C   UNL     1       1.421   5.597  20.829  0.00  0.00    +0.000 A 
ATOM     15  C   UNL     1       1.995   6.690  20.151  0.00  0.00    +0.000 A 
BRANCH   9  17
ATOM     16  C   UNL     1       4.284   7.025  17.281  0.00  0.00    +0.000 C 
ATOM     17  O   UNL     1       3.161   7.384  18.078  0.00  0.00    +0.000 OA
ENDBRANCH   9  17
ENDBRANCH   8  15
ENDBRANCH   1   8
BRANCH   4  18
ATOM     18  C   UNL     1      -1.181  11.777  22.060  0.00  0.00    +0.000 C 
BRANCH  18  19
ATOM     19  C   UNL     1      -1.287  12.991  22.952  0.00  0.00    +0.000 A 
ATOM     20  N   UNL     1      -0.345  13.905  23.098  0.00  0.00    +0.000 NA
ATOM     21  C   UNL     1      -0.893  14.888  23.875  0.00  0.00    +0.000 A 
ATOM     22  C   UNL     1      -2.182  14.577  24.229  0.00  0.00    +0.000 A 
ATOM     23  N   UNL     1      -2.411  13.341  23.669  0.00  0.00    +0.000 N 
ATOM     24  C   UNL     1      -3.626  12.583  23.817  0.00  0.00    +0.000 C 
ENDBRANCH  18  19
ENDBRANCH   4  18
TORSDOF 5
ENDMDL
MODEL 3
REMARK VINA RESULT:      -6.7      3.175      7.467
REMARK  Name = 
REMARK  8 active torsions:
REMARK  status: ('A' for Active; 'I' for Inactive)
REMARK    1  A    between atoms: C_1  and  O_2
REMARK    2  A    between atoms: O_2  and  C_3
REMARK    3  A    between atoms: C_9  and  C_10
REMARK    4  A    between atoms: C_10  and  N_11
REMARK    5  A    between atoms: N_14  and  C_15
REMARK    6  A    between atoms: C_15  and  C_16
REMARK    7  A    between atoms: N_20  and  C_21
REMARK    8  A    between atoms: C_22  and  C_23
REMARK                            x       y       z     vdW  Elec       q    Type
REMARK                         _______ _______ _______ _____ _____    ______ ____
ROOT
ATOM      1  N   UNL     1       6.028   5.250  16.340  0.00  0.00    +0.000 NA
ATOM      2  C   UNL     1       5.807   6.352  17.305  0.00  0.00    +0.000 C 
ATOM      3  C   UNL     1       4.335   6.587  17.727  0.00  0.00    +0.000 C 
ATOM      4  N   UNL     1       3.570   5.380  18.153  0.00  0.00    +0.000 NA
ATOM      5  C   UNL     1       3.812   4.299  17.165  0.00  0.00    +0.000 C 
ATOM      6  C   UNL     1       3.022   3.000  17.370  0.00  0.00    +0.000 C 
ATOM      7  C   UNL     1       5.326   4.048  16.866  0.00  0.00    +0.000 C 
ENDROOT
BRANCH   1   8
ATOM      8  C   UNL     1       5.521   5.550  14.977  0.00  0.00    +0.000 C 
BRANCH   8  15
ATOM      9  C   UNL     1       7.224   4.650  13.287  0.00  0.00    +0.000 A 
ATOM     10  C   UNL     1       7.505   3.915  12.128  0.00  0.00    +0.000 A 
ATOM     11  C   UNL     1       6.517   3.149  11.512  0.00  0.00    +0.000 A 
ATOM     12  C   UNL     1       5.244   3.127  12.056  0.00  0.00    +0.000 A 
ATOM     13  F   UNL     1       4.278   2.427  11.449  0.00  0.00    +0.000 F 
ATOM     14  C   UNL     1       4.939   3.859  13.199  0.00  0.00    +0.000 A 
ATOM     15  C   UNL     1       5.925   4.630  13.845  0.00  0.00    +0.000 A 
BRANCH   9  17
ATOM     16  C   UNL     1       8.931   6.173  12.636  0.00  0.00    +0.000 C 
ATOM     17  O   UNL     1       8.245   5.481  13.675  0.00  0.00    +0.000 OA
ENDBRANCH   9  17
ENDBRANCH   8  15
ENDBRANCH   1   8
BRANCH   4  18
ATOM     18  C   UNL     1       3.897   5.017  19.547  0.00  0.00    +0.000 C 
BRANCH  18  19
ATOM     19  C   UNL     1       2.811   4.189  20.192  0.00  0.00    +0.000 A 
ATOM     20  N   UNL     1       1.549   4.562  20.316  0.00  0.00    +0.000 NA
ATOM     21  C   UNL     1       0.886   3.478  20.823  0.00  0.00    +0.000 A 
ATOM     22  C   UNL     1       1.743   2.427  21.032  0.00  0.00    +0.000 A 
ATOM     23  N   UNL     1       2.980   2.904  20.665  0.00  0.00    +0.000 N 
ATOM     24  C   UNL     1       4.210   2.163  20.761  0.00  0.00    +0.000 C 
ENDBRANCH  18  19
ENDBRANCH   4  18
TORSDOF 5
ENDMDL
MODEL 4
REMARK VINA RESULT:      -6.7      6.782     10.323
REMARK  Name = 
REMARK  8 active torsions:
REMARK  status: ('A' for Active; 'I' for Inactive)
REMARK    1  A    between atoms: C_1  and  O_2
REMARK    2  A    between atoms: O_2  and  C_3
REMARK    3  A    between atoms: C_9  and  C_10
REMARK    4  A    between atoms: C_10  and  N_11
REMARK    5  A    between atoms: N_14  and  C_15
REMARK    6  A    between atoms: C_15  and  C_16
REMARK    7  A    between atoms: N_20  and  C_21
REMARK    8  A    between atoms: C_22  and  C_23
REMARK                            x       y       z     vdW  Elec       q    Type
REMARK                         _______ _______ _______ _____ _____    ______ ____
ROOT
ATOM      1  N   UNL     1       0.292   8.509  20.513  0.00  0.00    +0.000 NA
ATOM      2  C   UNL     1      -0.385   8.531  21.830  0.00  0.00    +0.000 C 
ATOM      3  C   UNL     1       0.066   9.655  22.797  0.00  0.00    +0.000 C 
ATOM      4  N   UNL     1       0.112  11.032  22.230  0.00  0.00    +0.000 NA
ATOM      5  C   UNL     1       0.797  10.976  20.914  0.00  0.00    +0.000 C 
ATOM      6  C   UNL     1       1.040  12.319  20.214  0.00  0.00    +0.000 C 
ATOM      7  C   UNL     1       0.220   9.887  19.952  0.00  0.00    +0.000 C 
ENDROOT
BRANCH   1   8
ATOM      8  C   UNL     1       1.715   8.091  20.588  0.00  0.00    +0.000 C 
BRANCH   8  15
ATOM      9  C   UNL     1       2.097   5.702  19.744  0.00  0.00    +0.000 A 
ATOM     10  C   UNL     1       2.736   4.816  18.866  0.00  0.00    +0.000 A 
ATOM     11  C   UNL     1       3.498   5.294  17.801  0.00  0.00    +0.000 A 
ATOM     12  C   UNL     1       3.623   6.661  17.622  0.00  0.00    +0.000 A 
ATOM     13  F   UNL     1       4.386   7.130  16.627  0.00  0.00    +0.000 F 
ATOM     14  C   UNL     1       3.007   7.559  18.489  0.00  0.00    +0.000 A 
ATOM     15  C   UNL     1       2.223   7.098  19.564  0.00  0.00    +0.000 A 
BRANCH   9  17
ATOM     16  C   UNL     1       2.273   4.024  21.421  0.00  0.00    +0.000 C 
ATOM     17  O   UNL     1       1.530   5.087  20.832  0.00  0.00    +0.000 OA
ENDBRANCH   9  17
ENDBRANCH   8  15
ENDBRANCH   1   8
BRANCH   4  18
ATOM     18  C   UNL     1      -1.240  11.628  22.189  0.00  0.00    +0.000 C 
BRANCH  18  19
ATOM     19  C   UNL     1      -1.344  12.866  23.048  0.00  0.00    +0.000 A 
ATOM     20  N   UNL     1      -0.379  13.752  23.218  0.00  0.00    +0.000 NA
ATOM     21  C   UNL     1      -0.929  14.771  23.947  0.00  0.00    +0.000 A 
ATOM     22  C   UNL     1      -2.242  14.512  24.247  0.00  0.00    +0.000 A 
ATOM     23  N   UNL     1      -2.488  13.271  23.704  0.00  0.00    +0.000 N 
ATOM     24  C   UNL     1      -3.733  12.558  23.812  0.00  0.00    +0.000 C 
ENDBRANCH  18  19
ENDBRANCH   4  18
TORSDOF 5
ENDMDL
MODEL 5
REMARK VINA RESULT:      -6.7      3.102      4.623
REMARK  Name = 
REMARK  8 active torsions:
REMARK  status: ('A' for Active; 'I' for Inactive)
REMARK    1  A    between atoms: C_1  and  O_2
REMARK    2  A    between atoms: O_2  and  C_3
REMARK    3  A    between atoms: C_9  and  C_10
REMARK    4  A    between atoms: C_10  and  N_11
REMARK    5  A    between atoms: N_14  and  C_15
REMARK    6  A    between atoms: C_15  and  C_16
REMARK    7  A    between atoms: N_20  and  C_21
REMARK    8  A    between atoms: C_22  and  C_23
REMARK                            x       y       z     vdW  Elec       q    Type
REMARK                         _______ _______ _______ _____ _____    ______ ____
ROOT
ATOM      1  N   UNL     1       2.169   6.401  18.773  0.00  0.00    +0.000 NA
ATOM      2  C   UNL     1       3.171   6.656  17.713  0.00  0.00    +0.000 C 
ATOM      3  C   UNL     1       4.607   6.154  18.013  0.00  0.00    +0.000 C 
ATOM      4  N   UNL     1       4.725   4.748  18.494  0.00  0.00    +0.000 NA
ATOM      5  C   UNL     1       3.710   4.527  19.554  0.00  0.00    +0.000 C 
ATOM      6  C   UNL     1       3.743   3.162  20.254  0.00  0.00    +0.000 C 
ATOM      7  C   UNL     1       2.266   4.961  19.142  0.00  0.00    +0.000 C 
ENDROOT
BRANCH   1   8
ATOM      8  C   UNL     1       2.373   7.227  19.990  0.00  0.00    +0.000 C 
BRANCH   8  15
ATOM      9  C   UNL     1       1.085   9.379  19.463  0.00  0.00    +0.000 A 
ATOM     10  C   UNL     1       0.256  10.426  19.884  0.00  0.00    +0.000 A 
ATOM     11  C   UNL     1      -0.337  10.403  21.145  0.00  0.00    +0.000 A 
ATOM     12  C   UNL     1      -0.090   9.331  21.986  0.00  0.00    +0.000 A 
ATOM     13  F   UNL     1      -0.622   9.320  23.214  0.00  0.00    +0.000 F 
ATOM     14  C   UNL     1       0.740   8.286  21.593  0.00  0.00    +0.000 A 
ATOM     15  C   UNL     1       1.340   8.283  20.319  0.00  0.00    +0.000 A 
BRANCH   9  17
ATOM     16  C   UNL     1       2.125  10.971  18.034  0.00  0.00    +0.000 C 
ATOM     17  O   UNL     1       1.725   9.626  18.274  0.00  0.00    +0.000 OA
ENDBRANCH   9  17
ENDBRANCH   8  15
ENDBRANCH   1   8
BRANCH   4  18
ATOM     18  C   UNL     1       4.644   3.799  17.363  0.00  0.00    +0.000 C 
BRANCH  18  19
ATOM     19  C   UNL     1       5.573   4.176  16.233  0.00  0.00    +0.000 A 
ATOM     20  N   UNL     1       5.208   4.321  14.972  0.00  0.00    +0.000 NA
ATOM     21  C   UNL     1       6.311   4.794  14.315  0.00  0.00    +0.000 A 
ATOM     22  C   UNL     1       7.375   4.930  15.169  0.00  0.00    +0.000 A 
ATOM     23  N   UNL     1       6.907   4.492  16.387  0.00  0.00    +0.000 N 
ATOM     24  C   UNL     1       7.693   4.404  17.589  0.00  0.00    +0.000 C 
ENDBRANCH  18  19
ENDBRANCH   4  18
TORSDOF 5
ENDMDL
MODEL 6
REMARK VINA RESULT:      -6.7      3.616      7.419
REMARK  Name = 
REMARK  8 active torsions:
REMARK  status: ('A' for Active; 'I' for Inactive)
REMARK    1  A    between atoms: C_1  and  O_2
REMARK    2  A    between atoms: O_2  and  C_3
REMARK    3  A    between atoms: C_9  and  C_10
REMARK    4  A    between atoms: C_10  and  N_11
REMARK    5  A    between atoms: N_14  and  C_15
REMARK    6  A    between atoms: C_15  and  C_16
REMARK    7  A    between atoms: N_20  and  C_21
REMARK    8  A    between atoms: C_22  and  C_23
REMARK                            x       y       z     vdW  Elec       q    Type
REMARK                         _______ _______ _______ _____ _____    ______ ____
ROOT
ATOM      1  N   UNL     1       4.524   4.557  19.409  0.00  0.00    +0.000 NA
ATOM      2  C   UNL     1       4.471   5.998  19.070  0.00  0.00    +0.000 C 
ATOM      3  C   UNL     1       3.105   6.515  18.551  0.00  0.00    +0.000 C 
ATOM      4  N   UNL     1       1.910   6.141  19.361  0.00  0.00    +0.000 NA
ATOM      5  C   UNL     1       1.993   4.695  19.681  0.00  0.00    +0.000 C 
ATOM      6  C   UNL     1       0.793   4.092  20.423  0.00  0.00    +0.000 C 
ATOM      7  C   UNL     1       3.364   4.265  20.297  0.00  0.00    +0.000 C 
ENDROOT
BRANCH   1   8
ATOM      8  C   UNL     1       4.460   3.668  18.221  0.00  0.00    +0.000 C 
BRANCH   8  15
ATOM      9  C   UNL     1       6.742   4.330  17.259  0.00  0.00    +0.000 A 
ATOM     10  C   UNL     1       7.519   4.760  16.177  0.00  0.00    +0.000 A 
ATOM     11  C   UNL     1       6.982   4.820  14.892  0.00  0.00    +0.000 A 
ATOM     12  C   UNL     1       5.661   4.453  14.697  0.00  0.00    +0.000 A 
ATOM     13  F   UNL     1       5.124   4.545  13.474  0.00  0.00    +0.000 F 
ATOM     14  C   UNL     1       4.867   4.034  15.759  0.00  0.00    +0.000 A 
ATOM     15  C   UNL     1       5.392   3.955  17.064  0.00  0.00    +0.000 A 
BRANCH   9  17
ATOM     16  C   UNL     1       7.903   5.773  18.751  0.00  0.00    +0.000 C 
ATOM     17  O   UNL     1       7.356   4.487  18.477  0.00  0.00    +0.000 OA
ENDBRANCH   9  17
ENDBRANCH   8  15
ENDBRANCH   1   8
BRANCH   4  18
ATOM     18  C   UNL     1       1.780   7.022  20.541  0.00  0.00    +0.000 C 
BRANCH  18  19
ATOM     19  C   UNL     1       1.421   8.439  20.160  0.00  0.00    +0.000 A 
ATOM     20  N   UNL     1       1.459   8.924  18.932  0.00  0.00    +0.000 NA
ATOM     21  C   UNL     1       0.933  10.184  19.010  0.00  0.00    +0.000 A 
ATOM     22  C   UNL     1       0.579  10.493  20.298  0.00  0.00    +0.000 A 
ATOM     23  N   UNL     1       0.934   9.387  21.035  0.00  0.00    +0.000 N 
ATOM     24  C   UNL     1       0.796   9.270  22.463  0.00  0.00    +0.000 C 
ENDBRANCH  18  19
ENDBRANCH   4  18
TORSDOF 5
ENDMDL
MODEL 7
REMARK VINA RESULT:      -6.6      4.864      7.765
REMARK  Name = 
REMARK  8 active torsions:
REMARK  status: ('A' for Active; 'I' for Inactive)
REMARK    1  A    between atoms: C_1  and  O_2
REMARK    2  A    between atoms: O_2  and  C_3
REMARK    3  A    between atoms: C_9  and  C_10
REMARK    4  A    between atoms: C_10  and  N_11
REMARK    5  A    between atoms: N_14  and  C_15
REMARK    6  A    between atoms: C_15  and  C_16
REMARK    7  A    between atoms: N_20  and  C_21
REMARK    8  A    between atoms: C_22  and  C_23
REMARK                            x       y       z     vdW  Elec       q    Type
REMARK                         _______ _______ _______ _____ _____    ______ ____
ROOT
ATOM      1  N   UNL     1       2.491   7.593  18.765  0.00  0.00    +0.000 NA
ATOM      2  C   UNL     1       2.418   8.852  17.988  0.00  0.00    +0.000 C 
ATOM      3  C   UNL     1       1.062   9.600  18.050  0.00  0.00    +0.000 C 
ATOM      4  N   UNL     1       0.488   9.811  19.410  0.00  0.00    +0.000 NA
ATOM      5  C   UNL     1       0.575   8.533  20.159  0.00  0.00    +0.000 C 
ATOM      6  C   UNL     1      -0.066   8.516  21.554  0.00  0.00    +0.000 C 
ATOM      7  C   UNL     1       1.999   7.889  20.139  0.00  0.00    +0.000 C 
ENDROOT
BRANCH   1   8
ATOM      8  C   UNL     1       1.678   6.494  18.186  0.00  0.00    +0.000 C 
BRANCH   8  15
ATOM      9  C   UNL     1       3.509   4.821  17.540  0.00  0.00    +0.000 A 
ATOM     10  C   UNL     1       3.937   3.497  17.383  0.00  0.00    +0.000 A 
ATOM     11  C   UNL     1       3.157   2.437  17.843  0.00  0.00    +0.000 A 
ATOM     12  C   UNL     1       1.945   2.708  18.455  0.00  0.00    +0.000 A 
ATOM     13  F   UNL     1       1.170   1.695  18.864  0.00  0.00    +0.000 F 
ATOM     14  C   UNL     1       1.495   4.015  18.610  0.00  0.00    +0.000 A 
ATOM     15  C   UNL     1       2.271   5.102  18.163  0.00  0.00    +0.000 A 
BRANCH   9  17
ATOM     16  C   UNL     1       5.297   5.211  16.021  0.00  0.00    +0.000 C 
ATOM     17  O   UNL     1       4.298   5.736  16.889  0.00  0.00    +0.000 OA
ENDBRANCH   9  17
ENDBRANCH   8  15
ENDBRANCH   1   8
BRANCH   4  18
ATOM     18  C   UNL     1       1.136  10.958  20.080  0.00  0.00    +0.000 C 
BRANCH  18  19
ATOM     19  C   UNL     1       0.550  12.280  19.644  0.00  0.00    +0.000 A 
ATOM     20  N   UNL     1      -0.634  12.740  20.009  0.00  0.00    +0.000 NA
ATOM     21  C   UNL     1      -0.713  14.011  19.510  0.00  0.00    +0.000 A 
ATOM     22  C   UNL     1       0.423  14.341  18.816  0.00  0.00    +0.000 A 
ATOM     23  N   UNL     1       1.209  13.213  18.871  0.00  0.00    +0.000 N 
ATOM     24  C   UNL     1       2.490  13.070  18.231  0.00  0.00    +0.000 C 
ENDBRANCH  18  19
ENDBRANCH   4  18
TORSDOF 5
ENDMDL
MODEL 8
REMARK VINA RESULT:      -6.5      3.681      7.293
REMARK  Name = 
REMARK  8 active torsions:
REMARK  status: ('A' for Active; 'I' for Inactive)
REMARK    1  A    between atoms: C_1  and  O_2
REMARK    2  A    between atoms: O_2  and  C_3
REMARK    3  A    between atoms: C_9  and  C_10
REMARK    4  A    between atoms: C_10  and  N_11
REMARK    5  A    between atoms: N_14  and  C_15
REMARK    6  A    between atoms: C_15  and  C_16
REMARK    7  A    between atoms: N_20  and  C_21
REMARK    8  A    between atoms: C_22  and  C_23
REMARK                            x       y       z     vdW  Elec       q    Type
REMARK                         _______ _______ _______ _____ _____    ______ ____
ROOT
ATOM      1  N   UNL     1       2.859   3.935  18.519  0.00  0.00    +0.000 NA
ATOM      2  C   UNL     1       2.160   4.089  19.815  0.00  0.00    +0.000 C 
ATOM      3  C   UNL     1       2.563   5.331  20.650  0.00  0.00    +0.000 C 
ATOM      4  N   UNL     1       2.580   6.634  19.926  0.00  0.00    +0.000 NA
ATOM      5  C   UNL     1       3.287   6.445  18.635  0.00  0.00    +0.000 C 
ATOM      6  C   UNL     1       3.504   7.704  17.785  0.00  0.00    +0.000 C 
ATOM      7  C   UNL     1       2.757   5.234  17.799  0.00  0.00    +0.000 C 
ENDROOT
BRANCH   1   8
ATOM      8  C   UNL     1       4.291   3.570  18.660  0.00  0.00    +0.000 C 
BRANCH   8  15
ATOM      9  C   UNL     1       6.495   4.506  17.746  0.00  0.00    +0.000 A 
ATOM     10  C   UNL     1       7.256   4.971  16.666  0.00  0.00    +0.000 A 
ATOM     11  C   UNL     1       6.787   4.850  15.359  0.00  0.00    +0.000 A 
ATOM     12  C   UNL     1       5.551   4.268  15.138  0.00  0.00    +0.000 A 
ATOM     13  F   UNL     1       5.074   4.184  13.890  0.00  0.00    +0.000 F 
ATOM     14  C   UNL     1       4.772   3.811  16.197  0.00  0.00    +0.000 A 
ATOM     15  C   UNL     1       5.231   3.912  17.524  0.00  0.00    +0.000 A 
BRANCH   9  17
ATOM     16  C   UNL     1       7.772   6.050  19.028  0.00  0.00    +0.000 C 
ATOM     17  O   UNL     1       7.010   4.848  18.971  0.00  0.00    +0.000 OA
ENDBRANCH   9  17
ENDBRANCH   8  15
ENDBRANCH   1   8
BRANCH   4  18
ATOM     18  C   UNL     1       1.212   7.181  19.798  0.00  0.00    +0.000 C 
BRANCH  18  19
ATOM     19  C   UNL     1       1.040   8.473  20.561  0.00  0.00    +0.000 A 
ATOM     20  N   UNL     1       1.126   8.594  21.873  0.00  0.00    +0.000 NA
ATOM     21  C   UNL     1       1.046   9.934  22.133  0.00  0.00    +0.000 A 
ATOM     22  C   UNL     1       0.893  10.654  20.976  0.00  0.00    +0.000 A 
ATOM     23  N   UNL     1       0.848   9.708  19.977  0.00  0.00    +0.000 N 
ATOM     24  C   UNL     1       0.646   9.994  18.581  0.00  0.00    +0.000 C 
ENDBRANCH  18  19
ENDBRANCH   4  18
TORSDOF 5
ENDMDL
MODEL 9
REMARK VINA RESULT:      -6.5      3.807      7.331
REMARK  Name = 
REMARK  8 active torsions:
REMARK  status: ('A' for Active; 'I' for Inactive)
REMARK    1  A    between atoms: C_1  and  O_2
REMARK    2  A    between atoms: O_2  and  C_3
REMARK    3  A    between atoms: C_9  and  C_10
REMARK    4  A    between atoms: C_10  and  N_11
REMARK    5  A    between atoms: N_14  and  C_15
REMARK    6  A    between atoms: C_15  and  C_16
REMARK    7  A    between atoms: N_20  and  C_21
REMARK    8  A    between atoms: C_22  and  C_23
REMARK                            x       y       z     vdW  Elec       q    Type
REMARK                         _______ _______ _______ _____ _____    ______ ____
ROOT
ATOM      1  N   UNL     1       2.475   4.323  18.749  0.00  0.00    +0.000 NA
ATOM      2  C   UNL     1       1.731   4.694  19.974  0.00  0.00    +0.000 C 
ATOM      3  C   UNL     1       2.205   5.991  20.679  0.00  0.00    +0.000 C 
ATOM      4  N   UNL     1       2.375   7.189  19.808  0.00  0.00    +0.000 NA
ATOM      5  C   UNL     1       3.125   6.783  18.593  0.00  0.00    +0.000 C 
ATOM      6  C   UNL     1       3.497   7.905  17.615  0.00  0.00    +0.000 C 
ATOM      7  C   UNL     1       2.528   5.528  17.876  0.00  0.00    +0.000 C 
ENDROOT
BRANCH   1   8
ATOM      8  C   UNL     1       3.860   3.859  19.018  0.00  0.00    +0.000 C 
BRANCH   8  15
ATOM      9  C   UNL     1       6.171   4.622  18.216  0.00  0.00    +0.000 A 
ATOM     10  C   UNL     1       7.038   4.958  17.168  0.00  0.00    +0.000 A 
ATOM     11  C   UNL     1       6.671   4.738  15.842  0.00  0.00    +0.000 A 
ATOM     12  C   UNL     1       5.430   4.187  15.568  0.00  0.00    +0.000 A 
ATOM     13  F   UNL     1       5.053   4.010  14.296  0.00  0.00    +0.000 F 
ATOM     14  C   UNL     1       4.549   3.858  16.593  0.00  0.00    +0.000 A 
ATOM     15  C   UNL     1       4.903   4.060  17.941  0.00  0.00    +0.000 A 
BRANCH   9  17
ATOM     16  C   UNL     1       7.851   5.733  19.482  0.00  0.00    +0.000 C 
ATOM     17  O   UNL     1       6.601   5.052  19.447  0.00  0.00    +0.000 OA
ENDBRANCH   9  17
ENDBRANCH   8  15
ENDBRANCH   1   8
BRANCH   4  18
ATOM     18  C   UNL     1       1.072   7.830  19.535  0.00  0.00    +0.000 C 
BRANCH  18  19
ATOM     19  C   UNL     1       1.090   9.311  19.829  0.00  0.00    +0.000 A 
ATOM     20  N   UNL     1       1.175  10.262  18.917  0.00  0.00    +0.000 NA
ATOM     21  C   UNL     1       1.022  11.443  19.590  0.00  0.00    +0.000 A 
ATOM     22  C   UNL     1       0.856  11.228  20.934  0.00  0.00    +0.000 A 
ATOM     23  N   UNL     1       0.943   9.863  21.085  0.00  0.00    +0.000 N 
ATOM     24  C   UNL     1       0.877   9.168  22.344  0.00  0.00    +0.000 C 
ENDBRANCH  18  19
ENDBRANCH   4  18
TORSDOF 5
ENDMDL
