MODEL 1
REMARK VINA RESULT:      -7.6      0.000      0.000
REMARK  Name = 
REMARK  3 active torsions:
REMARK  status: ('A' for Active; 'I' for Inactive)
REMARK    1  A    between atoms: C_2  and  C_3
REMARK    2  A    between atoms: C_14  and  C_15
REMARK    3  A    between atoms: C_16  and  C_17
REMARK                            x       y       z     vdW  Elec       q    Type
REMARK                         _______ _______ _______ _____ _____    ______ ____
ROOT
ATOM      1  O   UNL     1       4.182   1.940  17.188  0.00  0.00    +0.000 OA
ATOM      2  C   UNL     1       3.877   3.110  17.429  0.00  0.00    +0.000 C 
ATOM      3  N   UNL     1       4.699   4.172  17.045  0.00  0.00    +0.000 N 
ATOM      4  C   UNL     1       5.855   3.869  16.173  0.00  0.00    +0.000 C 
ATOM      5  C   UNL     1       7.157   4.540  16.645  0.00  0.00    +0.000 C 
ATOM      6  C   UNL     1       6.898   5.952  17.034  0.00  0.00    +0.000 A 
ATOM      7  N   UNL     1       7.915   6.879  17.180  0.00  0.00    +0.000 NA
ATOM      8  C   UNL     1       7.414   8.033  17.570  0.00  0.00    +0.000 A 
ATOM      9  S   UNL     1       5.695   8.059  17.755  0.00  0.00    +0.000 S 
ATOM     10  C   UNL     1       5.629   6.412  17.307  0.00  0.00    +0.000 A 
ATOM     11  C   UNL     1       4.372   5.607  17.219  0.00  0.00    +0.000 C 
ENDROOT
BRANCH   2  12
ATOM     12  C   UNL     1       2.538   3.425  18.100  0.00  0.00    +0.000 C 
ATOM     13  C   UNL     1       2.701   4.097  19.474  0.00  0.00    +0.000 C 
ATOM     14  C   UNL     1       1.334   4.288  20.123  0.00  0.00    +0.000 C 
ATOM     15  O   UNL     1       0.651   3.042  20.247  0.00  0.00    +0.000 OA
ATOM     16  C   UNL     1       0.425   2.411  18.989  0.00  0.00    +0.000 C 
ATOM     17  C   UNL     1       1.742   2.128  18.284  0.00  0.00    +0.000 C 
ENDBRANCH   2  12
BRANCH   8  18
ATOM     18  C   UNL     1       8.256   9.169  17.807  0.00  0.00    +0.000 C 
ATOM     19  C   UNL     1       8.945  10.132  18.037  0.00  0.00    +0.000 C 
BRANCH  19  20
ATOM     20  C   UNL     1       9.754  11.276  18.361  0.00  0.00    +0.000 A 
ATOM     21  C   UNL     1      10.645  11.242  19.437  0.00  0.00    +0.000 A 
ATOM     22  C   UNL     1      11.418  12.368  19.755  0.00  0.00    +0.000 A 
ATOM     23  C   UNL     1      11.305  13.532  18.996  0.00  0.00    +0.000 A 
ATOM     24  C   UNL     1      10.424  13.569  17.917  0.00  0.00    +0.000 A 
ATOM     25  C   UNL     1       9.653  12.446  17.600  0.00  0.00    +0.000 A 
ENDBRANCH  19  20
ENDBRANCH   8  18
TORSDOF 3
ENDMDL
MODEL 2
REMARK VINA RESULT:      -7.3      8.143     10.552
REMARK  Name = 
REMARK  3 active torsions:
REMARK  status: ('A' for Active; 'I' for Inactive)
REMARK    1  A    between atoms: C_2  and  C_3
REMARK    2  A    between atoms: C_14  and  C_15
REMARK    3  A    between atoms: C_16  and  C_17
REMARK                            x       y       z     vdW  Elec       q    Type
REMARK                         _______ _______ _______ _____ _____    ______ ____
ROOT
ATOM      1  O   UNL     1      -3.286  14.687  20.693  0.00  0.00    +0.000 OA
ATOM      2  C   UNL     1      -2.988  13.580  21.144  0.00  0.00    +0.000 C 
ATOM      3  N   UNL     1      -1.776  12.963  20.823  0.00  0.00    +0.000 N 
ATOM      4  C   UNL     1      -0.774  13.758  20.078  0.00  0.00    +0.000 C 
ATOM      5  C   UNL     1      -0.155  12.990  18.897  0.00  0.00    +0.000 C 
ATOM      6  C   UNL     1       0.186  11.601  19.305  0.00  0.00    +0.000 A 
ATOM      7  N   UNL     1       1.039  10.800  18.568  0.00  0.00    +0.000 NA
ATOM      8  C   UNL     1       1.131   9.612  19.128  0.00  0.00    +0.000 A 
ATOM      9  S   UNL     1       0.213   9.415  20.580  0.00  0.00    +0.000 S 
ATOM     10  C   UNL     1      -0.359  11.017  20.428  0.00  0.00    +0.000 A 
ATOM     11  C   UNL     1      -1.302  11.676  21.383  0.00  0.00    +0.000 C 
ENDROOT
BRANCH   2  12
ATOM     12  C   UNL     1      -3.925  12.883  22.133  0.00  0.00    +0.000 C 
ATOM     13  C   UNL     1      -5.398  13.280  21.942  0.00  0.00    +0.000 C 
ATOM     14  C   UNL     1      -6.255  12.626  23.022  0.00  0.00    +0.000 C 
ATOM     15  O   UNL     1      -5.798  12.991  24.323  0.00  0.00    +0.000 OA
ATOM     16  C   UNL     1      -4.452  12.588  24.566  0.00  0.00    +0.000 C 
ATOM     17  C   UNL     1      -3.507  13.235  23.565  0.00  0.00    +0.000 C 
ENDBRANCH   2  12
BRANCH   8  18
ATOM     18  C   UNL     1       1.947   8.580  18.558  0.00  0.00    +0.000 C 
ATOM     19  C   UNL     1       2.634   7.695  18.112  0.00  0.00    +0.000 C 
BRANCH  19  20
ATOM     20  C   UNL     1       3.436   6.609  17.616  0.00  0.00    +0.000 A 
ATOM     21  C   UNL     1       3.049   5.281  17.819  0.00  0.00    +0.000 A 
ATOM     22  C   UNL     1       3.846   4.229  17.346  0.00  0.00    +0.000 A 
ATOM     23  C   UNL     1       5.033   4.500  16.666  0.00  0.00    +0.000 A 
ATOM     24  C   UNL     1       5.420   5.822  16.453  0.00  0.00    +0.000 A 
ATOM     25  C   UNL     1       4.625   6.871  16.925  0.00  0.00    +0.000 A 
ENDBRANCH  19  20
ENDBRANCH   8  18
TORSDOF 3
ENDMDL
MODEL 3
REMARK VINA RESULT:      -7.3      7.904     10.411
REMARK  Name = 
REMARK  3 active torsions:
REMARK  status: ('A' for Active; 'I' for Inactive)
REMARK    1  A    between atoms: C_2  and  C_3
REMARK    2  A    between atoms: C_14  and  C_15
REMARK    3  A    between atoms: C_16  and  C_17
REMARK                            x       y       z     vdW  Elec       q    Type
REMARK                         _______ _______ _______ _____ _____    ______ ____
ROOT
ATOM      1  O   UNL     1      -2.772  14.594  20.669  0.00  0.00    +0.000 OA
ATOM      2  C   UNL     1      -2.541  13.469  21.114  0.00  0.00    +0.000 C 
ATOM      3  N   UNL     1      -1.351  12.797  20.820  0.00  0.00    +0.000 N 
ATOM      4  C   UNL     1      -0.292  13.550  20.113  0.00  0.00    +0.000 C 
ATOM      5  C   UNL     1       0.323  12.766  18.940  0.00  0.00    +0.000 C 
ATOM      6  C   UNL     1       0.585  11.358  19.341  0.00  0.00    +0.000 A 
ATOM      7  N   UNL     1       1.418  10.524  18.618  0.00  0.00    +0.000 NA
ATOM      8  C   UNL     1       1.437   9.327  19.166  0.00  0.00    +0.000 A 
ATOM      9  S   UNL     1       0.470   9.160  20.590  0.00  0.00    +0.000 S 
ATOM     10  C   UNL     1      -0.020  10.789  20.441  0.00  0.00    +0.000 A 
ATOM     11  C   UNL     1      -0.956  11.482  21.378  0.00  0.00    +0.000 C 
ENDROOT
BRANCH   2  12
ATOM     12  C   UNL     1      -3.538  12.808  22.068  0.00  0.00    +0.000 C 
ATOM     13  C   UNL     1      -4.994  13.218  21.791  0.00  0.00    +0.000 C 
ATOM     14  C   UNL     1      -5.915  12.602  22.839  0.00  0.00    +0.000 C 
ATOM     15  O   UNL     1      -5.521  12.991  24.154  0.00  0.00    +0.000 OA
ATOM     16  C   UNL     1      -4.196  12.577  24.476  0.00  0.00    +0.000 C 
ATOM     17  C   UNL     1      -3.191  13.188  23.512  0.00  0.00    +0.000 C 
ENDBRANCH   2  12
BRANCH   8  18
ATOM     18  C   UNL     1       2.218   8.263  18.607  0.00  0.00    +0.000 C 
ATOM     19  C   UNL     1       2.844   7.350  18.126  0.00  0.00    +0.000 C 
BRANCH  19  20
ATOM     20  C   UNL     1       3.549   6.251  17.525  0.00  0.00    +0.000 A 
ATOM     21  C   UNL     1       4.676   6.473  16.727  0.00  0.00    +0.000 A 
ATOM     22  C   UNL     1       5.348   5.395  16.131  0.00  0.00    +0.000 A 
ATOM     23  C   UNL     1       4.897   4.091  16.334  0.00  0.00    +0.000 A 
ATOM     24  C   UNL     1       3.779   3.864  17.135  0.00  0.00    +0.000 A 
ATOM     25  C   UNL     1       3.110   4.938  17.728  0.00  0.00    +0.000 A 
ENDBRANCH  19  20
ENDBRANCH   8  18
TORSDOF 3
ENDMDL
MODEL 4
REMARK VINA RESULT:      -7.2      5.977     11.616
REMARK  Name = 
REMARK  3 active torsions:
REMARK  status: ('A' for Active; 'I' for Inactive)
REMARK    1  A    between atoms: C_2  and  C_3
REMARK    2  A    between atoms: C_14  and  C_15
REMARK    3  A    between atoms: C_16  and  C_17
REMARK                            x       y       z     vdW  Elec       q    Type
REMARK                         _______ _______ _______ _____ _____    ______ ____
ROOT
ATOM      1  O   UNL     1      11.926  16.785  19.057  0.00  0.00    +0.000 OA
ATOM      2  C   UNL     1      11.473  15.933  19.823  0.00  0.00    +0.000 C 
ATOM      3  N   UNL     1      11.381  14.589  19.449  0.00  0.00    +0.000 N 
ATOM      4  C   UNL     1      12.018  14.184  18.176  0.00  0.00    +0.000 C 
ATOM      5  C   UNL     1      11.111  13.295  17.306  0.00  0.00    +0.000 C 
ATOM      6  C   UNL     1      10.448  12.259  18.143  0.00  0.00    +0.000 A 
ATOM      7  N   UNL     1       9.848  11.139  17.598  0.00  0.00    +0.000 NA
ATOM      8  C   UNL     1       9.303  10.414  18.553  0.00  0.00    +0.000 A 
ATOM      9  S   UNL     1       9.510  11.040  20.152  0.00  0.00    +0.000 S 
ATOM     10  C   UNL     1      10.361  12.375  19.513  0.00  0.00    +0.000 A 
ATOM     11  C   UNL     1      10.930  13.489  20.332  0.00  0.00    +0.000 C 
ENDROOT
BRANCH   2  12
ATOM     12  C   UNL     1      11.064  16.326  21.244  0.00  0.00    +0.000 C 
ATOM     13  C   UNL     1       9.643  16.911  21.317  0.00  0.00    +0.000 C 
ATOM     14  C   UNL     1       9.344  17.370  22.741  0.00  0.00    +0.000 C 
ATOM     15  O   UNL     1      10.308  18.327  23.179  0.00  0.00    +0.000 OA
ATOM     16  C   UNL     1      11.636  17.808  23.184  0.00  0.00    +0.000 C 
ATOM     17  C   UNL     1      12.048  17.369  21.787  0.00  0.00    +0.000 C 
ENDBRANCH   2  12
BRANCH   8  18
ATOM     18  C   UNL     1       8.604   9.197  18.260  0.00  0.00    +0.000 C 
ATOM     19  C   UNL     1       7.984   8.190  18.023  0.00  0.00    +0.000 C 
BRANCH  19  20
ATOM     20  C   UNL     1       7.203   7.018  17.735  0.00  0.00    +0.000 A 
ATOM     21  C   UNL     1       7.633   5.752  18.142  0.00  0.00    +0.000 A 
ATOM     22  C   UNL     1       6.872   4.613  17.842  0.00  0.00    +0.000 A 
ATOM     23  C   UNL     1       5.675   4.735  17.137  0.00  0.00    +0.000 A 
ATOM     24  C   UNL     1       5.237   5.996  16.735  0.00  0.00    +0.000 A 
ATOM     25  C   UNL     1       5.996   7.132  17.034  0.00  0.00    +0.000 A 
ENDBRANCH  19  20
ENDBRANCH   8  18
TORSDOF 3
ENDMDL
MODEL 5
REMARK VINA RESULT:      -7.2      7.221      9.906
REMARK  Name = 
REMARK  3 active torsions:
REMARK  status: ('A' for Active; 'I' for Inactive)
REMARK    1  A    between atoms: C_2  and  C_3
REMARK    2  A    between atoms: C_14  and  C_15
REMARK    3  A    between atoms: C_16  and  C_17
REMARK                            x       y       z     vdW  Elec       q    Type
REMARK                         _______ _______ _______ _____ _____    ______ ____
ROOT
ATOM      1  O   UNL     1      -1.061  12.348  23.453  0.00  0.00    +0.000 OA
ATOM      2  C   UNL     1      -0.800  12.372  22.249  0.00  0.00    +0.000 C 
ATOM      3  N   UNL     1      -0.483  11.205  21.548  0.00  0.00    +0.000 N 
ATOM      4  C   UNL     1      -0.654   9.913  22.248  0.00  0.00    +0.000 C 
ATOM      5  C   UNL     1       0.550   8.971  22.074  0.00  0.00    +0.000 C 
ATOM      6  C   UNL     1       1.004   8.969  20.657  0.00  0.00    +0.000 A 
ATOM      7  N   UNL     1       1.836   7.990  20.146  0.00  0.00    +0.000 NA
ATOM      8  C   UNL     1       2.115   8.253  18.886  0.00  0.00    +0.000 A 
ATOM      9  S   UNL     1       1.367   9.678  18.255  0.00  0.00    +0.000 S 
ATOM     10  C   UNL     1       0.649   9.968  19.777  0.00  0.00    +0.000 A 
ATOM     11  C   UNL     1      -0.239  11.130  20.088  0.00  0.00    +0.000 C 
ENDROOT
BRANCH   2  12
ATOM     12  C   UNL     1      -0.889  13.690  21.476  0.00  0.00    +0.000 C 
ATOM     13  C   UNL     1       0.050  14.773  22.030  0.00  0.00    +0.000 C 
ATOM     14  C   UNL     1      -0.166  16.082  21.276  0.00  0.00    +0.000 C 
ATOM     15  O   UNL     1      -1.527  16.500  21.364  0.00  0.00    +0.000 OA
ATOM     16  C   UNL     1      -2.431  15.549  20.806  0.00  0.00    +0.000 C 
ATOM     17  C   UNL     1      -2.328  14.217  21.532  0.00  0.00    +0.000 C 
ENDBRANCH   2  12
BRANCH   8  18
ATOM     18  C   UNL     1       2.970   7.397  18.117  0.00  0.00    +0.000 C 
ATOM     19  C   UNL     1       3.681   6.648  17.493  0.00  0.00    +0.000 C 
BRANCH  19  20
ATOM     20  C   UNL     1       4.502   5.717  16.767  0.00  0.00    +0.000 A 
ATOM     21  C   UNL     1       4.578   4.376  17.154  0.00  0.00    +0.000 A 
ATOM     22  C   UNL     1       5.393   3.479  16.449  0.00  0.00    +0.000 A 
ATOM     23  C   UNL     1       6.134   3.919  15.352  0.00  0.00    +0.000 A 
ATOM     24  C   UNL     1       6.055   5.253  14.957  0.00  0.00    +0.000 A 
ATOM     25  C   UNL     1       5.242   6.148  15.660  0.00  0.00    +0.000 A 
ENDBRANCH  19  20
ENDBRANCH   8  18
TORSDOF 3
ENDMDL
MODEL 6
REMARK VINA RESULT:      -7.1      7.916     10.628
REMARK  Name = 
REMARK  3 active torsions:
REMARK  status: ('A' for Active; 'I' for Inactive)
REMARK    1  A    between atoms: C_2  and  C_3
REMARK    2  A    between atoms: C_14  and  C_15
REMARK    3  A    between atoms: C_16  and  C_17
REMARK                            x       y       z     vdW  Elec       q    Type
REMARK                         _______ _______ _______ _____ _____    ______ ____
ROOT
ATOM      1  O   UNL     1      -1.509  13.286  23.853  0.00  0.00    +0.000 OA
ATOM      2  C   UNL     1      -1.306  13.187  22.642  0.00  0.00    +0.000 C 
ATOM      3  N   UNL     1      -1.010  11.957  22.050  0.00  0.00    +0.000 N 
ATOM      4  C   UNL     1      -1.136  10.742  22.886  0.00  0.00    +0.000 C 
ATOM      5  C   UNL     1       0.068   9.793  22.752  0.00  0.00    +0.000 C 
ATOM      6  C   UNL     1       0.455   9.648  21.322  0.00  0.00    +0.000 A 
ATOM      7  N   UNL     1       1.272   8.625  20.876  0.00  0.00    +0.000 NA
ATOM      8  C   UNL     1       1.488   8.759  19.584  0.00  0.00    +0.000 A 
ATOM      9  S   UNL     1       0.698  10.108  18.846  0.00  0.00    +0.000 S 
ATOM     10  C   UNL     1       0.049  10.549  20.363  0.00  0.00    +0.000 A 
ATOM     11  C   UNL     1      -0.834  11.733  20.596  0.00  0.00    +0.000 C 
ENDROOT
BRANCH   2  12
ATOM     12  C   UNL     1      -1.443  14.418  21.743  0.00  0.00    +0.000 C 
ATOM     13  C   UNL     1      -0.244  15.374  21.849  0.00  0.00    +0.000 C 
ATOM     14  C   UNL     1      -0.497  16.619  21.006  0.00  0.00    +0.000 C 
ATOM     15  O   UNL     1      -1.700  17.271  21.411  0.00  0.00    +0.000 OA
ATOM     16  C   UNL     1      -2.849  16.439  21.272  0.00  0.00    +0.000 C 
ATOM     17  C   UNL     1      -2.714  15.187  22.124  0.00  0.00    +0.000 C 
ENDBRANCH   2  12
BRANCH   8  18
ATOM     18  C   UNL     1       2.315   7.832  18.867  0.00  0.00    +0.000 C 
ATOM     19  C   UNL     1       2.981   7.042  18.244  0.00  0.00    +0.000 C 
BRANCH  19  20
ATOM     20  C   UNL     1       3.740   6.102  17.464  0.00  0.00    +0.000 A 
ATOM     21  C   UNL     1       4.699   6.541  16.547  0.00  0.00    +0.000 A 
ATOM     22  C   UNL     1       5.423   5.617  15.779  0.00  0.00    +0.000 A 
ATOM     23  C   UNL     1       5.193   4.250  15.929  0.00  0.00    +0.000 A 
ATOM     24  C   UNL     1       4.243   3.806  16.848  0.00  0.00    +0.000 A 
ATOM     25  C   UNL     1       3.521   4.727  17.613  0.00  0.00    +0.000 A 
ENDBRANCH  19  20
ENDBRANCH   8  18
TORSDOF 3
ENDMDL
MODEL 7
REMARK VINA RESULT:      -7.1      7.895     10.216
REMARK  Name = 
REMARK  3 active torsions:
REMARK  status: ('A' for Active; 'I' for Inactive)
REMARK    1  A    between atoms: C_2  and  C_3
REMARK    2  A    between atoms: C_14  and  C_15
REMARK    3  A    between atoms: C_16  and  C_17
REMARK                            x       y       z     vdW  Elec       q    Type
REMARK                         _______ _______ _______ _____ _____    ______ ____
ROOT
ATOM      1  O   UNL     1      -5.029  12.363  19.165  0.00  0.00    +0.000 OA
ATOM      2  C   UNL     1      -3.904  12.393  19.667  0.00  0.00    +0.000 C 
ATOM      3  N   UNL     1      -2.784  11.926  18.975  0.00  0.00    +0.000 N 
ATOM      4  C   UNL     1      -2.954  11.570  17.549  0.00  0.00    +0.000 C 
ATOM      5  C   UNL     1      -2.310  10.220  17.185  0.00  0.00    +0.000 C 
ATOM      6  C   UNL     1      -0.960  10.110  17.800  0.00  0.00    +0.000 A 
ATOM      7  N   UNL     1      -0.032   9.172  17.386  0.00  0.00    +0.000 NA
ATOM      8  C   UNL     1       1.056   9.265  18.123  0.00  0.00    +0.000 A 
ATOM      9  S   UNL     1       1.017  10.501  19.331  0.00  0.00    +0.000 S 
ATOM     10  C   UNL     1      -0.568  10.916  18.846  0.00  0.00    +0.000 A 
ATOM     11  C   UNL     1      -1.388  12.001  19.467  0.00  0.00    +0.000 C 
ENDROOT
BRANCH   2  12
ATOM     12  C   UNL     1      -3.704  13.015  21.051  0.00  0.00    +0.000 C 
ATOM     13  C   UNL     1      -4.874  12.735  22.008  0.00  0.00    +0.000 C 
ATOM     14  C   UNL     1      -4.650  13.467  23.328  0.00  0.00    +0.000 C 
ATOM     15  O   UNL     1      -4.498  14.870  23.112  0.00  0.00    +0.000 OA
ATOM     16  C   UNL     1      -3.386  15.179  22.275  0.00  0.00    +0.000 C 
ATOM     17  C   UNL     1      -3.544  14.533  20.907  0.00  0.00    +0.000 C 
ENDBRANCH   2  12
BRANCH   8  18
ATOM     18  C   UNL     1       2.177   8.396  17.910  0.00  0.00    +0.000 C 
ATOM     19  C   UNL     1       3.101   7.639  17.748  0.00  0.00    +0.000 C 
BRANCH  19  20
ATOM     20  C   UNL     1       4.170   6.696  17.557  0.00  0.00    +0.000 A 
ATOM     21  C   UNL     1       4.884   6.655  16.356  0.00  0.00    +0.000 A 
ATOM     22  C   UNL     1       5.915   5.722  16.173  0.00  0.00    +0.000 A 
ATOM     23  C   UNL     1       6.237   4.826  17.193  0.00  0.00    +0.000 A 
ATOM     24  C   UNL     1       5.534   4.867  18.395  0.00  0.00    +0.000 A 
ATOM     25  C   UNL     1       4.506   5.798  18.577  0.00  0.00    +0.000 A 
ENDBRANCH  19  20
ENDBRANCH   8  18
TORSDOF 3
ENDMDL
MODEL 8
REMARK VINA RESULT:      -7.1      6.592      9.244
REMARK  Name = 
REMARK  3 active torsions:
REMARK  status: ('A' for Active; 'I' for Inactive)
REMARK    1  A    between atoms: C_2  and  C_3
REMARK    2  A    between atoms: C_14  and  C_15
REMARK    3  A    between atoms: C_16  and  C_17
REMARK                            x       y       z     vdW  Elec       q    Type
REMARK                         _______ _______ _______ _____ _____    ______ ____
ROOT
ATOM      1  O   UNL     1      -0.989  11.141  23.439  0.00  0.00    +0.000 OA
ATOM      2  C   UNL     1      -0.720  11.321  22.251  0.00  0.00    +0.000 C 
ATOM      3  N   UNL     1      -0.288  10.273  21.433  0.00  0.00    +0.000 N 
ATOM      4  C   UNL     1      -0.345   8.901  21.985  0.00  0.00    +0.000 C 
ATOM      5  C   UNL     1       0.944   8.099  21.734  0.00  0.00    +0.000 C 
ATOM      6  C   UNL     1       1.411   8.295  20.335  0.00  0.00    +0.000 A 
ATOM      7  N   UNL     1       2.336   7.458  19.738  0.00  0.00    +0.000 NA
ATOM      8  C   UNL     1       2.602   7.883  18.520  0.00  0.00    +0.000 A 
ATOM      9  S   UNL     1       1.731   9.295  18.032  0.00  0.00    +0.000 S 
ATOM     10  C   UNL     1       0.973   9.347  19.562  0.00  0.00    +0.000 A 
ATOM     11  C   UNL     1      -0.022  10.382  19.980  0.00  0.00    +0.000 C 
ENDROOT
BRANCH   2  12
ATOM     12  C   UNL     1      -0.923  12.703  21.624  0.00  0.00    +0.000 C 
ATOM     13  C   UNL     1      -0.384  13.844  22.502  0.00  0.00    +0.000 C 
ATOM     14  C   UNL     1      -0.711  15.189  21.862  0.00  0.00    +0.000 C 
ATOM     15  O   UNL     1      -2.116  15.328  21.659  0.00  0.00    +0.000 OA
ATOM     16  C   UNL     1      -2.650  14.323  20.801  0.00  0.00    +0.000 C 
ATOM     17  C   UNL     1      -2.419  12.937  21.384  0.00  0.00    +0.000 C 
ENDBRANCH   2  12
BRANCH   8  18
ATOM     18  C   UNL     1       3.542   7.198  17.681  0.00  0.00    +0.000 C 
ATOM     19  C   UNL     1       4.325   6.592  16.994  0.00  0.00    +0.000 C 
BRANCH  19  20
ATOM     20  C   UNL     1       5.236   5.825  16.186  0.00  0.00    +0.000 A 
ATOM     21  C   UNL     1       4.780   5.109  15.076  0.00  0.00    +0.000 A 
ATOM     22  C   UNL     1       5.673   4.351  14.304  0.00  0.00    +0.000 A 
ATOM     23  C   UNL     1       7.026   4.309  14.638  0.00  0.00    +0.000 A 
ATOM     24  C   UNL     1       7.488   5.028  15.740  0.00  0.00    +0.000 A 
ATOM     25  C   UNL     1       6.597   5.783  16.510  0.00  0.00    +0.000 A 
ENDBRANCH  19  20
ENDBRANCH   8  18
TORSDOF 3
ENDMDL
MODEL 9
REMARK VINA RESULT:      -7.0      7.286     10.080
REMARK  Name = 
REMARK  3 active torsions:
REMARK  status: ('A' for Active; 'I' for Inactive)
REMARK    1  A    between atoms: C_2  and  C_3
REMARK    2  A    between atoms: C_14  and  C_15
REMARK    3  A    between atoms: C_16  and  C_17
REMARK                            x       y       z     vdW  Elec       q    Type
REMARK                         _______ _______ _______ _____ _____    ______ ____
ROOT
ATOM      1  O   UNL     1      -0.869  12.859  23.187  0.00  0.00    +0.000 OA
ATOM      2  C   UNL     1      -0.538  12.825  22.000  0.00  0.00    +0.000 C 
ATOM      3  N   UNL     1      -0.313  11.614  21.339  0.00  0.00    +0.000 N 
ATOM      4  C   UNL     1      -0.668  10.366  22.050  0.00  0.00    +0.000 C 
ATOM      5  C   UNL     1       0.431   9.292  21.965  0.00  0.00    +0.000 C 
ATOM      6  C   UNL     1       0.963   9.207  20.579  0.00  0.00    +0.000 A 
ATOM      7  N   UNL     1       1.709   8.129  20.136  0.00  0.00    +0.000 NA
ATOM      8  C   UNL     1       2.088   8.330  18.891  0.00  0.00    +0.000 A 
ATOM      9  S   UNL     1       1.543   9.814  18.191  0.00  0.00    +0.000 S 
ATOM     10  C   UNL     1       0.774  10.217  19.662  0.00  0.00    +0.000 A 
ATOM     11  C   UNL     1       0.006  11.478  19.899  0.00  0.00    +0.000 C 
ENDROOT
BRANCH   2  12
ATOM     12  C   UNL     1      -0.434  14.126  21.201  0.00  0.00    +0.000 C 
ATOM     13  C   UNL     1       0.949  14.788  21.314  0.00  0.00    +0.000 C 
ATOM     14  C   UNL     1       0.946  16.124  20.577  0.00  0.00    +0.000 C 
ATOM     15  O   UNL     1      -0.071  16.984  21.088  0.00  0.00    +0.000 OA
ATOM     16  C   UNL     1      -1.378  16.434  20.949  0.00  0.00    +0.000 C 
ATOM     17  C   UNL     1      -1.491  15.116  21.700  0.00  0.00    +0.000 C 
ENDBRANCH   2  12
BRANCH   8  18
ATOM     18  C   UNL     1       2.886   7.366  18.190  0.00  0.00    +0.000 C 
ATOM     19  C   UNL     1       3.570   6.583  17.579  0.00  0.00    +0.000 C 
BRANCH  19  20
ATOM     20  C   UNL     1       4.415   5.688  16.836  0.00  0.00    +0.000 A 
ATOM     21  C   UNL     1       5.267   6.169  15.838  0.00  0.00    +0.000 A 
ATOM     22  C   UNL     1       6.076   5.286  15.107  0.00  0.00    +0.000 A 
ATOM     23  C   UNL     1       6.038   3.918  15.375  0.00  0.00    +0.000 A 
ATOM     24  C   UNL     1       5.197   3.433  16.375  0.00  0.00    +0.000 A 
ATOM     25  C   UNL     1       4.390   4.314  17.102  0.00  0.00    +0.000 A 
ENDBRANCH  19  20
ENDBRANCH   8  18
TORSDOF 3
ENDMDL
