MODEL 1
REMARK VINA RESULT:      -9.0      0.000      0.000
REMARK  Name = 
REMARK  5 active torsions:
REMARK  status: ('A' for Active; 'I' for Inactive)
REMARK    1  A    between atoms: C_1  and  C_2
REMARK    2  A    between atoms: N_5  and  C_6
REMARK    3  A    between atoms: C_6  and  C_7
REMARK    4  A    between atoms: C_9  and  C_10
REMARK    5  A    between atoms: C_19  and  C_20
REMARK                            x       y       z     vdW  Elec       q    Type
REMARK                         _______ _______ _______ _____ _____    ______ ____
ROOT
ATOM      1  C   UNL     1       1.424   3.278  20.566  0.00  0.00    +0.000 C 
ATOM      2  C   UNL     1       2.017   4.574  20.112  0.00  0.00    +0.000 A 
ATOM      3  N   UNL     1       1.544   5.710  20.657  0.00  0.00    +0.000 NA
ATOM      4  C   UNL     1       2.128   6.857  20.299  0.00  0.00    +0.000 A 
ATOM      5  N   UNL     1       1.701   8.081  20.819  0.00  0.00    +0.000 N 
ATOM      6  C   UNL     1       3.166   6.880  19.390  0.00  0.00    +0.000 A 
ATOM      7  C   UNL     1       3.573   5.678  18.841  0.00  0.00    +0.000 A 
ATOM      8  N   UNL     1       3.004   4.511  19.205  0.00  0.00    +0.000 NA
ATOM      9  H   UNL     1       2.445   8.551  21.324  0.00  0.00    +0.000 HD
ENDROOT
BRANCH   7  10
ATOM     10  C   UNL     1       4.654   5.587  17.838  0.00  0.00    +0.000 A 
ATOM     11  C   UNL     1       5.896   6.204  18.057  0.00  0.00    +0.000 A 
ATOM     12  C   UNL     1       6.933   6.143  17.114  0.00  0.00    +0.000 A 
ATOM     13  C   UNL     1       6.737   5.453  15.904  0.00  0.00    +0.000 A 
ATOM     14  N   UNL     1       7.658   5.325  14.877  0.00  0.00    +0.000 NA
ATOM     15  C   UNL     1       7.127   4.626  13.900  0.00  0.00    +0.000 A 
ATOM     16  S   UNL     1       5.530   4.065  14.142  0.00  0.00    +0.000 S 
ATOM     17  C   UNL     1       5.508   4.831  15.685  0.00  0.00    +0.000 A 
ATOM     18  C   UNL     1       4.467   4.883  16.630  0.00  0.00    +0.000 A 
ENDBRANCH   7  10
BRANCH   5  19
ATOM     19  C   UNL     1       0.422   8.113  21.528  0.00  0.00    +0.000 C 
BRANCH  19  20
ATOM     20  C   UNL     1      -0.208   9.434  21.768  0.00  0.00    +0.000 A 
ATOM     21  C   UNL     1      -0.721  10.084  22.862  0.00  0.00    +0.000 A 
ATOM     22  C   UNL     1      -1.210  11.320  22.364  0.00  0.00    +0.000 A 
ATOM     23  N   UNL     1      -1.010  11.395  21.038  0.00  0.00    +0.000 NA
ATOM     24  O   UNL     1      -0.382  10.221  20.673  0.00  0.00    +0.000 OA
BRANCH  22  25
ATOM     25  C   UNL     1      -1.845  12.397  23.120  0.00  0.00    +0.000 A 
ATOM     26  C   UNL     1      -3.161  12.252  23.588  0.00  0.00    +0.000 A 
ATOM     27  C   UNL     1      -3.773  13.274  24.313  0.00  0.00    +0.000 A 
ATOM     28  C   UNL     1      -3.082  14.455  24.576  0.00  0.00    +0.000 A 
ATOM     29  C   UNL     1      -1.776  14.612  24.116  0.00  0.00    +0.000 A 
ATOM     30  C   UNL     1      -1.158  13.588  23.394  0.00  0.00    +0.000 A 
ENDBRANCH  22  25
ENDBRANCH  19  20
ENDBRANCH   5  19
TORSDOF 4
ENDMDL
MODEL 2
REMARK VINA RESULT:      -8.7      3.554      4.955
REMARK  Name = 
REMARK  5 active torsions:
REMARK  status: ('A' for Active; 'I' for Inactive)
REMARK    1  A    between atoms: C_1  and  C_2
REMARK    2  A    between atoms: N_5  and  C_6
REMARK    3  A    between atoms: C_6  and  C_7
REMARK    4  A    between atoms: C_9  and  C_10
REMARK    5  A    between atoms: C_19  and  C_20
REMARK                            x       y       z     vdW  Elec       q    Type
REMARK                         _______ _______ _______ _____ _____    ______ ____
ROOT
ATOM      1  C   UNL     1       0.502   9.379  22.726  0.00  0.00    +0.000 C 
ATOM      2  C   UNL     1       0.914   9.242  21.294  0.00  0.00    +0.000 A 
ATOM      3  N   UNL     1       0.753  10.306  20.487  0.00  0.00    +0.000 NA
ATOM      4  C   UNL     1       1.189  10.198  19.228  0.00  0.00    +0.000 A 
ATOM      5  N   UNL     1       1.062  11.256  18.325  0.00  0.00    +0.000 N 
ATOM      6  C   UNL     1       1.767   9.033  18.767  0.00  0.00    +0.000 A 
ATOM      7  C   UNL     1       1.864   7.967  19.642  0.00  0.00    +0.000 A 
ATOM      8  N   UNL     1       1.443   8.067  20.919  0.00  0.00    +0.000 NA
ATOM      9  H   UNL     1       1.967  11.563  17.982  0.00  0.00    +0.000 HD
ENDROOT
BRANCH   7  10
ATOM     10  C   UNL     1       2.437   6.665  19.248  0.00  0.00    +0.000 A 
ATOM     11  C   UNL     1       3.117   6.514  18.028  0.00  0.00    +0.000 A 
ATOM     12  C   UNL     1       3.659   5.284  17.626  0.00  0.00    +0.000 A 
ATOM     13  C   UNL     1       3.521   4.156  18.456  0.00  0.00    +0.000 A 
ATOM     14  N   UNL     1       3.985   2.879  18.183  0.00  0.00    +0.000 NA
ATOM     15  C   UNL     1       3.667   2.078  19.174  0.00  0.00    +0.000 A 
ATOM     16  S   UNL     1       2.825   2.783  20.486  0.00  0.00    +0.000 S 
ATOM     17  C   UNL     1       2.855   4.302  19.671  0.00  0.00    +0.000 A 
ATOM     18  C   UNL     1       2.316   5.534  20.083  0.00  0.00    +0.000 A 
ENDBRANCH   7  10
BRANCH   5  19
ATOM     19  C   UNL     1       0.186  12.368  18.692  0.00  0.00    +0.000 C 
BRANCH  19  20
ATOM     20  C   UNL     1      -1.279  12.162  18.587  0.00  0.00    +0.000 A 
ATOM     21  C   UNL     1      -2.342  12.264  19.450  0.00  0.00    +0.000 A 
ATOM     22  C   UNL     1      -3.476  11.876  18.691  0.00  0.00    +0.000 A 
ATOM     23  N   UNL     1      -3.105  11.546  17.443  0.00  0.00    +0.000 NA
ATOM     24  O   UNL     1      -1.738  11.730  17.382  0.00  0.00    +0.000 OA
BRANCH  22  25
ATOM     25  C   UNL     1      -4.868  11.821  19.132  0.00  0.00    +0.000 A 
ATOM     26  C   UNL     1      -5.233  12.339  20.385  0.00  0.00    +0.000 A 
ATOM     27  C   UNL     1      -6.560  12.294  20.812  0.00  0.00    +0.000 A 
ATOM     28  C   UNL     1      -7.538  11.728  19.997  0.00  0.00    +0.000 A 
ATOM     29  C   UNL     1      -7.188  11.208  18.751  0.00  0.00    +0.000 A 
ATOM     30  C   UNL     1      -5.861  11.257  18.319  0.00  0.00    +0.000 A 
ENDBRANCH  22  25
ENDBRANCH  19  20
ENDBRANCH   5  19
TORSDOF 4
ENDMDL
MODEL 3
REMARK VINA RESULT:      -8.5      5.048     11.069
REMARK  Name = 
REMARK  5 active torsions:
REMARK  status: ('A' for Active; 'I' for Inactive)
REMARK    1  A    between atoms: C_1  and  C_2
REMARK    2  A    between atoms: N_5  and  C_6
REMARK    3  A    between atoms: C_6  and  C_7
REMARK    4  A    between atoms: C_9  and  C_10
REMARK    5  A    between atoms: C_19  and  C_20
REMARK                            x       y       z     vdW  Elec       q    Type
REMARK                         _______ _______ _______ _____ _____    ______ ____
ROOT
ATOM      1  C   UNL     1      -0.085  11.415  21.892  0.00  0.00    +0.000 C 
ATOM      2  C   UNL     1      -0.541  11.130  20.495  0.00  0.00    +0.000 A 
ATOM      3  N   UNL     1       0.292  10.452  19.685  0.00  0.00    +0.000 NA
ATOM      4  C   UNL     1      -0.151  10.139  18.464  0.00  0.00    +0.000 A 
ATOM      5  N   UNL     1       0.649   9.435  17.561  0.00  0.00    +0.000 N 
ATOM      6  C   UNL     1      -1.411  10.513  18.042  0.00  0.00    +0.000 A 
ATOM      7  C   UNL     1      -2.197  11.242  18.914  0.00  0.00    +0.000 A 
ATOM      8  N   UNL     1      -1.769  11.551  20.155  0.00  0.00    +0.000 NA
ATOM      9  H   UNL     1       0.220   8.555  17.293  0.00  0.00    +0.000 HD
ENDROOT
BRANCH   7  10
ATOM     10  C   UNL     1      -3.549  11.719  18.558  0.00  0.00    +0.000 A 
ATOM     11  C   UNL     1      -4.054  11.553  17.257  0.00  0.00    +0.000 A 
ATOM     12  C   UNL     1      -5.329  12.009  16.891  0.00  0.00    +0.000 A 
ATOM     13  C   UNL     1      -6.137  12.660  17.841  0.00  0.00    +0.000 A 
ATOM     14  N   UNL     1      -7.402  13.179  17.620  0.00  0.00    +0.000 NA
ATOM     15  C   UNL     1      -7.850  13.725  18.727  0.00  0.00    +0.000 A 
ATOM     16  S   UNL     1      -6.819  13.643  20.090  0.00  0.00    +0.000 S 
ATOM     17  C   UNL     1      -5.643  12.821  19.135  0.00  0.00    +0.000 A 
ATOM     18  C   UNL     1      -4.369  12.359  19.510  0.00  0.00    +0.000 A 
ENDBRANCH   7  10
BRANCH   5  19
ATOM     19  C   UNL     1       2.073   9.306  17.867  0.00  0.00    +0.000 C 
BRANCH  19  20
ATOM     20  C   UNL     1       2.661   7.945  17.881  0.00  0.00    +0.000 A 
ATOM     21  C   UNL     1       2.229   6.701  18.269  0.00  0.00    +0.000 A 
ATOM     22  C   UNL     1       3.333   5.837  18.045  0.00  0.00    +0.000 A 
ATOM     23  N   UNL     1       4.374   6.535  17.561  0.00  0.00    +0.000 NA
ATOM     24  O   UNL     1       3.949   7.845  17.457  0.00  0.00    +0.000 OA
BRANCH  22  25
ATOM     25  C   UNL     1       3.400   4.397  18.279  0.00  0.00    +0.000 A 
ATOM     26  C   UNL     1       2.721   3.511  17.428  0.00  0.00    +0.000 A 
ATOM     27  C   UNL     1       2.783   2.133  17.641  0.00  0.00    +0.000 A 
ATOM     28  C   UNL     1       3.518   1.625  18.710  0.00  0.00    +0.000 A 
ATOM     29  C   UNL     1       4.194   2.494  19.564  0.00  0.00    +0.000 A 
ATOM     30  C   UNL     1       4.139   3.873  19.349  0.00  0.00    +0.000 A 
ENDBRANCH  22  25
ENDBRANCH  19  20
ENDBRANCH   5  19
TORSDOF 4
ENDMDL
MODEL 4
REMARK VINA RESULT:      -8.5      1.230      1.511
REMARK  Name = 
REMARK  5 active torsions:
REMARK  status: ('A' for Active; 'I' for Inactive)
REMARK    1  A    between atoms: C_1  and  C_2
REMARK    2  A    between atoms: N_5  and  C_6
REMARK    3  A    between atoms: C_6  and  C_7
REMARK    4  A    between atoms: C_9  and  C_10
REMARK    5  A    between atoms: C_19  and  C_20
REMARK                            x       y       z     vdW  Elec       q    Type
REMARK                         _______ _______ _______ _____ _____    ______ ____
ROOT
ATOM      1  C   UNL     1       0.965   3.054  19.470  0.00  0.00    +0.000 C 
ATOM      2  C   UNL     1       1.760   4.315  19.336  0.00  0.00    +0.000 A 
ATOM      3  N   UNL     1       1.422   5.360  20.113  0.00  0.00    +0.000 NA
ATOM      4  C   UNL     1       2.182   6.457  20.038  0.00  0.00    +0.000 A 
ATOM      5  N   UNL     1       1.903   7.585  20.812  0.00  0.00    +0.000 N 
ATOM      6  C   UNL     1       3.263   6.523  19.182  0.00  0.00    +0.000 A 
ATOM      7  C   UNL     1       3.526   5.425  18.384  0.00  0.00    +0.000 A 
ATOM      8  N   UNL     1       2.778   4.306  18.461  0.00  0.00    +0.000 NA
ATOM      9  H   UNL     1       2.676   7.815  21.427  0.00  0.00    +0.000 HD
ENDROOT
BRANCH   7  10
ATOM     10  C   UNL     1       4.638   5.396  17.412  0.00  0.00    +0.000 A 
ATOM     11  C   UNL     1       5.831   6.095  17.659  0.00  0.00    +0.000 A 
ATOM     12  C   UNL     1       6.896   6.094  16.746  0.00  0.00    +0.000 A 
ATOM     13  C   UNL     1       6.779   5.382  15.538  0.00  0.00    +0.000 A 
ATOM     14  N   UNL     1       7.734   5.306  14.538  0.00  0.00    +0.000 NA
ATOM     15  C   UNL     1       7.278   4.565  13.553  0.00  0.00    +0.000 A 
ATOM     16  S   UNL     1       5.714   3.904  13.757  0.00  0.00    +0.000 S 
ATOM     17  C   UNL     1       5.599   4.680  15.292  0.00  0.00    +0.000 A 
ATOM     18  C   UNL     1       4.531   4.672  16.207  0.00  0.00    +0.000 A 
ENDBRANCH   7  10
BRANCH   5  19
ATOM     19  C   UNL     1       0.604   7.652  21.479  0.00  0.00    +0.000 C 
BRANCH  19  20
ATOM     20  C   UNL     1       0.097   8.986  21.884  0.00  0.00    +0.000 A 
ATOM     21  C   UNL     1      -0.291  10.123  21.221  0.00  0.00    +0.000 A 
ATOM     22  C   UNL     1      -0.628  11.051  22.240  0.00  0.00    +0.000 A 
ATOM     23  N   UNL     1      -0.437  10.499  23.449  0.00  0.00    +0.000 NA
ATOM     24  O   UNL     1       0.010   9.212  23.222  0.00  0.00    +0.000 OA
BRANCH  22  25
ATOM     25  C   UNL     1      -1.118  12.418  22.075  0.00  0.00    +0.000 A 
ATOM     26  C   UNL     1      -1.311  13.239  23.196  0.00  0.00    +0.000 A 
ATOM     27  C   UNL     1      -1.775  14.547  23.047  0.00  0.00    +0.000 A 
ATOM     28  C   UNL     1      -2.057  15.047  21.779  0.00  0.00    +0.000 A 
ATOM     29  C   UNL     1      -1.871  14.241  20.657  0.00  0.00    +0.000 A 
ATOM     30  C   UNL     1      -1.401  12.934  20.803  0.00  0.00    +0.000 A 
ENDBRANCH  22  25
ENDBRANCH  19  20
ENDBRANCH   5  19
TORSDOF 4
ENDMDL
MODEL 5
REMARK VINA RESULT:      -8.4      3.380      4.542
REMARK  Name = 
REMARK  5 active torsions:
REMARK  status: ('A' for Active; 'I' for Inactive)
REMARK    1  A    between atoms: C_1  and  C_2
REMARK    2  A    between atoms: N_5  and  C_6
REMARK    3  A    between atoms: C_6  and  C_7
REMARK    4  A    between atoms: C_9  and  C_10
REMARK    5  A    between atoms: C_19  and  C_20
REMARK                            x       y       z     vdW  Elec       q    Type
REMARK                         _______ _______ _______ _____ _____    ______ ____
ROOT
ATOM      1  C   UNL     1       0.104   9.068  22.177  0.00  0.00    +0.000 C 
ATOM      2  C   UNL     1       0.715   9.186  20.816  0.00  0.00    +0.000 A 
ATOM      3  N   UNL     1       0.605  10.363  20.175  0.00  0.00    +0.000 NA
ATOM      4  C   UNL     1       1.215  10.482  18.992  0.00  0.00    +0.000 A 
ATOM      5  N   UNL     1       1.153  11.671  18.261  0.00  0.00    +0.000 N 
ATOM      6  C   UNL     1       1.916   9.431  18.438  0.00  0.00    +0.000 A 
ATOM      7  C   UNL     1       1.953   8.237  19.135  0.00  0.00    +0.000 A 
ATOM      8  N   UNL     1       1.356   8.108  20.338  0.00  0.00    +0.000 NA
ATOM      9  H   UNL     1       2.077  12.061  18.106  0.00  0.00    +0.000 HD
ENDROOT
BRANCH   7  10
ATOM     10  C   UNL     1       2.649   7.039  18.625  0.00  0.00    +0.000 A 
ATOM     11  C   UNL     1       2.392   5.769  19.167  0.00  0.00    +0.000 A 
ATOM     12  C   UNL     1       3.049   4.618  18.709  0.00  0.00    +0.000 A 
ATOM     13  C   UNL     1       4.003   4.722  17.679  0.00  0.00    +0.000 A 
ATOM     14  N   UNL     1       4.741   3.681  17.141  0.00  0.00    +0.000 NA
ATOM     15  C   UNL     1       5.540   4.149  16.209  0.00  0.00    +0.000 A 
ATOM     16  S   UNL     1       5.454   5.829  15.902  0.00  0.00    +0.000 S 
ATOM     17  C   UNL     1       4.256   5.979  17.132  0.00  0.00    +0.000 A 
ATOM     18  C   UNL     1       3.594   7.135  17.583  0.00  0.00    +0.000 A 
ENDBRANCH   7  10
BRANCH   5  19
ATOM     19  C   UNL     1       0.173  12.675  18.672  0.00  0.00    +0.000 C 
BRANCH  19  20
ATOM     20  C   UNL     1      -1.265  12.328  18.564  0.00  0.00    +0.000 A 
ATOM     21  C   UNL     1      -2.356  12.427  19.391  0.00  0.00    +0.000 A 
ATOM     22  C   UNL     1      -3.431  11.858  18.659  0.00  0.00    +0.000 A 
ATOM     23  N   UNL     1      -2.998  11.429  17.462  0.00  0.00    +0.000 NA
ATOM     24  O   UNL     1      -1.651  11.728  17.406  0.00  0.00    +0.000 OA
BRANCH  22  25
ATOM     25  C   UNL     1      -4.824  11.726  19.078  0.00  0.00    +0.000 A 
ATOM     26  C   UNL     1      -5.717  10.946  18.328  0.00  0.00    +0.000 A 
ATOM     27  C   UNL     1      -7.048  10.812  18.723  0.00  0.00    +0.000 A 
ATOM     28  C   UNL     1      -7.505  11.459  19.868  0.00  0.00    +0.000 A 
ATOM     29  C   UNL     1      -6.629  12.239  20.622  0.00  0.00    +0.000 A 
ATOM     30  C   UNL     1      -5.294  12.371  20.231  0.00  0.00    +0.000 A 
ENDBRANCH  22  25
ENDBRANCH  19  20
ENDBRANCH   5  19
TORSDOF 4
ENDMDL
MODEL 6
REMARK VINA RESULT:      -8.4      0.744      1.164
REMARK  Name = 
REMARK  5 active torsions:
REMARK  status: ('A' for Active; 'I' for Inactive)
REMARK    1  A    between atoms: C_1  and  C_2
REMARK    2  A    between atoms: N_5  and  C_6
REMARK    3  A    between atoms: C_6  and  C_7
REMARK    4  A    between atoms: C_9  and  C_10
REMARK    5  A    between atoms: C_19  and  C_20
REMARK                            x       y       z     vdW  Elec       q    Type
REMARK                         _______ _______ _______ _____ _____    ______ ____
ROOT
ATOM      1  C   UNL     1       0.857   3.202  19.109  0.00  0.00    +0.000 C 
ATOM      2  C   UNL     1       1.729   4.416  19.037  0.00  0.00    +0.000 A 
ATOM      3  N   UNL     1       1.443   5.448  19.851  0.00  0.00    +0.000 NA
ATOM      4  C   UNL     1       2.269   6.498  19.831  0.00  0.00    +0.000 A 
ATOM      5  N   UNL     1       2.046   7.610  20.647  0.00  0.00    +0.000 N 
ATOM      6  C   UNL     1       3.365   6.533  18.994  0.00  0.00    +0.000 A 
ATOM      7  C   UNL     1       3.574   5.453  18.155  0.00  0.00    +0.000 A 
ATOM      8  N   UNL     1       2.759   4.380  18.176  0.00  0.00    +0.000 NA
ATOM      9  H   UNL     1       2.822   7.767  21.282  0.00  0.00    +0.000 HD
ENDROOT
BRANCH   7  10
ATOM     10  C   UNL     1       4.697   5.395  17.198  0.00  0.00    +0.000 A 
ATOM     11  C   UNL     1       5.912   6.047  17.470  0.00  0.00    +0.000 A 
ATOM     12  C   UNL     1       6.989   6.018  16.571  0.00  0.00    +0.000 A 
ATOM     13  C   UNL     1       6.863   5.325  15.353  0.00  0.00    +0.000 A 
ATOM     14  N   UNL     1       7.828   5.226  14.365  0.00  0.00    +0.000 NA
ATOM     15  C   UNL     1       7.359   4.514  13.365  0.00  0.00    +0.000 A 
ATOM     16  S   UNL     1       5.769   3.908  13.540  0.00  0.00    +0.000 S 
ATOM     17  C   UNL     1       5.662   4.670  15.082  0.00  0.00    +0.000 A 
ATOM     18  C   UNL     1       4.582   4.690  15.983  0.00  0.00    +0.000 A 
ENDBRANCH   7  10
BRANCH   5  19
ATOM     19  C   UNL     1       0.743   7.729  21.299  0.00  0.00    +0.000 C 
BRANCH  19  20
ATOM     20  C   UNL     1       0.234   9.091  21.594  0.00  0.00    +0.000 A 
ATOM     21  C   UNL     1      -0.605   9.636  22.534  0.00  0.00    +0.000 A 
ATOM     22  C   UNL     1      -0.691  11.013  22.202  0.00  0.00    +0.000 A 
ATOM     23  N   UNL     1       0.048  11.272  21.111  0.00  0.00    +0.000 NA
ATOM     24  O   UNL     1       0.625  10.074  20.739  0.00  0.00    +0.000 OA
BRANCH  22  25
ATOM     25  C   UNL     1      -1.448  12.052  22.897  0.00  0.00    +0.000 A 
ATOM     26  C   UNL     1      -0.879  13.317  23.109  0.00  0.00    +0.000 A 
ATOM     27  C   UNL     1      -1.596  14.316  23.768  0.00  0.00    +0.000 A 
ATOM     28  C   UNL     1      -2.886  14.062  24.228  0.00  0.00    +0.000 A 
ATOM     29  C   UNL     1      -3.461  12.808  24.026  0.00  0.00    +0.000 A 
ATOM     30  C   UNL     1      -2.748  11.808  23.361  0.00  0.00    +0.000 A 
ENDBRANCH  22  25
ENDBRANCH  19  20
ENDBRANCH   5  19
TORSDOF 4
ENDMDL
MODEL 7
REMARK VINA RESULT:      -8.4      3.372      5.024
REMARK  Name = 
REMARK  5 active torsions:
REMARK  status: ('A' for Active; 'I' for Inactive)
REMARK    1  A    between atoms: C_1  and  C_2
REMARK    2  A    between atoms: N_5  and  C_6
REMARK    3  A    between atoms: C_6  and  C_7
REMARK    4  A    between atoms: C_9  and  C_10
REMARK    5  A    between atoms: C_19  and  C_20
REMARK                            x       y       z     vdW  Elec       q    Type
REMARK                         _______ _______ _______ _____ _____    ______ ____
ROOT
ATOM      1  C   UNL     1       0.050   9.661  22.954  0.00  0.00    +0.000 C 
ATOM      2  C   UNL     1       0.557   9.506  21.555  0.00  0.00    +0.000 A 
ATOM      3  N   UNL     1       0.463  10.564  20.729  0.00  0.00    +0.000 NA
ATOM      4  C   UNL     1       0.983  10.440  19.504  0.00  0.00    +0.000 A 
ATOM      5  N   UNL     1       0.930  11.490  18.585  0.00  0.00    +0.000 N 
ATOM      6  C   UNL     1       1.580   9.265  19.094  0.00  0.00    +0.000 A 
ATOM      7  C   UNL     1       1.605   8.206  19.984  0.00  0.00    +0.000 A 
ATOM      8  N   UNL     1       1.099   8.322  21.228  0.00  0.00    +0.000 NA
ATOM      9  H   UNL     1       1.859  11.784  18.302  0.00  0.00    +0.000 HD
ENDROOT
BRANCH   7  10
ATOM     10  C   UNL     1       2.192   6.895  19.642  0.00  0.00    +0.000 A 
ATOM     11  C   UNL     1       2.962   6.729  18.480  0.00  0.00    +0.000 A 
ATOM     12  C   UNL     1       3.519   5.490  18.127  0.00  0.00    +0.000 A 
ATOM     13  C   UNL     1       3.302   4.368  18.948  0.00  0.00    +0.000 A 
ATOM     14  N   UNL     1       3.770   3.085  18.719  0.00  0.00    +0.000 NA
ATOM     15  C   UNL     1       3.365   2.293  19.686  0.00  0.00    +0.000 A 
ATOM     16  S   UNL     1       2.432   3.016  20.924  0.00  0.00    +0.000 S 
ATOM     17  C   UNL     1       2.544   4.529  20.108  0.00  0.00    +0.000 A 
ATOM     18  C   UNL     1       1.990   5.771  20.470  0.00  0.00    +0.000 A 
ENDBRANCH   7  10
BRANCH   5  19
ATOM     19  C   UNL     1       0.041  12.613  18.881  0.00  0.00    +0.000 C 
BRANCH  19  20
ATOM     20  C   UNL     1      -1.421  12.364  18.874  0.00  0.00    +0.000 A 
ATOM     21  C   UNL     1      -2.450  12.575  19.758  0.00  0.00    +0.000 A 
ATOM     22  C   UNL     1      -3.603  12.052  19.117  0.00  0.00    +0.000 A 
ATOM     23  N   UNL     1      -3.275  11.544  17.917  0.00  0.00    +0.000 NA
ATOM     24  O   UNL     1      -1.917  11.744  17.769  0.00  0.00    +0.000 OA
BRANCH  22  25
ATOM     25  C   UNL     1      -4.974  12.037  19.622  0.00  0.00    +0.000 A 
ATOM     26  C   UNL     1      -6.019  11.558  18.816  0.00  0.00    +0.000 A 
ATOM     27  C   UNL     1      -7.330  11.537  19.292  0.00  0.00    +0.000 A 
ATOM     28  C   UNL     1      -7.615  11.998  20.575  0.00  0.00    +0.000 A 
ATOM     29  C   UNL     1      -6.586  12.478  21.385  0.00  0.00    +0.000 A 
ATOM     30  C   UNL     1      -5.272  12.495  20.913  0.00  0.00    +0.000 A 
ENDBRANCH  22  25
ENDBRANCH  19  20
ENDBRANCH   5  19
TORSDOF 4
ENDMDL
MODEL 8
REMARK VINA RESULT:      -8.3      6.912      9.103
REMARK  Name = 
REMARK  5 active torsions:
REMARK  status: ('A' for Active; 'I' for Inactive)
REMARK    1  A    between atoms: C_1  and  C_2
REMARK    2  A    between atoms: N_5  and  C_6
REMARK    3  A    between atoms: C_6  and  C_7
REMARK    4  A    between atoms: C_9  and  C_10
REMARK    5  A    between atoms: C_19  and  C_20
REMARK                            x       y       z     vdW  Elec       q    Type
REMARK                         _______ _______ _______ _____ _____    ______ ____
ROOT
ATOM      1  C   UNL     1       7.423   4.891  14.525  0.00  0.00    +0.000 C 
ATOM      2  C   UNL     1       6.811   5.411  15.788  0.00  0.00    +0.000 A 
ATOM      3  N   UNL     1       7.275   6.573  16.282  0.00  0.00    +0.000 NA
ATOM      4  C   UNL     1       6.675   7.066  17.369  0.00  0.00    +0.000 A 
ATOM      5  N   UNL     1       7.093   8.268  17.945  0.00  0.00    +0.000 N 
ATOM      6  C   UNL     1       5.630   6.399  17.976  0.00  0.00    +0.000 A 
ATOM      7  C   UNL     1       5.232   5.190  17.436  0.00  0.00    +0.000 A 
ATOM      8  N   UNL     1       5.818   4.688  16.330  0.00  0.00    +0.000 NA
ATOM      9  H   UNL     1       6.347   8.956  17.951  0.00  0.00    +0.000 HD
ENDROOT
BRANCH   7  10
ATOM     10  C   UNL     1       4.145   4.378  18.019  0.00  0.00    +0.000 A 
ATOM     11  C   UNL     1       3.370   3.526  17.215  0.00  0.00    +0.000 A 
ATOM     12  C   UNL     1       2.323   2.755  17.742  0.00  0.00    +0.000 A 
ATOM     13  C   UNL     1       2.024   2.830  19.115  0.00  0.00    +0.000 A 
ATOM     14  N   UNL     1       1.013   2.146  19.770  0.00  0.00    +0.000 NA
ATOM     15  C   UNL     1       1.021   2.470  21.043  0.00  0.00    +0.000 A 
ATOM     16  S   UNL     1       2.225   3.577  21.542  0.00  0.00    +0.000 S 
ATOM     17  C   UNL     1       2.796   3.668  19.919  0.00  0.00    +0.000 A 
ATOM     18  C   UNL     1       3.851   4.438  19.397  0.00  0.00    +0.000 A 
ENDBRANCH   7  10
BRANCH   5  19
ATOM     19  C   UNL     1       8.376   8.822  17.516  0.00  0.00    +0.000 C 
BRANCH  19  20
ATOM     20  C   UNL     1       8.879  10.032  18.211  0.00  0.00    +0.000 A 
ATOM     21  C   UNL     1       9.080  11.344  17.861  0.00  0.00    +0.000 A 
ATOM     22  C   UNL     1       9.634  11.955  19.015  0.00  0.00    +0.000 A 
ATOM     23  N   UNL     1       9.769  11.050  19.998  0.00  0.00    +0.000 NA
ATOM     24  O   UNL     1       9.294   9.855  19.494  0.00  0.00    +0.000 OA
BRANCH  22  25
ATOM     25  C   UNL     1      10.022  13.354  19.184  0.00  0.00    +0.000 A 
ATOM     26  C   UNL     1       9.539  14.332  18.301  0.00  0.00    +0.000 A 
ATOM     27  C   UNL     1       9.901  15.671  18.457  0.00  0.00    +0.000 A 
ATOM     28  C   UNL     1      10.752  16.048  19.493  0.00  0.00    +0.000 A 
ATOM     29  C   UNL     1      11.241  15.085  20.375  0.00  0.00    +0.000 A 
ATOM     30  C   UNL     1      10.875  13.746  20.225  0.00  0.00    +0.000 A 
ENDBRANCH  22  25
ENDBRANCH  19  20
ENDBRANCH   5  19
TORSDOF 4
ENDMDL
MODEL 9
REMARK VINA RESULT:      -8.2      3.807     11.380
REMARK  Name = 
REMARK  5 active torsions:
REMARK  status: ('A' for Active; 'I' for Inactive)
REMARK    1  A    between atoms: C_1  and  C_2
REMARK    2  A    between atoms: N_5  and  C_6
REMARK    3  A    between atoms: C_6  and  C_7
REMARK    4  A    between atoms: C_9  and  C_10
REMARK    5  A    between atoms: C_19  and  C_20
REMARK                            x       y       z     vdW  Elec       q    Type
REMARK                         _______ _______ _______ _____ _____    ______ ____
ROOT
ATOM      1  C   UNL     1       2.256   5.097  20.661  0.00  0.00    +0.000 C 
ATOM      2  C   UNL     1       2.417   6.316  19.808  0.00  0.00    +0.000 A 
ATOM      3  N   UNL     1       3.411   6.325  18.901  0.00  0.00    +0.000 NA
ATOM      4  C   UNL     1       3.502   7.387  18.095  0.00  0.00    +0.000 A 
ATOM      5  N   UNL     1       4.503   7.476  17.125  0.00  0.00    +0.000 N 
ATOM      6  C   UNL     1       2.622   8.445  18.200  0.00  0.00    +0.000 A 
ATOM      7  C   UNL     1       1.651   8.384  19.182  0.00  0.00    +0.000 A 
ATOM      8  N   UNL     1       1.536   7.312  19.992  0.00  0.00    +0.000 NA
ATOM      9  H   UNL     1       4.111   7.548  16.191  0.00  0.00    +0.000 HD
ENDROOT
BRANCH   7  10
ATOM     10  C   UNL     1       0.675   9.471  19.403  0.00  0.00    +0.000 A 
ATOM     11  C   UNL     1      -0.054  10.016  18.333  0.00  0.00    +0.000 A 
ATOM     12  C   UNL     1      -0.976  11.057  18.516  0.00  0.00    +0.000 A 
ATOM     13  C   UNL     1      -1.185  11.587  19.802  0.00  0.00    +0.000 A 
ATOM     14  N   UNL     1      -2.044  12.623  20.130  0.00  0.00    +0.000 NA
ATOM     15  C   UNL     1      -1.971  12.859  21.421  0.00  0.00    +0.000 A 
ATOM     16  S   UNL     1      -0.906  11.867  22.319  0.00  0.00    +0.000 S 
ATOM     17  C   UNL     1      -0.469  11.045  20.869  0.00  0.00    +0.000 A 
ATOM     18  C   UNL     1       0.451   9.996  20.693  0.00  0.00    +0.000 A 
ENDBRANCH   7  10
BRANCH   5  19
ATOM     19  C   UNL     1       5.617   6.531  17.203  0.00  0.00    +0.000 C 
BRANCH  19  20
ATOM     20  C   UNL     1       5.991   5.793  15.972  0.00  0.00    +0.000 A 
ATOM     21  C   UNL     1       5.339   4.958  15.100  0.00  0.00    +0.000 A 
ATOM     22  C   UNL     1       6.321   4.569  14.152  0.00  0.00    +0.000 A 
ATOM     23  N   UNL     1       7.502   5.134  14.453  0.00  0.00    +0.000 NA
ATOM     24  O   UNL     1       7.290   5.898  15.584  0.00  0.00    +0.000 OA
BRANCH  22  25
ATOM     25  C   UNL     1       6.148   3.692  12.997  0.00  0.00    +0.000 A 
ATOM     26  C   UNL     1       7.264   3.106  12.380  0.00  0.00    +0.000 A 
ATOM     27  C   UNL     1       7.107   2.265  11.279  0.00  0.00    +0.000 A 
ATOM     28  C   UNL     1       5.835   2.003  10.776  0.00  0.00    +0.000 A 
ATOM     29  C   UNL     1       4.718   2.581  11.377  0.00  0.00    +0.000 A 
ATOM     30  C   UNL     1       4.872   3.419  12.484  0.00  0.00    +0.000 A 
ENDBRANCH  22  25
ENDBRANCH  19  20
ENDBRANCH   5  19
TORSDOF 4
ENDMDL
