MODEL 1
REMARK VINA RESULT:      -8.3      0.000      0.000
REMARK  Name = 
REMARK  6 active torsions:
REMARK  status: ('A' for Active; 'I' for Inactive)
REMARK    1  A    between atoms: C_1  and  S_2
REMARK    2  A    between atoms: S_2  and  C_5
REMARK    3  A    between atoms: C_8  and  C_9
REMARK    4  A    between atoms: C_11  and  C_12
REMARK    5  A    between atoms: C_15  and  C_16
REMARK    6  A    between atoms: C_22  and  C_23
REMARK                            x       y       z     vdW  Elec       q    Type
REMARK                         _______ _______ _______ _____ _____    ______ ____
ROOT
ATOM      1  C   UNL     1       0.780  10.326  18.731  0.00  0.00    +0.000 A 
ATOM      2  C   UNL     1      -0.615  10.376  18.745  0.00  0.00    +0.000 A 
ATOM      3  C   UNL     1      -1.287  11.603  18.691  0.00  0.00    +0.000 A 
ATOM      4  C   UNL     1      -0.499  12.752  18.594  0.00  0.00    +0.000 A 
ATOM      5  C   UNL     1       0.888  12.640  18.571  0.00  0.00    +0.000 A 
ATOM      6  N   UNL     1       1.533  11.450  18.627  0.00  0.00    +0.000 NA
ENDROOT
BRANCH   1  10
ATOM      7  C   UNL     1       2.890   6.605  19.129  0.00  0.00    +0.000 A 
ATOM      8  C   UNL     1       2.153   7.100  20.203  0.00  0.00    +0.000 A 
ATOM      9  C   UNL     1       1.472   8.315  20.067  0.00  0.00    +0.000 A 
ATOM     10  C   UNL     1       1.527   9.058  18.872  0.00  0.00    +0.000 A 
ATOM     11  C   UNL     1       2.301   8.536  17.815  0.00  0.00    +0.000 A 
ATOM     12  C   UNL     1       2.986   7.325  17.940  0.00  0.00    +0.000 A 
BRANCH   7  14
ATOM     13  C   UNL     1       3.437   4.310  17.671  0.00  0.00    +0.000 C 
ATOM     14  S   UNL     1       3.714   5.038  19.267  0.00  0.00    +0.000 S 
ATOM     15  O   UNL     1       3.004   4.252  20.255  0.00  0.00    +0.000 OA
ATOM     16  O   UNL     1       5.133   5.300  19.403  0.00  0.00    +0.000 OA
ENDBRANCH   7  14
ENDBRANCH   1  10
BRANCH   3  17
ATOM     17  C   UNL     1      -2.761  11.681  18.767  0.00  0.00    +0.000 A 
ATOM     18  C   UNL     1      -3.402  12.431  19.771  0.00  0.00    +0.000 A 
ATOM     19  C   UNL     1      -4.796  12.515  19.849  0.00  0.00    +0.000 A 
ATOM     20  C   UNL     1      -5.588  11.862  18.902  0.00  0.00    +0.000 A 
ATOM     21  C   UNL     1      -4.975  11.108  17.899  0.00  0.00    +0.000 A 
ATOM     22  C   UNL     1      -3.580  11.020  17.834  0.00  0.00    +0.000 A 
BRANCH  20  23
ATOM     23  C   UNL     1      -7.072  11.925  18.936  0.00  0.00    +0.000 C 
ATOM     24  N   UNL     1      -7.719  11.052  19.766  0.00  0.00    +0.000 N 
ATOM     25  O   UNL     1      -7.695  12.748  18.279  0.00  0.00    +0.000 OA
ATOM     26  H   UNL     1      -7.245  10.544  20.497  0.00  0.00    +0.000 HD
ATOM     27  H   UNL     1      -8.718  11.186  19.859  0.00  0.00    +0.000 HD
ENDBRANCH  20  23
ENDBRANCH   3  17
BRANCH   5  28
ATOM     28  C   UNL     1       1.752  13.814  18.548  0.00  0.00    +0.000 A 
ATOM     29  C   UNL     1       1.556  15.160  18.789  0.00  0.00    +0.000 A 
ATOM     30  C   UNL     1       2.790  15.807  18.527  0.00  0.00    +0.000 A 
ATOM     31  C   UNL     1       3.667  14.817  18.152  0.00  0.00    +0.000 A 
ATOM     32  O   UNL     1       3.052  13.608  18.170  0.00  0.00    +0.000 OA
ENDBRANCH   5  28
TORSDOF 5
ENDMDL
MODEL 2
REMARK VINA RESULT:      -8.2      1.153      1.548
REMARK  Name = 
REMARK  6 active torsions:
REMARK  status: ('A' for Active; 'I' for Inactive)
REMARK    1  A    between atoms: C_1  and  S_2
REMARK    2  A    between atoms: S_2  and  C_5
REMARK    3  A    between atoms: C_8  and  C_9
REMARK    4  A    between atoms: C_11  and  C_12
REMARK    5  A    between atoms: C_15  and  C_16
REMARK    6  A    between atoms: C_22  and  C_23
REMARK                            x       y       z     vdW  Elec       q    Type
REMARK                         _______ _______ _______ _____ _____    ______ ____
ROOT
ATOM      1  C   UNL     1       1.427   9.627  18.543  0.00  0.00    +0.000 A 
ATOM      2  C   UNL     1       0.039   9.666  18.402  0.00  0.00    +0.000 A 
ATOM      3  C   UNL     1      -0.651  10.884  18.458  0.00  0.00    +0.000 A 
ATOM      4  C   UNL     1       0.117  12.038  18.630  0.00  0.00    +0.000 A 
ATOM      5  C   UNL     1       1.499  11.938  18.751  0.00  0.00    +0.000 A 
ATOM      6  N   UNL     1       2.160  10.757  18.700  0.00  0.00    +0.000 NA
ENDROOT
BRANCH   1  10
ATOM      7  C   UNL     1       3.562   5.899  18.614  0.00  0.00    +0.000 A 
ATOM      8  C   UNL     1       2.732   6.241  19.680  0.00  0.00    +0.000 A 
ATOM      9  C   UNL     1       2.043   7.459  19.651  0.00  0.00    +0.000 A 
ATOM     10  C   UNL     1       2.181   8.356  18.575  0.00  0.00    +0.000 A 
ATOM     11  C   UNL     1       3.048   7.985  17.526  0.00  0.00    +0.000 A 
ATOM     12  C   UNL     1       3.741   6.773  17.544  0.00  0.00    +0.000 A 
BRANCH   7  14
ATOM     13  C   UNL     1       4.737   4.077  16.885  0.00  0.00    +0.000 C 
ATOM     14  S   UNL     1       4.399   4.333  18.610  0.00  0.00    +0.000 S 
ATOM     15  O   UNL     1       3.452   3.326  19.042  0.00  0.00    +0.000 OA
ATOM     16  O   UNL     1       5.663   4.511  19.296  0.00  0.00    +0.000 OA
ENDBRANCH   7  14
ENDBRANCH   1  10
BRANCH   3  17
ATOM     17  C   UNL     1      -2.126  10.942  18.373  0.00  0.00    +0.000 A 
ATOM     18  C   UNL     1      -2.851   9.994  17.627  0.00  0.00    +0.000 A 
ATOM     19  C   UNL     1      -4.247  10.038  17.543  0.00  0.00    +0.000 A 
ATOM     20  C   UNL     1      -4.956  11.026  18.228  0.00  0.00    +0.000 A 
ATOM     21  C   UNL     1      -4.257  11.981  18.971  0.00  0.00    +0.000 A 
ATOM     22  C   UNL     1      -2.861  11.937  19.042  0.00  0.00    +0.000 A 
BRANCH  20  23
ATOM     23  C   UNL     1      -6.438  11.113  18.178  0.00  0.00    +0.000 C 
ATOM     24  N   UNL     1      -7.147  10.144  18.833  0.00  0.00    +0.000 N 
ATOM     25  O   UNL     1      -7.009  12.033  17.608  0.00  0.00    +0.000 OA
ATOM     26  H   UNL     1      -6.727   9.529  19.512  0.00  0.00    +0.000 HD
ATOM     27  H   UNL     1      -8.149  10.283  18.882  0.00  0.00    +0.000 HD
ENDBRANCH  20  23
ENDBRANCH   3  17
BRANCH   5  28
ATOM     28  C   UNL     1       2.333  13.106  19.007  0.00  0.00    +0.000 A 
ATOM     29  C   UNL     1       2.997  14.012  18.203  0.00  0.00    +0.000 A 
ATOM     30  C   UNL     1       3.702  14.887  19.067  0.00  0.00    +0.000 A 
ATOM     31  C   UNL     1       3.417  14.471  20.346  0.00  0.00    +0.000 A 
ATOM     32  O   UNL     1       2.583  13.401  20.322  0.00  0.00    +0.000 OA
ENDBRANCH   5  28
TORSDOF 5
ENDMDL
MODEL 3
REMARK VINA RESULT:      -8.2      1.131      1.543
REMARK  Name = 
REMARK  6 active torsions:
REMARK  status: ('A' for Active; 'I' for Inactive)
REMARK    1  A    between atoms: C_1  and  S_2
REMARK    2  A    between atoms: S_2  and  C_5
REMARK    3  A    between atoms: C_8  and  C_9
REMARK    4  A    between atoms: C_11  and  C_12
REMARK    5  A    between atoms: C_15  and  C_16
REMARK    6  A    between atoms: C_22  and  C_23
REMARK                            x       y       z     vdW  Elec       q    Type
REMARK                         _______ _______ _______ _____ _____    ______ ____
ROOT
ATOM      1  C   UNL     1       1.446   9.634  18.553  0.00  0.00    +0.000 A 
ATOM      2  C   UNL     1       0.057   9.690  18.426  0.00  0.00    +0.000 A 
ATOM      3  C   UNL     1      -0.615  10.918  18.476  0.00  0.00    +0.000 A 
ATOM      4  C   UNL     1       0.170  12.063  18.628  0.00  0.00    +0.000 A 
ATOM      5  C   UNL     1       1.552  11.946  18.737  0.00  0.00    +0.000 A 
ATOM      6  N   UNL     1       2.196  10.756  18.692  0.00  0.00    +0.000 NA
ENDROOT
BRANCH   1  10
ATOM      7  C   UNL     1       3.645   5.945  18.688  0.00  0.00    +0.000 A 
ATOM      8  C   UNL     1       3.817   6.813  17.613  0.00  0.00    +0.000 A 
ATOM      9  C   UNL     1       3.095   8.011  17.574  0.00  0.00    +0.000 A 
ATOM     10  C   UNL     1       2.184   8.353  18.591  0.00  0.00    +0.000 A 
ATOM     11  C   UNL     1       2.019   7.438  19.652  0.00  0.00    +0.000 A 
ATOM     12  C   UNL     1       2.734   6.239  19.701  0.00  0.00    +0.000 A 
BRANCH   7  14
ATOM     13  C   UNL     1       4.842   4.039  17.069  0.00  0.00    +0.000 C 
ATOM     14  S   UNL     1       4.596   4.448  18.780  0.00  0.00    +0.000 S 
ATOM     15  O   UNL     1       3.757   3.429  19.375  0.00  0.00    +0.000 OA
ATOM     16  O   UNL     1       5.885   4.782  19.353  0.00  0.00    +0.000 OA
ENDBRANCH   7  14
ENDBRANCH   1  10
BRANCH   3  17
ATOM     17  C   UNL     1      -2.090  10.995  18.404  0.00  0.00    +0.000 A 
ATOM     18  C   UNL     1      -2.808  11.942  19.158  0.00  0.00    +0.000 A 
ATOM     19  C   UNL     1      -4.203  12.026  19.094  0.00  0.00    +0.000 A 
ATOM     20  C   UNL     1      -4.916  11.171  18.250  0.00  0.00    +0.000 A 
ATOM     21  C   UNL     1      -4.224  10.220  17.497  0.00  0.00    +0.000 A 
ATOM     22  C   UNL     1      -2.830  10.134  17.574  0.00  0.00    +0.000 A 
BRANCH  20  23
ATOM     23  C   UNL     1      -6.396  11.224  18.140  0.00  0.00    +0.000 C 
ATOM     24  N   UNL     1      -7.111  10.276  18.819  0.00  0.00    +0.000 N 
ATOM     25  O   UNL     1      -6.962  12.101  17.501  0.00  0.00    +0.000 OA
ATOM     26  H   UNL     1      -6.705   9.706  19.545  0.00  0.00    +0.000 HD
ATOM     27  H   UNL     1      -8.116  10.396  18.824  0.00  0.00    +0.000 HD
ENDBRANCH  20  23
ENDBRANCH   3  17
BRANCH   5  28
ATOM     28  C   UNL     1       2.403  13.105  18.973  0.00  0.00    +0.000 A 
ATOM     29  C   UNL     1       3.097  13.975  18.155  0.00  0.00    +0.000 A 
ATOM     30  C   UNL     1       3.806  14.861  19.005  0.00  0.00    +0.000 A 
ATOM     31  C   UNL     1       3.493  14.487  20.290  0.00  0.00    +0.000 A 
ATOM     32  O   UNL     1       2.639  13.433  20.283  0.00  0.00    +0.000 OA
ENDBRANCH   5  28
TORSDOF 5
ENDMDL
MODEL 4
REMARK VINA RESULT:      -8.1      1.216      1.410
REMARK  Name = 
REMARK  6 active torsions:
REMARK  status: ('A' for Active; 'I' for Inactive)
REMARK    1  A    between atoms: C_1  and  S_2
REMARK    2  A    between atoms: S_2  and  C_5
REMARK    3  A    between atoms: C_8  and  C_9
REMARK    4  A    between atoms: C_11  and  C_12
REMARK    5  A    between atoms: C_15  and  C_16
REMARK    6  A    between atoms: C_22  and  C_23
REMARK                            x       y       z     vdW  Elec       q    Type
REMARK                         _______ _______ _______ _____ _____    ______ ____
ROOT
ATOM      1  C   UNL     1       1.398   9.674  18.542  0.00  0.00    +0.000 A 
ATOM      2  C   UNL     1       0.008   9.717  18.425  0.00  0.00    +0.000 A 
ATOM      3  C   UNL     1      -0.676  10.938  18.482  0.00  0.00    +0.000 A 
ATOM      4  C   UNL     1       0.098  12.091  18.630  0.00  0.00    +0.000 A 
ATOM      5  C   UNL     1       1.482  11.987  18.728  0.00  0.00    +0.000 A 
ATOM      6  N   UNL     1       2.138  10.803  18.677  0.00  0.00    +0.000 NA
ENDROOT
BRANCH   1  10
ATOM      7  C   UNL     1       3.521   5.939  18.612  0.00  0.00    +0.000 A 
ATOM      8  C   UNL     1       2.719   6.299  19.693  0.00  0.00    +0.000 A 
ATOM      9  C   UNL     1       2.034   7.519  19.665  0.00  0.00    +0.000 A 
ATOM     10  C   UNL     1       2.149   8.401  18.573  0.00  0.00    +0.000 A 
ATOM     11  C   UNL     1       2.989   8.013  17.508  0.00  0.00    +0.000 A 
ATOM     12  C   UNL     1       3.678   6.798  17.526  0.00  0.00    +0.000 A 
BRANCH   7  14
ATOM     13  C   UNL     1       3.288   3.364  19.613  0.00  0.00    +0.000 C 
ATOM     14  S   UNL     1       4.353   4.371  18.609  0.00  0.00    +0.000 S 
ATOM     15  O   UNL     1       5.611   4.537  19.306  0.00  0.00    +0.000 OA
ATOM     16  O   UNL     1       4.313   3.857  17.254  0.00  0.00    +0.000 OA
ENDBRANCH   7  14
ENDBRANCH   1  10
BRANCH   3  17
ATOM     17  C   UNL     1      -2.152  11.000  18.421  0.00  0.00    +0.000 A 
ATOM     18  C   UNL     1      -2.871  11.976  19.135  0.00  0.00    +0.000 A 
ATOM     19  C   UNL     1      -4.267  12.046  19.081  0.00  0.00    +0.000 A 
ATOM     20  C   UNL     1      -4.981  11.147  18.286  0.00  0.00    +0.000 A 
ATOM     21  C   UNL     1      -4.289  10.166  17.573  0.00  0.00    +0.000 A 
ATOM     22  C   UNL     1      -2.894  10.095  17.640  0.00  0.00    +0.000 A 
BRANCH  20  23
ATOM     23  C   UNL     1      -6.463  11.182  18.189  0.00  0.00    +0.000 C 
ATOM     24  N   UNL     1      -7.158  10.186  18.817  0.00  0.00    +0.000 N 
ATOM     25  O   UNL     1      -7.046  12.086  17.604  0.00  0.00    +0.000 OA
ATOM     26  H   UNL     1      -6.738   9.583  19.507  0.00  0.00    +0.000 HD
ATOM     27  H   UNL     1      -8.165  10.291  18.835  0.00  0.00    +0.000 HD
ENDBRANCH  20  23
ENDBRANCH   3  17
BRANCH   5  28
ATOM     28  C   UNL     1       2.324  13.155  18.960  0.00  0.00    +0.000 A 
ATOM     29  C   UNL     1       2.970  14.056  18.136  0.00  0.00    +0.000 A 
ATOM     30  C   UNL     1       3.698  14.932  18.980  0.00  0.00    +0.000 A 
ATOM     31  C   UNL     1       3.442  14.522  20.267  0.00  0.00    +0.000 A 
ATOM     32  O   UNL     1       2.605  13.454  20.266  0.00  0.00    +0.000 OA
ENDBRANCH   5  28
TORSDOF 5
ENDMDL
MODEL 5
REMARK VINA RESULT:      -8.1      0.572      1.135
REMARK  Name = 
REMARK  6 active torsions:
REMARK  status: ('A' for Active; 'I' for Inactive)
REMARK    1  A    between atoms: C_1  and  S_2
REMARK    2  A    between atoms: S_2  and  C_5
REMARK    3  A    between atoms: C_8  and  C_9
REMARK    4  A    between atoms: C_11  and  C_12
REMARK    5  A    between atoms: C_15  and  C_16
REMARK    6  A    between atoms: C_22  and  C_23
REMARK                            x       y       z     vdW  Elec       q    Type
REMARK                         _______ _______ _______ _____ _____    ______ ____
ROOT
ATOM      1  C   UNL     1       0.857  10.337  18.665  0.00  0.00    +0.000 A 
ATOM      2  C   UNL     1      -0.536  10.396  18.602  0.00  0.00    +0.000 A 
ATOM      3  C   UNL     1      -1.198  11.629  18.547  0.00  0.00    +0.000 A 
ATOM      4  C   UNL     1      -0.399  12.775  18.528  0.00  0.00    +0.000 A 
ATOM      5  C   UNL     1       0.986  12.654  18.580  0.00  0.00    +0.000 A 
ATOM      6  N   UNL     1       1.620  11.458  18.638  0.00  0.00    +0.000 NA
ENDROOT
BRANCH   1  10
ATOM      7  C   UNL     1       2.920   6.590  19.077  0.00  0.00    +0.000 A 
ATOM      8  C   UNL     1       2.186   7.096  20.147  0.00  0.00    +0.000 A 
ATOM      9  C   UNL     1       1.520   8.319  20.007  0.00  0.00    +0.000 A 
ATOM     10  C   UNL     1       1.587   9.060  18.811  0.00  0.00    +0.000 A 
ATOM     11  C   UNL     1       2.359   8.527  17.758  0.00  0.00    +0.000 A 
ATOM     12  C   UNL     1       3.029   7.307  17.886  0.00  0.00    +0.000 A 
BRANCH   7  14
ATOM     13  C   UNL     1       3.456   4.293  17.619  0.00  0.00    +0.000 C 
ATOM     14  S   UNL     1       3.724   5.014  19.220  0.00  0.00    +0.000 S 
ATOM     15  O   UNL     1       2.994   4.234  20.198  0.00  0.00    +0.000 OA
ATOM     16  O   UNL     1       5.144   5.260  19.372  0.00  0.00    +0.000 OA
ENDBRANCH   7  14
ENDBRANCH   1  10
BRANCH   3  17
ATOM     17  C   UNL     1      -2.674  11.715  18.541  0.00  0.00    +0.000 A 
ATOM     18  C   UNL     1      -3.431  11.180  17.482  0.00  0.00    +0.000 A 
ATOM     19  C   UNL     1      -4.828  11.253  17.469  0.00  0.00    +0.000 A 
ATOM     20  C   UNL     1      -5.506  11.848  18.535  0.00  0.00    +0.000 A 
ATOM     21  C   UNL     1      -4.774  12.391  19.594  0.00  0.00    +0.000 A 
ATOM     22  C   UNL     1      -3.377  12.324  19.595  0.00  0.00    +0.000 A 
BRANCH  20  23
ATOM     23  C   UNL     1      -6.988  11.945  18.573  0.00  0.00    +0.000 C 
ATOM     24  N   UNL     1      -7.643  11.188  19.504  0.00  0.00    +0.000 N 
ATOM     25  O   UNL     1      -7.601  12.700  17.830  0.00  0.00    +0.000 OA
ATOM     26  H   UNL     1      -7.172  10.760  20.286  0.00  0.00    +0.000 HD
ATOM     27  H   UNL     1      -8.639  11.353  19.590  0.00  0.00    +0.000 HD
ENDBRANCH  20  23
ENDBRANCH   3  17
BRANCH   5  28
ATOM     28  C   UNL     1       1.856  13.822  18.641  0.00  0.00    +0.000 A 
ATOM     29  C   UNL     1       3.080  14.142  18.086  0.00  0.00    +0.000 A 
ATOM     30  C   UNL     1       3.437  15.418  18.590  0.00  0.00    +0.000 A 
ATOM     31  C   UNL     1       2.405  15.805  19.412  0.00  0.00    +0.000 A 
ATOM     32  O   UNL     1       1.440  14.852  19.442  0.00  0.00    +0.000 OA
ENDBRANCH   5  28
TORSDOF 5
ENDMDL
MODEL 6
REMARK VINA RESULT:      -8.1      0.708      1.215
REMARK  Name = 
REMARK  6 active torsions:
REMARK  status: ('A' for Active; 'I' for Inactive)
REMARK    1  A    between atoms: C_1  and  S_2
REMARK    2  A    between atoms: S_2  and  C_5
REMARK    3  A    between atoms: C_8  and  C_9
REMARK    4  A    between atoms: C_11  and  C_12
REMARK    5  A    between atoms: C_15  and  C_16
REMARK    6  A    between atoms: C_22  and  C_23
REMARK                            x       y       z     vdW  Elec       q    Type
REMARK                         _______ _______ _______ _____ _____    ______ ____
ROOT
ATOM      1  C   UNL     1       0.874  10.244  18.652  0.00  0.00    +0.000 A 
ATOM      2  C   UNL     1      -0.521  10.292  18.661  0.00  0.00    +0.000 A 
ATOM      3  C   UNL     1      -1.193  11.521  18.655  0.00  0.00    +0.000 A 
ATOM      4  C   UNL     1      -0.405  12.673  18.610  0.00  0.00    +0.000 A 
ATOM      5  C   UNL     1       0.981  12.563  18.589  0.00  0.00    +0.000 A 
ATOM      6  N   UNL     1       1.627  11.372  18.599  0.00  0.00    +0.000 NA
ENDROOT
BRANCH   1  10
ATOM      7  C   UNL     1       2.985   6.510  18.904  0.00  0.00    +0.000 A 
ATOM      8  C   UNL     1       2.223   6.948  19.985  0.00  0.00    +0.000 A 
ATOM      9  C   UNL     1       1.541   8.167  19.897  0.00  0.00    +0.000 A 
ATOM     10  C   UNL     1       1.621   8.971  18.744  0.00  0.00    +0.000 A 
ATOM     11  C   UNL     1       2.421   8.506  17.679  0.00  0.00    +0.000 A 
ATOM     12  C   UNL     1       3.105   7.291  17.756  0.00  0.00    +0.000 A 
BRANCH   7  14
ATOM     13  C   UNL     1       5.498   5.401  19.281  0.00  0.00    +0.000 C 
ATOM     14  S   UNL     1       3.809   4.940  18.979  0.00  0.00    +0.000 S 
ATOM     15  O   UNL     1       3.730   4.337  17.665  0.00  0.00    +0.000 OA
ATOM     16  O   UNL     1       3.317   4.242  20.151  0.00  0.00    +0.000 OA
ENDBRANCH   7  14
ENDBRANCH   1  10
BRANCH   3  17
ATOM     17  C   UNL     1      -2.668  11.595  18.726  0.00  0.00    +0.000 A 
ATOM     18  C   UNL     1      -3.479  10.815  17.881  0.00  0.00    +0.000 A 
ATOM     19  C   UNL     1      -4.876  10.875  17.943  0.00  0.00    +0.000 A 
ATOM     20  C   UNL     1      -5.498  11.708  18.876  0.00  0.00    +0.000 A 
ATOM     21  C   UNL     1      -4.712  12.495  19.722  0.00  0.00    +0.000 A 
ATOM     22  C   UNL     1      -3.317  12.438  19.647  0.00  0.00    +0.000 A 
BRANCH  20  23
ATOM     23  C   UNL     1      -6.976  11.803  18.988  0.00  0.00    +0.000 C 
ATOM     24  N   UNL     1      -7.610  10.865  19.754  0.00  0.00    +0.000 N 
ATOM     25  O   UNL     1      -7.604  12.705  18.449  0.00  0.00    +0.000 OA
ATOM     26  H   UNL     1      -7.118  10.273  20.406  0.00  0.00    +0.000 HD
ATOM     27  H   UNL     1      -8.600  11.013  19.909  0.00  0.00    +0.000 HD
ENDBRANCH  20  23
ENDBRANCH   3  17
BRANCH   5  28
ATOM     28  C   UNL     1       1.845  13.737  18.619  0.00  0.00    +0.000 A 
ATOM     29  C   UNL     1       1.652  15.068  18.938  0.00  0.00    +0.000 A 
ATOM     30  C   UNL     1       2.882  15.729  18.695  0.00  0.00    +0.000 A 
ATOM     31  C   UNL     1       3.754  14.762  18.255  0.00  0.00    +0.000 A 
ATOM     32  O   UNL     1       3.140  13.553  18.214  0.00  0.00    +0.000 OA
ENDBRANCH   5  28
TORSDOF 5
ENDMDL
MODEL 7
REMARK VINA RESULT:      -8.1      1.145      1.790
REMARK  Name = 
REMARK  6 active torsions:
REMARK  status: ('A' for Active; 'I' for Inactive)
REMARK    1  A    between atoms: C_1  and  S_2
REMARK    2  A    between atoms: S_2  and  C_5
REMARK    3  A    between atoms: C_8  and  C_9
REMARK    4  A    between atoms: C_11  and  C_12
REMARK    5  A    between atoms: C_15  and  C_16
REMARK    6  A    between atoms: C_22  and  C_23
REMARK                            x       y       z     vdW  Elec       q    Type
REMARK                         _______ _______ _______ _____ _____    ______ ____
ROOT
ATOM      1  C   UNL     1       1.379   9.682  18.517  0.00  0.00    +0.000 A 
ATOM      2  C   UNL     1      -0.010   9.712  18.387  0.00  0.00    +0.000 A 
ATOM      3  C   UNL     1      -0.707  10.926  18.448  0.00  0.00    +0.000 A 
ATOM      4  C   UNL     1       0.055  12.085  18.614  0.00  0.00    +0.000 A 
ATOM      5  C   UNL     1       1.439  11.994  18.724  0.00  0.00    +0.000 A 
ATOM      6  N   UNL     1       2.107  10.817  18.669  0.00  0.00    +0.000 NA
ENDROOT
BRANCH   1  10
ATOM      7  C   UNL     1       3.651   6.036  18.619  0.00  0.00    +0.000 A 
ATOM      8  C   UNL     1       3.787   6.905  17.538  0.00  0.00    +0.000 A 
ATOM      9  C   UNL     1       3.040   8.089  17.510  0.00  0.00    +0.000 A 
ATOM     10  C   UNL     1       2.142   8.415  18.544  0.00  0.00    +0.000 A 
ATOM     11  C   UNL     1       2.014   7.500  19.609  0.00  0.00    +0.000 A 
ATOM     12  C   UNL     1       2.754   6.315  19.648  0.00  0.00    +0.000 A 
BRANCH   7  14
ATOM     13  C   UNL     1       3.660   3.500  19.740  0.00  0.00    +0.000 C 
ATOM     14  S   UNL     1       4.632   4.559  18.695  0.00  0.00    +0.000 S 
ATOM     15  O   UNL     1       5.861   4.880  19.391  0.00  0.00    +0.000 OA
ATOM     16  O   UNL     1       4.657   3.980  17.366  0.00  0.00    +0.000 OA
ENDBRANCH   7  14
ENDBRANCH   1  10
BRANCH   3  17
ATOM     17  C   UNL     1      -2.183  10.974  18.374  0.00  0.00    +0.000 A 
ATOM     18  C   UNL     1      -2.907  10.031  17.621  0.00  0.00    +0.000 A 
ATOM     19  C   UNL     1      -4.303  10.066  17.547  0.00  0.00    +0.000 A 
ATOM     20  C   UNL     1      -5.015  11.041  18.250  0.00  0.00    +0.000 A 
ATOM     21  C   UNL     1      -4.317  11.990  19.000  0.00  0.00    +0.000 A 
ATOM     22  C   UNL     1      -2.920  11.956  19.061  0.00  0.00    +0.000 A 
BRANCH  20  23
ATOM     23  C   UNL     1      -6.498  11.118  18.211  0.00  0.00    +0.000 C 
ATOM     24  N   UNL     1      -7.195  10.148  18.876  0.00  0.00    +0.000 N 
ATOM     25  O   UNL     1      -7.079  12.032  17.641  0.00  0.00    +0.000 OA
ATOM     26  H   UNL     1      -6.765   9.538  19.555  0.00  0.00    +0.000 HD
ATOM     27  H   UNL     1      -8.197  10.281  18.933  0.00  0.00    +0.000 HD
ENDBRANCH  20  23
ENDBRANCH   3  17
BRANCH   5  28
ATOM     28  C   UNL     1       2.267  13.167  18.974  0.00  0.00    +0.000 A 
ATOM     29  C   UNL     1       2.220  14.204  19.885  0.00  0.00    +0.000 A 
ATOM     30  C   UNL     1       3.284  15.083  19.561  0.00  0.00    +0.000 A 
ATOM     31  C   UNL     1       3.923  14.524  18.480  0.00  0.00    +0.000 A 
ATOM     32  O   UNL     1       3.323  13.361  18.123  0.00  0.00    +0.000 OA
ENDBRANCH   5  28
TORSDOF 5
ENDMDL
MODEL 8
REMARK VINA RESULT:      -8.1      1.406      1.838
REMARK  Name = 
REMARK  6 active torsions:
REMARK  status: ('A' for Active; 'I' for Inactive)
REMARK    1  A    between atoms: C_1  and  S_2
REMARK    2  A    between atoms: S_2  and  C_5
REMARK    3  A    between atoms: C_8  and  C_9
REMARK    4  A    between atoms: C_11  and  C_12
REMARK    5  A    between atoms: C_15  and  C_16
REMARK    6  A    between atoms: C_22  and  C_23
REMARK                            x       y       z     vdW  Elec       q    Type
REMARK                         _______ _______ _______ _____ _____    ______ ____
ROOT
ATOM      1  C   UNL     1       1.519   9.621  18.503  0.00  0.00    +0.000 A 
ATOM      2  C   UNL     1       0.132   9.662  18.354  0.00  0.00    +0.000 A 
ATOM      3  C   UNL     1      -0.559  10.879  18.421  0.00  0.00    +0.000 A 
ATOM      4  C   UNL     1       0.207  12.031  18.612  0.00  0.00    +0.000 A 
ATOM      5  C   UNL     1       1.589  11.930  18.740  0.00  0.00    +0.000 A 
ATOM      6  N   UNL     1       2.251  10.750  18.679  0.00  0.00    +0.000 NA
ENDROOT
BRANCH   1  10
ATOM      7  C   UNL     1       3.655   5.893  18.540  0.00  0.00    +0.000 A 
ATOM      8  C   UNL     1       2.815   6.219  19.603  0.00  0.00    +0.000 A 
ATOM      9  C   UNL     1       2.126   7.437  19.586  0.00  0.00    +0.000 A 
ATOM     10  C   UNL     1       2.274   8.350  18.523  0.00  0.00    +0.000 A 
ATOM     11  C   UNL     1       3.150   7.995  17.477  0.00  0.00    +0.000 A 
ATOM     12  C   UNL     1       3.844   6.782  17.484  0.00  0.00    +0.000 A 
BRANCH   7  14
ATOM     13  C   UNL     1       3.348   3.264  19.366  0.00  0.00    +0.000 C 
ATOM     14  S   UNL     1       4.492   4.328  18.521  0.00  0.00    +0.000 S 
ATOM     15  O   UNL     1       5.682   4.455  19.337  0.00  0.00    +0.000 OA
ATOM     16  O   UNL     1       4.577   3.893  17.141  0.00  0.00    +0.000 OA
ENDBRANCH   7  14
ENDBRANCH   1  10
BRANCH   3  17
ATOM     17  C   UNL     1      -2.033  10.937  18.327  0.00  0.00    +0.000 A 
ATOM     18  C   UNL     1      -2.752  10.009  17.551  0.00  0.00    +0.000 A 
ATOM     19  C   UNL     1      -4.147  10.053  17.459  0.00  0.00    +0.000 A 
ATOM     20  C   UNL     1      -4.863  11.022  18.165  0.00  0.00    +0.000 A 
ATOM     21  C   UNL     1      -4.170  11.957  18.938  0.00  0.00    +0.000 A 
ATOM     22  C   UNL     1      -2.774  11.914  19.017  0.00  0.00    +0.000 A 
BRANCH  20  23
ATOM     23  C   UNL     1      -6.344  11.108  18.107  0.00  0.00    +0.000 C 
ATOM     24  N   UNL     1      -6.886  12.095  17.331  0.00  0.00    +0.000 N 
ATOM     25  O   UNL     1      -7.058  10.307  18.696  0.00  0.00    +0.000 OA
ATOM     26  H   UNL     1      -6.350  12.603  16.644  0.00  0.00    +0.000 HD
ATOM     27  H   UNL     1      -7.892  12.067  17.215  0.00  0.00    +0.000 HD
ENDBRANCH  20  23
ENDBRANCH   3  17
BRANCH   5  28
ATOM     28  C   UNL     1       2.421  13.095  19.017  0.00  0.00    +0.000 A 
ATOM     29  C   UNL     1       3.154  13.964  18.233  0.00  0.00    +0.000 A 
ATOM     30  C   UNL     1       3.810  14.858  19.116  0.00  0.00    +0.000 A 
ATOM     31  C   UNL     1       3.429  14.489  20.384  0.00  0.00    +0.000 A 
ATOM     32  O   UNL     1       2.582  13.431  20.335  0.00  0.00    +0.000 OA
ENDBRANCH   5  28
TORSDOF 5
ENDMDL
MODEL 9
REMARK VINA RESULT:      -8.1      2.294      2.785
REMARK  Name = 
REMARK  6 active torsions:
REMARK  status: ('A' for Active; 'I' for Inactive)
REMARK    1  A    between atoms: C_1  and  S_2
REMARK    2  A    between atoms: S_2  and  C_5
REMARK    3  A    between atoms: C_8  and  C_9
REMARK    4  A    between atoms: C_11  and  C_12
REMARK    5  A    between atoms: C_15  and  C_16
REMARK    6  A    between atoms: C_22  and  C_23
REMARK                            x       y       z     vdW  Elec       q    Type
REMARK                         _______ _______ _______ _____ _____    ______ ____
ROOT
ATOM      1  C   UNL     1       0.696  10.956  19.463  0.00  0.00    +0.000 A 
ATOM      2  C   UNL     1      -0.471  11.078  20.219  0.00  0.00    +0.000 A 
ATOM      3  C   UNL     1      -0.993  12.340  20.530  0.00  0.00    +0.000 A 
ATOM      4  C   UNL     1      -0.309  13.449  20.024  0.00  0.00    +0.000 A 
ATOM      5  C   UNL     1       0.842  13.265  19.265  0.00  0.00    +0.000 A 
ATOM      6  N   UNL     1       1.345  12.041  18.972  0.00  0.00    +0.000 NA
ENDROOT
BRANCH   1  10
ATOM      7  C   UNL     1       2.586   7.179  18.672  0.00  0.00    +0.000 A 
ATOM      8  C   UNL     1       2.506   8.137  17.663  0.00  0.00    +0.000 A 
ATOM      9  C   UNL     1       1.885   9.363  17.927  0.00  0.00    +0.000 A 
ATOM     10  C   UNL     1       1.325   9.646  19.187  0.00  0.00    +0.000 A 
ATOM     11  C   UNL     1       1.404   8.643  20.176  0.00  0.00    +0.000 A 
ATOM     12  C   UNL     1       2.021   7.415  19.924  0.00  0.00    +0.000 A 
BRANCH   7  14
ATOM     13  C   UNL     1       2.074   4.531  18.030  0.00  0.00    +0.000 C 
ATOM     14  S   UNL     1       3.419   5.641  18.369  0.00  0.00    +0.000 S 
ATOM     15  O   UNL     1       4.047   5.229  19.607  0.00  0.00    +0.000 OA
ATOM     16  O   UNL     1       4.194   5.794  17.154  0.00  0.00    +0.000 OA
ENDBRANCH   7  14
ENDBRANCH   1  10
BRANCH   3  17
ATOM     17  C   UNL     1      -2.192  12.493  21.380  0.00  0.00    +0.000 A 
ATOM     18  C   UNL     1      -2.146  12.231  22.762  0.00  0.00    +0.000 A 
ATOM     19  C   UNL     1      -3.274  12.376  23.575  0.00  0.00    +0.000 A 
ATOM     20  C   UNL     1      -4.480  12.813  23.024  0.00  0.00    +0.000 A 
ATOM     21  C   UNL     1      -4.552  13.074  21.653  0.00  0.00    +0.000 A 
ATOM     22  C   UNL     1      -3.422  12.916  20.844  0.00  0.00    +0.000 A 
BRANCH  20  23
ATOM     23  C   UNL     1      -5.706  12.990  23.845  0.00  0.00    +0.000 C 
ATOM     24  N   UNL     1      -6.054  14.268  24.186  0.00  0.00    +0.000 N 
ATOM     25  O   UNL     1      -6.402  12.039  24.173  0.00  0.00    +0.000 OA
ATOM     26  H   UNL     1      -5.660  15.078  23.733  0.00  0.00    +0.000 HD
ATOM     27  H   UNL     1      -6.949  14.376  24.647  0.00  0.00    +0.000 HD
ENDBRANCH  20  23
ENDBRANCH   3  17
BRANCH   5  28
ATOM     28  C   UNL     1       1.630  14.392  18.782  0.00  0.00    +0.000 A 
ATOM     29  C   UNL     1       1.448  15.761  18.770  0.00  0.00    +0.000 A 
ATOM     30  C   UNL     1       2.557  16.316  18.084  0.00  0.00    +0.000 A 
ATOM     31  C   UNL     1       3.355  15.254  17.729  0.00  0.00    +0.000 A 
ATOM     32  O   UNL     1       2.809  14.088  18.154  0.00  0.00    +0.000 OA
ENDBRANCH   5  28
TORSDOF 5
ENDMDL
