MODEL 1
REMARK VINA RESULT:      -8.5      0.000      0.000
REMARK  Name = 
REMARK  5 active torsions:
REMARK  status: ('A' for Active; 'I' for Inactive)
REMARK    1  A    between atoms: C_2  and  C_20
REMARK    2  A    between atoms: N_3  and  C_4
REMARK    3  A    between atoms: C_7  and  S_8
REMARK    4  A    between atoms: S_8  and  N_11
REMARK    5  A    between atoms: N_11  and  C_12
REMARK                            x       y       z     vdW  Elec       q    Type
REMARK                         _______ _______ _______ _____ _____    ______ ____
ROOT
ATOM      1  C   UNL     1       7.969   7.419  18.362  0.00  0.00    +0.000 A 
ATOM      2  C   UNL     1       7.247   7.529  17.170  0.00  0.00    +0.000 A 
ATOM      3  C   UNL     1       6.393   6.516  16.739  0.00  0.00    +0.000 A 
ATOM      4  C   UNL     1       6.270   5.352  17.493  0.00  0.00    +0.000 A 
ATOM      5  C   UNL     1       6.987   5.211  18.685  0.00  0.00    +0.000 A 
ATOM      6  C   UNL     1       7.852   6.238  19.108  0.00  0.00    +0.000 A 
ENDROOT
BRANCH   1   9
ATOM      7  O   UNL     1       7.791  10.268  17.771  0.00  0.00    +0.000 OA
ATOM      8  C   UNL     1       8.692   9.790  18.460  0.00  0.00    +0.000 C 
ATOM      9  N   UNL     1       8.811   8.458  18.827  0.00  0.00    +0.000 N 
ATOM     10  H   UNL     1       9.505   8.257  19.543  0.00  0.00    +0.000 HD
BRANCH   8  11
ATOM     11  C   UNL     1       9.741  10.725  18.976  0.00  0.00    +0.000 A 
ATOM     12  C   UNL     1      10.736  11.145  18.093  0.00  0.00    +0.000 A 
ATOM     13  C   UNL     1      11.756  11.955  18.572  0.00  0.00    +0.000 A 
ATOM     14  C   UNL     1      11.752  12.319  19.910  0.00  0.00    +0.000 A 
ATOM     15  C   UNL     1      10.714  11.866  20.716  0.00  0.00    +0.000 A 
ATOM     16  N   UNL     1       9.693  11.081  20.290  0.00  0.00    +0.000 NA
ENDBRANCH   8  11
ENDBRANCH   1   9
BRANCH   4  17
ATOM     17  S   UNL     1       5.133   4.095  16.945  0.00  0.00    +0.000 S 
ATOM     18  O   UNL     1       3.878   4.750  16.644  0.00  0.00    +0.000 OA
ATOM     19  O   UNL     1       5.808   3.276  15.956  0.00  0.00    +0.000 OA
BRANCH  17  20
ATOM     20  N   UNL     1       4.851   3.166  18.327  0.00  0.00    +0.000 N 
ATOM     21  H   UNL     1       5.417   2.321  18.360  0.00  0.00    +0.000 HD
BRANCH  20  22
ATOM     22  C   UNL     1       3.551   3.127  18.896  0.00  0.00    +0.000 A 
ATOM     23  C   UNL     1       2.602   2.238  18.393  0.00  0.00    +0.000 A 
ATOM     24  C   UNL     1       1.310   2.225  18.920  0.00  0.00    +0.000 A 
ATOM     25  C   UNL     1       0.975   3.089  19.963  0.00  0.00    +0.000 A 
ATOM     26  C   UNL     1       1.926   3.973  20.470  0.00  0.00    +0.000 A 
ATOM     27  C   UNL     1       3.214   4.003  19.926  0.00  0.00    +0.000 A 
ENDBRANCH  20  22
ENDBRANCH  17  20
ENDBRANCH   4  17
TORSDOF 5
ENDMDL
MODEL 2
REMARK VINA RESULT:      -8.4      1.094      1.670
REMARK  Name = 
REMARK  5 active torsions:
REMARK  status: ('A' for Active; 'I' for Inactive)
REMARK    1  A    between atoms: C_2  and  C_20
REMARK    2  A    between atoms: N_3  and  C_4
REMARK    3  A    between atoms: C_7  and  S_8
REMARK    4  A    between atoms: S_8  and  N_11
REMARK    5  A    between atoms: N_11  and  C_12
REMARK                            x       y       z     vdW  Elec       q    Type
REMARK                         _______ _______ _______ _____ _____    ______ ____
ROOT
ATOM      1  C   UNL     1       7.924   7.500  18.347  0.00  0.00    +0.000 A 
ATOM      2  C   UNL     1       7.076   7.661  17.247  0.00  0.00    +0.000 A 
ATOM      3  C   UNL     1       6.157   6.678  16.886  0.00  0.00    +0.000 A 
ATOM      4  C   UNL     1       6.092   5.494  17.615  0.00  0.00    +0.000 A 
ATOM      5  C   UNL     1       6.935   5.302  18.714  0.00  0.00    +0.000 A 
ATOM      6  C   UNL     1       7.865   6.299  19.067  0.00  0.00    +0.000 A 
ENDROOT
BRANCH   1   9
ATOM      7  O   UNL     1       7.786  10.359  17.795  0.00  0.00    +0.000 OA
ATOM      8  C   UNL     1       8.728   9.846  18.399  0.00  0.00    +0.000 C 
ATOM      9  N   UNL     1       8.837   8.507  18.743  0.00  0.00    +0.000 N 
ATOM     10  H   UNL     1       9.584   8.277  19.394  0.00  0.00    +0.000 HD
BRANCH   8  11
ATOM     11  C   UNL     1       9.848  10.743  18.828  0.00  0.00    +0.000 A 
ATOM     12  C   UNL     1       9.939  11.078  20.178  0.00  0.00    +0.000 A 
ATOM     13  C   UNL     1      10.927  11.964  20.582  0.00  0.00    +0.000 A 
ATOM     14  C   UNL     1      11.790  12.486  19.630  0.00  0.00    +0.000 A 
ATOM     15  C   UNL     1      11.636  12.087  18.308  0.00  0.00    +0.000 A 
ATOM     16  N   UNL     1      10.690  11.218  17.870  0.00  0.00    +0.000 NA
ENDBRANCH   8  11
ENDBRANCH   1   9
BRANCH   4  17
ATOM     17  S   UNL     1       4.873   4.277  17.162  0.00  0.00    +0.000 S 
ATOM     18  O   UNL     1       4.937   4.117  15.725  0.00  0.00    +0.000 OA
ATOM     19  O   UNL     1       5.018   3.140  18.051  0.00  0.00    +0.000 OA
BRANCH  17  20
ATOM     20  N   UNL     1       3.398   5.036  17.478  0.00  0.00    +0.000 N 
ATOM     21  H   UNL     1       3.425   6.040  17.316  0.00  0.00    +0.000 HD
BRANCH  20  22
ATOM     22  C   UNL     1       2.560   4.545  18.514  0.00  0.00    +0.000 A 
ATOM     23  C   UNL     1       2.667   5.074  19.799  0.00  0.00    +0.000 A 
ATOM     24  C   UNL     1       1.876   4.566  20.831  0.00  0.00    +0.000 A 
ATOM     25  C   UNL     1       0.966   3.541  20.570  0.00  0.00    +0.000 A 
ATOM     26  C   UNL     1       0.855   3.017  19.283  0.00  0.00    +0.000 A 
ATOM     27  C   UNL     1       1.664   3.510  18.254  0.00  0.00    +0.000 A 
ENDBRANCH  20  22
ENDBRANCH  17  20
ENDBRANCH   4  17
TORSDOF 5
ENDMDL
MODEL 3
REMARK VINA RESULT:      -8.4      0.602      1.674
REMARK  Name = 
REMARK  5 active torsions:
REMARK  status: ('A' for Active; 'I' for Inactive)
REMARK    1  A    between atoms: C_2  and  C_20
REMARK    2  A    between atoms: N_3  and  C_4
REMARK    3  A    between atoms: C_7  and  S_8
REMARK    4  A    between atoms: S_8  and  N_11
REMARK    5  A    between atoms: N_11  and  C_12
REMARK                            x       y       z     vdW  Elec       q    Type
REMARK                         _______ _______ _______ _____ _____    ______ ____
ROOT
ATOM      1  C   UNL     1       7.895   7.439  18.352  0.00  0.00    +0.000 A 
ATOM      2  C   UNL     1       7.922   6.152  18.899  0.00  0.00    +0.000 A 
ATOM      3  C   UNL     1       7.080   5.144  18.432  0.00  0.00    +0.000 A 
ATOM      4  C   UNL     1       6.170   5.423  17.417  0.00  0.00    +0.000 A 
ATOM      5  C   UNL     1       6.114   6.704  16.858  0.00  0.00    +0.000 A 
ATOM      6  C   UNL     1       6.965   7.717  17.341  0.00  0.00    +0.000 A 
ENDROOT
BRANCH   1   9
ATOM      7  O   UNL     1       7.821  10.276  17.687  0.00  0.00    +0.000 OA
ATOM      8  C   UNL     1       8.700   9.785  18.394  0.00  0.00    +0.000 C 
ATOM      9  N   UNL     1       8.771   8.459  18.795  0.00  0.00    +0.000 N 
ATOM     10  H   UNL     1       9.454   8.252  19.520  0.00  0.00    +0.000 HD
BRANCH   8  11
ATOM     11  C   UNL     1       9.780  10.695  18.891  0.00  0.00    +0.000 A 
ATOM     12  C   UNL     1       9.767  11.051  20.239  0.00  0.00    +0.000 A 
ATOM     13  C   UNL     1      10.717  11.950  20.703  0.00  0.00    +0.000 A 
ATOM     14  C   UNL     1      11.646  12.463  19.811  0.00  0.00    +0.000 A 
ATOM     15  C   UNL     1      11.594  12.044  18.487  0.00  0.00    +0.000 A 
ATOM     16  N   UNL     1      10.690  11.162  17.992  0.00  0.00    +0.000 NA
ENDBRANCH   8  11
ENDBRANCH   1   9
BRANCH   4  17
ATOM     17  S   UNL     1       5.141   4.103  16.804  0.00  0.00    +0.000 S 
ATOM     18  O   UNL     1       3.872   4.687  16.426  0.00  0.00    +0.000 OA
ATOM     19  O   UNL     1       5.920   3.324  15.861  0.00  0.00    +0.000 OA
BRANCH  17  20
ATOM     20  N   UNL     1       4.829   3.159  18.170  0.00  0.00    +0.000 N 
ATOM     21  H   UNL     1       5.300   2.258  18.146  0.00  0.00    +0.000 HD
BRANCH  20  22
ATOM     22  C   UNL     1       3.562   3.239  18.805  0.00  0.00    +0.000 A 
ATOM     23  C   UNL     1       3.343   4.199  19.794  0.00  0.00    +0.000 A 
ATOM     24  C   UNL     1       2.114   4.255  20.451  0.00  0.00    +0.000 A 
ATOM     25  C   UNL     1       1.098   3.364  20.106  0.00  0.00    +0.000 A 
ATOM     26  C   UNL     1       1.315   2.409  19.112  0.00  0.00    +0.000 A 
ATOM     27  C   UNL     1       2.554   2.337  18.470  0.00  0.00    +0.000 A 
ENDBRANCH  20  22
ENDBRANCH  17  20
ENDBRANCH   4  17
TORSDOF 5
ENDMDL
MODEL 4
REMARK VINA RESULT:      -8.3      0.355      1.022
REMARK  Name = 
REMARK  5 active torsions:
REMARK  status: ('A' for Active; 'I' for Inactive)
REMARK    1  A    between atoms: C_2  and  C_20
REMARK    2  A    between atoms: N_3  and  C_4
REMARK    3  A    between atoms: C_7  and  S_8
REMARK    4  A    between atoms: S_8  and  N_11
REMARK    5  A    between atoms: N_11  and  C_12
REMARK                            x       y       z     vdW  Elec       q    Type
REMARK                         _______ _______ _______ _____ _____    ______ ____
ROOT
ATOM      1  C   UNL     1       7.945   7.513  18.410  0.00  0.00    +0.000 A 
ATOM      2  C   UNL     1       7.958   6.244  18.997  0.00  0.00    +0.000 A 
ATOM      3  C   UNL     1       7.119   5.226  18.548  0.00  0.00    +0.000 A 
ATOM      4  C   UNL     1       6.226   5.477  17.510  0.00  0.00    +0.000 A 
ATOM      5  C   UNL     1       6.186   6.739  16.910  0.00  0.00    +0.000 A 
ATOM      6  C   UNL     1       7.034   7.763  17.375  0.00  0.00    +0.000 A 
ENDROOT
BRANCH   1   9
ATOM      7  O   UNL     1       7.852  10.342  17.711  0.00  0.00    +0.000 OA
ATOM      8  C   UNL     1       8.739   9.864  18.418  0.00  0.00    +0.000 C 
ATOM      9  N   UNL     1       8.819   8.543  18.834  0.00  0.00    +0.000 N 
ATOM     10  H   UNL     1       9.507   8.349  19.557  0.00  0.00    +0.000 HD
BRANCH   8  11
ATOM     11  C   UNL     1       9.816  10.786  18.897  0.00  0.00    +0.000 A 
ATOM     12  C   UNL     1      10.752  11.240  17.968  0.00  0.00    +0.000 A 
ATOM     13  C   UNL     1      11.798  12.038  18.408  0.00  0.00    +0.000 A 
ATOM     14  C   UNL     1      11.878  12.357  19.755  0.00  0.00    +0.000 A 
ATOM     15  C   UNL     1      10.895  11.872  20.610  0.00  0.00    +0.000 A 
ATOM     16  N   UNL     1       9.851  11.097  20.223  0.00  0.00    +0.000 NA
ENDBRANCH   8  11
ENDBRANCH   1   9
BRANCH   4  17
ATOM     17  S   UNL     1       5.202   4.142  16.922  0.00  0.00    +0.000 S 
ATOM     18  O   UNL     1       3.929   4.714  16.537  0.00  0.00    +0.000 OA
ATOM     19  O   UNL     1       5.982   3.350  15.990  0.00  0.00    +0.000 OA
BRANCH  17  20
ATOM     20  N   UNL     1       4.896   3.220  18.304  0.00  0.00    +0.000 N 
ATOM     21  H   UNL     1       5.292   2.285  18.253  0.00  0.00    +0.000 HD
BRANCH  20  22
ATOM     22  C   UNL     1       3.680   3.399  19.014  0.00  0.00    +0.000 A 
ATOM     23  C   UNL     1       2.658   2.459  18.882  0.00  0.00    +0.000 A 
ATOM     24  C   UNL     1       1.444   2.651  19.545  0.00  0.00    +0.000 A 
ATOM     25  C   UNL     1       1.262   3.772  20.354  0.00  0.00    +0.000 A 
ATOM     26  C   UNL     1       2.288   4.708  20.491  0.00  0.00    +0.000 A 
ATOM     27  C   UNL     1       3.494   4.529  19.809  0.00  0.00    +0.000 A 
ENDBRANCH  20  22
ENDBRANCH  17  20
ENDBRANCH   4  17
TORSDOF 5
ENDMDL
MODEL 5
REMARK VINA RESULT:      -8.2      0.969      1.010
REMARK  Name = 
REMARK  5 active torsions:
REMARK  status: ('A' for Active; 'I' for Inactive)
REMARK    1  A    between atoms: C_2  and  C_20
REMARK    2  A    between atoms: N_3  and  C_4
REMARK    3  A    between atoms: C_7  and  S_8
REMARK    4  A    between atoms: S_8  and  N_11
REMARK    5  A    between atoms: N_11  and  C_12
REMARK                            x       y       z     vdW  Elec       q    Type
REMARK                         _______ _______ _______ _____ _____    ______ ____
ROOT
ATOM      1  C   UNL     1       8.122   7.677  18.489  0.00  0.00    +0.000 A 
ATOM      2  C   UNL     1       7.209   7.780  17.435  0.00  0.00    +0.000 A 
ATOM      3  C   UNL     1       6.317   6.750  17.140  0.00  0.00    +0.000 A 
ATOM      4  C   UNL     1       6.348   5.578  17.889  0.00  0.00    +0.000 A 
ATOM      5  C   UNL     1       7.257   5.443  18.943  0.00  0.00    +0.000 A 
ATOM      6  C   UNL     1       8.158   6.487  19.229  0.00  0.00    +0.000 A 
ENDROOT
BRANCH   1   9
ATOM      7  O   UNL     1       7.894  10.495  17.777  0.00  0.00    +0.000 OA
ATOM      8  C   UNL     1       8.855  10.045  18.401  0.00  0.00    +0.000 C 
ATOM      9  N   UNL     1       9.007   8.732  18.819  0.00  0.00    +0.000 N 
ATOM     10  H   UNL     1       9.765   8.561  19.475  0.00  0.00    +0.000 HD
BRANCH   8  11
ATOM     11  C   UNL     1       9.951  10.997  18.767  0.00  0.00    +0.000 A 
ATOM     12  C   UNL     1      10.712  11.549  17.737  0.00  0.00    +0.000 A 
ATOM     13  C   UNL     1      11.776  12.378  18.061  0.00  0.00    +0.000 A 
ATOM     14  C   UNL     1      12.047  12.629  19.398  0.00  0.00    +0.000 A 
ATOM     15  C   UNL     1      11.229  12.048  20.360  0.00  0.00    +0.000 A 
ATOM     16  N   UNL     1      10.174  11.239  20.088  0.00  0.00    +0.000 NA
ENDBRANCH   8  11
ENDBRANCH   1   9
BRANCH   4  17
ATOM     17  S   UNL     1       5.163   4.298  17.523  0.00  0.00    +0.000 S 
ATOM     18  O   UNL     1       5.264   4.010  16.108  0.00  0.00    +0.000 OA
ATOM     19  O   UNL     1       5.310   3.249  18.515  0.00  0.00    +0.000 OA
BRANCH  17  20
ATOM     20  N   UNL     1       3.666   5.051  17.737  0.00  0.00    +0.000 N 
ATOM     21  H   UNL     1       3.734   6.065  17.776  0.00  0.00    +0.000 HD
BRANCH  20  22
ATOM     22  C   UNL     1       2.662   4.413  18.512  0.00  0.00    +0.000 A 
ATOM     23  C   UNL     1       1.944   3.347  17.972  0.00  0.00    +0.000 A 
ATOM     24  C   UNL     1       0.928   2.744  18.714  0.00  0.00    +0.000 A 
ATOM     25  C   UNL     1       0.644   3.195  20.002  0.00  0.00    +0.000 A 
ATOM     26  C   UNL     1       1.368   4.257  20.545  0.00  0.00    +0.000 A 
ATOM     27  C   UNL     1       2.370   4.877  19.793  0.00  0.00    +0.000 A 
ENDBRANCH  20  22
ENDBRANCH  17  20
ENDBRANCH   4  17
TORSDOF 5
ENDMDL
MODEL 6
REMARK VINA RESULT:      -8.2      1.485      1.859
REMARK  Name = 
REMARK  5 active torsions:
REMARK  status: ('A' for Active; 'I' for Inactive)
REMARK    1  A    between atoms: C_2  and  C_20
REMARK    2  A    between atoms: N_3  and  C_4
REMARK    3  A    between atoms: C_7  and  S_8
REMARK    4  A    between atoms: S_8  and  N_11
REMARK    5  A    between atoms: N_11  and  C_12
REMARK                            x       y       z     vdW  Elec       q    Type
REMARK                         _______ _______ _______ _____ _____    ______ ____
ROOT
ATOM      1  C   UNL     1       7.856   8.368  17.798  0.00  0.00    +0.000 A 
ATOM      2  C   UNL     1       8.284   7.262  18.540  0.00  0.00    +0.000 A 
ATOM      3  C   UNL     1       7.529   6.093  18.605  0.00  0.00    +0.000 A 
ATOM      4  C   UNL     1       6.307   6.024  17.942  0.00  0.00    +0.000 A 
ATOM      5  C   UNL     1       5.851   7.117  17.200  0.00  0.00    +0.000 A 
ATOM      6  C   UNL     1       6.618   8.297  17.145  0.00  0.00    +0.000 A 
ENDROOT
BRANCH   1   9
ATOM      7  O   UNL     1       8.959   9.979  19.963  0.00  0.00    +0.000 OA
ATOM      8  C   UNL     1       9.082  10.289  18.778  0.00  0.00    +0.000 C 
ATOM      9  N   UNL     1       8.633   9.547  17.696  0.00  0.00    +0.000 N 
ATOM     10  H   UNL     1       8.969   9.847  16.784  0.00  0.00    +0.000 HD
BRANCH   8  11
ATOM     11  C   UNL     1       9.803  11.563  18.466  0.00  0.00    +0.000 A 
ATOM     12  C   UNL     1      11.071  11.476  17.893  0.00  0.00    +0.000 A 
ATOM     13  C   UNL     1      11.783  12.644  17.662  0.00  0.00    +0.000 A 
ATOM     14  C   UNL     1      11.210  13.858  18.008  0.00  0.00    +0.000 A 
ATOM     15  C   UNL     1       9.935  13.854  18.562  0.00  0.00    +0.000 A 
ATOM     16  N   UNL     1       9.200  12.738  18.797  0.00  0.00    +0.000 NA
ENDBRANCH   8  11
ENDBRANCH   1   9
BRANCH   4  17
ATOM     17  S   UNL     1       5.387   4.499  18.000  0.00  0.00    +0.000 S 
ATOM     18  O   UNL     1       5.685   3.770  16.786  0.00  0.00    +0.000 OA
ATOM     19  O   UNL     1       5.589   3.899  19.305  0.00  0.00    +0.000 OA
BRANCH  17  20
ATOM     20  N   UNL     1       3.776   4.987  17.864  0.00  0.00    +0.000 N 
ATOM     21  H   UNL     1       3.675   5.988  17.716  0.00  0.00    +0.000 HD
BRANCH  20  22
ATOM     22  C   UNL     1       2.771   4.311  18.606  0.00  0.00    +0.000 A 
ATOM     23  C   UNL     1       2.279   3.089  18.150  0.00  0.00    +0.000 A 
ATOM     24  C   UNL     1       1.262   2.441  18.853  0.00  0.00    +0.000 A 
ATOM     25  C   UNL     1       0.752   3.008  20.021  0.00  0.00    +0.000 A 
ATOM     26  C   UNL     1       1.250   4.227  20.480  0.00  0.00    +0.000 A 
ATOM     27  C   UNL     1       2.252   4.888  19.764  0.00  0.00    +0.000 A 
ENDBRANCH  20  22
ENDBRANCH  17  20
ENDBRANCH   4  17
TORSDOF 5
ENDMDL
MODEL 7
REMARK VINA RESULT:      -8.1      1.462      1.847
REMARK  Name = 
REMARK  5 active torsions:
REMARK  status: ('A' for Active; 'I' for Inactive)
REMARK    1  A    between atoms: C_2  and  C_20
REMARK    2  A    between atoms: N_3  and  C_4
REMARK    3  A    between atoms: C_7  and  S_8
REMARK    4  A    between atoms: S_8  and  N_11
REMARK    5  A    between atoms: N_11  and  C_12
REMARK                            x       y       z     vdW  Elec       q    Type
REMARK                         _______ _______ _______ _____ _____    ______ ____
ROOT
ATOM      1  C   UNL     1       7.885   8.367  17.806  0.00  0.00    +0.000 A 
ATOM      2  C   UNL     1       6.689   8.233  17.095  0.00  0.00    +0.000 A 
ATOM      3  C   UNL     1       5.921   7.073  17.176  0.00  0.00    +0.000 A 
ATOM      4  C   UNL     1       6.360   6.009  17.958  0.00  0.00    +0.000 A 
ATOM      5  C   UNL     1       7.556   6.112  18.673  0.00  0.00    +0.000 A 
ATOM      6  C   UNL     1       8.330   7.286  18.580  0.00  0.00    +0.000 A 
ENDROOT
BRANCH   1   9
ATOM      7  O   UNL     1       8.930   9.914  20.046  0.00  0.00    +0.000 OA
ATOM      8  C   UNL     1       9.076  10.263  18.875  0.00  0.00    +0.000 C 
ATOM      9  N   UNL     1       8.655   9.555  17.760  0.00  0.00    +0.000 N 
ATOM     10  H   UNL     1       9.008   9.887  16.866  0.00  0.00    +0.000 HD
BRANCH   8  11
ATOM     11  C   UNL     1       9.793  11.553  18.621  0.00  0.00    +0.000 A 
ATOM     12  C   UNL     1      10.860  11.543  17.723  0.00  0.00    +0.000 A 
ATOM     13  C   UNL     1      11.580  12.712  17.527  0.00  0.00    +0.000 A 
ATOM     14  C   UNL     1      11.216  13.850  18.232  0.00  0.00    +0.000 A 
ATOM     15  C   UNL     1      10.131  13.774  19.097  0.00  0.00    +0.000 A 
ATOM     16  N   UNL     1       9.394  12.655  19.312  0.00  0.00    +0.000 NA
ENDBRANCH   8  11
ENDBRANCH   1   9
BRANCH   4  17
ATOM     17  S   UNL     1       5.332   4.559  18.083  0.00  0.00    +0.000 S 
ATOM     18  O   UNL     1       5.484   3.816  16.850  0.00  0.00    +0.000 OA
ATOM     19  O   UNL     1       5.582   3.937  19.369  0.00  0.00    +0.000 OA
BRANCH  17  20
ATOM     20  N   UNL     1       3.757   5.169  18.065  0.00  0.00    +0.000 N 
ATOM     21  H   UNL     1       3.724   6.185  18.096  0.00  0.00    +0.000 HD
BRANCH  20  22
ATOM     22  C   UNL     1       2.714   4.442  18.698  0.00  0.00    +0.000 A 
ATOM     23  C   UNL     1       2.254   4.843  19.951  0.00  0.00    +0.000 A 
ATOM     24  C   UNL     1       1.258   4.109  20.596  0.00  0.00    +0.000 A 
ATOM     25  C   UNL     1       0.710   2.985  19.978  0.00  0.00    +0.000 A 
ATOM     26  C   UNL     1       1.166   2.588  18.721  0.00  0.00    +0.000 A 
ATOM     27  C   UNL     1       2.180   3.310  18.085  0.00  0.00    +0.000 A 
ENDBRANCH  20  22
ENDBRANCH  17  20
ENDBRANCH   4  17
TORSDOF 5
ENDMDL
MODEL 8
REMARK VINA RESULT:      -8.1      4.985      7.573
REMARK  Name = 
REMARK  5 active torsions:
REMARK  status: ('A' for Active; 'I' for Inactive)
REMARK    1  A    between atoms: C_2  and  C_20
REMARK    2  A    between atoms: N_3  and  C_4
REMARK    3  A    between atoms: C_7  and  S_8
REMARK    4  A    between atoms: S_8  and  N_11
REMARK    5  A    between atoms: N_11  and  C_12
REMARK                            x       y       z     vdW  Elec       q    Type
REMARK                         _______ _______ _______ _____ _____    ______ ____
ROOT
ATOM      1  C   UNL     1       1.939   7.406  20.080  0.00  0.00    +0.000 A 
ATOM      2  C   UNL     1       1.871   6.237  20.844  0.00  0.00    +0.000 A 
ATOM      3  C   UNL     1       2.308   5.013  20.340  0.00  0.00    +0.000 A 
ATOM      4  C   UNL     1       2.800   4.939  19.040  0.00  0.00    +0.000 A 
ATOM      5  C   UNL     1       2.871   6.091  18.252  0.00  0.00    +0.000 A 
ATOM      6  C   UNL     1       2.421   7.322  18.767  0.00  0.00    +0.000 A 
ENDROOT
BRANCH   1   9
ATOM      7  O   UNL     1      -0.505   8.035  21.540  0.00  0.00    +0.000 OA
ATOM      8  C   UNL     1       0.325   8.892  21.239  0.00  0.00    +0.000 C 
ATOM      9  N   UNL     1       1.532   8.661  20.595  0.00  0.00    +0.000 N 
ATOM     10  H   UNL     1       2.182   9.443  20.581  0.00  0.00    +0.000 HD
BRANCH   8  11
ATOM     11  C   UNL     1       0.029  10.309  21.621  0.00  0.00    +0.000 A 
ATOM     12  C   UNL     1      -0.867  10.533  22.666  0.00  0.00    +0.000 A 
ATOM     13  C   UNL     1      -1.207  11.839  22.988  0.00  0.00    +0.000 A 
ATOM     14  C   UNL     1      -0.646  12.877  22.259  0.00  0.00    +0.000 A 
ATOM     15  C   UNL     1       0.248  12.564  21.242  0.00  0.00    +0.000 A 
ATOM     16  N   UNL     1       0.616  11.304  20.900  0.00  0.00    +0.000 NA
ENDBRANCH   8  11
ENDBRANCH   1   9
BRANCH   4  17
ATOM     17  S   UNL     1       3.398   3.371  18.441  0.00  0.00    +0.000 S 
ATOM     18  O   UNL     1       2.841   2.343  19.293  0.00  0.00    +0.000 OA
ATOM     19  O   UNL     1       3.212   3.337  17.003  0.00  0.00    +0.000 OA
BRANCH  17  20
ATOM     20  N   UNL     1       5.053   3.407  18.780  0.00  0.00    +0.000 N 
ATOM     21  H   UNL     1       5.275   3.063  19.711  0.00  0.00    +0.000 HD
BRANCH  20  22
ATOM     22  C   UNL     1       5.861   4.439  18.233  0.00  0.00    +0.000 A 
ATOM     23  C   UNL     1       6.497   5.343  19.084  0.00  0.00    +0.000 A 
ATOM     24  C   UNL     1       7.258   6.384  18.550  0.00  0.00    +0.000 A 
ATOM     25  C   UNL     1       7.398   6.507  17.168  0.00  0.00    +0.000 A 
ATOM     26  C   UNL     1       6.768   5.599  16.319  0.00  0.00    +0.000 A 
ATOM     27  C   UNL     1       5.985   4.570  16.851  0.00  0.00    +0.000 A 
ENDBRANCH  20  22
ENDBRANCH  17  20
ENDBRANCH   4  17
TORSDOF 5
ENDMDL
MODEL 9
REMARK VINA RESULT:      -8.1      1.347      1.982
REMARK  Name = 
REMARK  5 active torsions:
REMARK  status: ('A' for Active; 'I' for Inactive)
REMARK    1  A    between atoms: C_2  and  C_20
REMARK    2  A    between atoms: N_3  and  C_4
REMARK    3  A    between atoms: C_7  and  S_8
REMARK    4  A    between atoms: S_8  and  N_11
REMARK    5  A    between atoms: N_11  and  C_12
REMARK                            x       y       z     vdW  Elec       q    Type
REMARK                         _______ _______ _______ _____ _____    ______ ____
ROOT
ATOM      1  C   UNL     1       8.103   8.241  18.071  0.00  0.00    +0.000 A 
ATOM      2  C   UNL     1       8.374   7.101  18.834  0.00  0.00    +0.000 A 
ATOM      3  C   UNL     1       7.536   5.988  18.802  0.00  0.00    +0.000 A 
ATOM      4  C   UNL     1       6.388   6.012  18.015  0.00  0.00    +0.000 A 
ATOM      5  C   UNL     1       6.088   7.142  17.249  0.00  0.00    +0.000 A 
ATOM      6  C   UNL     1       6.938   8.265  17.293  0.00  0.00    +0.000 A 
ENDROOT
BRANCH   1   9
ATOM      7  O   UNL     1       8.855   9.927  20.328  0.00  0.00    +0.000 OA
ATOM      8  C   UNL     1       9.239  10.148  19.179  0.00  0.00    +0.000 C 
ATOM      9  N   UNL     1       8.967   9.363  18.069  0.00  0.00    +0.000 N 
ATOM     10  H   UNL     1       9.502   9.580  17.232  0.00  0.00    +0.000 HD
BRANCH   8  11
ATOM     11  C   UNL     1      10.097  11.354  18.955  0.00  0.00    +0.000 A 
ATOM     12  C   UNL     1      10.403  11.706  17.641  0.00  0.00    +0.000 A 
ATOM     13  C   UNL     1      11.254  12.778  17.417  0.00  0.00    +0.000 A 
ATOM     14  C   UNL     1      11.772  13.463  18.505  0.00  0.00    +0.000 A 
ATOM     15  C   UNL     1      11.404  13.052  19.781  0.00  0.00    +0.000 A 
ATOM     16  N   UNL     1      10.569  12.016  20.047  0.00  0.00    +0.000 NA
ENDBRANCH   8  11
ENDBRANCH   1   9
BRANCH   4  17
ATOM     17  S   UNL     1       5.362   4.557  17.954  0.00  0.00    +0.000 S 
ATOM     18  O   UNL     1       5.592   3.922  16.674  0.00  0.00    +0.000 OA
ATOM     19  O   UNL     1       5.538   3.827  19.195  0.00  0.00    +0.000 OA
BRANCH  17  20
ATOM     20  N   UNL     1       3.788   5.166  17.892  0.00  0.00    +0.000 N 
ATOM     21  H   UNL     1       3.756   6.181  17.850  0.00  0.00    +0.000 HD
BRANCH  20  22
ATOM     22  C   UNL     1       2.744   4.488  18.576  0.00  0.00    +0.000 A 
ATOM     23  C   UNL     1       2.335   4.935  19.831  0.00  0.00    +0.000 A 
ATOM     24  C   UNL     1       1.338   4.248  20.526  0.00  0.00    +0.000 A 
ATOM     25  C   UNL     1       0.739   3.126  19.954  0.00  0.00    +0.000 A 
ATOM     26  C   UNL     1       1.144   2.683  18.695  0.00  0.00    +0.000 A 
ATOM     27  C   UNL     1       2.159   3.357  18.010  0.00  0.00    +0.000 A 
ENDBRANCH  20  22
ENDBRANCH  17  20
ENDBRANCH   4  17
TORSDOF 5
ENDMDL
