MODEL 1
REMARK VINA RESULT:      -8.2      0.000      0.000
REMARK  Name = 
REMARK  3 active torsions:
REMARK  status: ('A' for Active; 'I' for Inactive)
REMARK    1  A    between atoms: C_1  and  C_2
REMARK    2  A    between atoms: C_18  and  O_19
REMARK    3  A    between atoms: C_20  and  O_21
REMARK                            x       y       z     vdW  Elec       q    Type
REMARK                         _______ _______ _______ _____ _____    ______ ____
ROOT
ATOM      1  C   UNL     1       1.891   5.123  21.031  0.00  0.00    +0.000 C 
ATOM      2  C   UNL     1       2.564   5.652  19.787  0.00  0.00    +0.000 A 
ATOM      3  C   UNL     1       3.352   4.711  19.105  0.00  0.00    +0.000 A 
ATOM      4  C   UNL     1       4.055   5.033  17.952  0.00  0.00    +0.000 A 
ATOM      5  C   UNL     1       4.868   4.058  17.347  0.00  0.00    +0.000 A 
ATOM      6  C   UNL     1       5.647   4.360  16.237  0.00  0.00    +0.000 A 
ATOM      7  C   UNL     1       5.615   5.644  15.718  0.00  0.00    +0.000 A 
ATOM      8  C   UNL     1       4.771   6.603  16.289  0.00  0.00    +0.000 A 
ATOM      9  C   UNL     1       3.946   6.330  17.416  0.00  0.00    +0.000 A 
ATOM     10  C   UNL     1       3.055   7.280  18.038  0.00  0.00    +0.000 A 
ATOM     11  C   UNL     1       2.779   8.517  17.410  0.00  0.00    +0.000 A 
ATOM     12  C   UNL     1       1.951   9.483  17.962  0.00  0.00    +0.000 A 
ATOM     13  C   UNL     1       1.398   9.274  19.217  0.00  0.00    +0.000 A 
ATOM     14  C   UNL     1       1.663   8.065  19.909  0.00  0.00    +0.000 A 
ATOM     15  C   UNL     1       2.413   6.992  19.289  0.00  0.00    +0.000 A 
ATOM     16  C   UNL     1       1.176   8.025  21.308  0.00  0.00    +0.000 C 
ATOM     17  C   UNL     1       0.150   8.778  21.731  0.00  0.00    +0.000 C 
ATOM     18  C   UNL     1      -0.493   9.788  20.834  0.00  0.00    +0.000 C 
ATOM     19  C   UNL     1       0.547  10.359  19.837  0.00  0.00    +0.000 C 
ENDROOT
BRANCH  18  20
ATOM     20  O   UNL     1      -1.004  10.833  21.662  0.00  0.00    +0.000 OA
ATOM     21  H   UNL     1      -0.750  11.662  21.208  0.00  0.00    +0.000 HD
ENDBRANCH  18  20
BRANCH  19  22
ATOM     22  O   UNL     1       1.399  11.286  20.539  0.00  0.00    +0.000 OA
ATOM     23  H   UNL     1       1.483  10.949  21.450  0.00  0.00    +0.000 HD
ENDBRANCH  19  22
TORSDOF 2
ENDMDL
MODEL 2
REMARK VINA RESULT:      -7.9      3.361      6.672
REMARK  Name = 
REMARK  3 active torsions:
REMARK  status: ('A' for Active; 'I' for Inactive)
REMARK    1  A    between atoms: C_1  and  C_2
REMARK    2  A    between atoms: C_18  and  O_19
REMARK    3  A    between atoms: C_20  and  O_21
REMARK                            x       y       z     vdW  Elec       q    Type
REMARK                         _______ _______ _______ _____ _____    ______ ____
ROOT
ATOM      1  C   UNL     1       3.937   6.962  16.684  0.00  0.00    +0.000 C 
ATOM      2  C   UNL     1       3.105   7.209  17.920  0.00  0.00    +0.000 A 
ATOM      3  C   UNL     1       2.615   8.520  18.041  0.00  0.00    +0.000 A 
ATOM      4  C   UNL     1       1.847   8.925  19.124  0.00  0.00    +0.000 A 
ATOM      5  C   UNL     1       1.433  10.266  19.210  0.00  0.00    +0.000 A 
ATOM      6  C   UNL     1       0.728  10.730  20.314  0.00  0.00    +0.000 A 
ATOM      7  C   UNL     1       0.427   9.852  21.342  0.00  0.00    +0.000 A 
ATOM      8  C   UNL     1       0.797   8.507  21.237  0.00  0.00    +0.000 A 
ATOM      9  C   UNL     1       1.504   7.988  20.117  0.00  0.00    +0.000 A 
ATOM     10  C   UNL     1       1.904   6.609  19.957  0.00  0.00    +0.000 A 
ATOM     11  C   UNL     1       1.408   5.616  20.834  0.00  0.00    +0.000 A 
ATOM     12  C   UNL     1       1.767   4.279  20.751  0.00  0.00    +0.000 A 
ATOM     13  C   UNL     1       2.699   3.879  19.804  0.00  0.00    +0.000 A 
ATOM     14  C   UNL     1       3.253   4.836  18.916  0.00  0.00    +0.000 A 
ATOM     15  C   UNL     1       2.788   6.207  18.902  0.00  0.00    +0.000 A 
ATOM     16  C   UNL     1       4.368   4.336  18.075  0.00  0.00    +0.000 C 
ATOM     17  C   UNL     1       4.505   3.039  17.767  0.00  0.00    +0.000 C 
ATOM     18  C   UNL     1       3.598   2.001  18.349  0.00  0.00    +0.000 C 
ATOM     19  C   UNL     1       3.130   2.431  19.762  0.00  0.00    +0.000 C 
ENDROOT
BRANCH  18  20
ATOM     20  O   UNL     1       4.335   0.781  18.425  0.00  0.00    +0.000 OA
ATOM     21  H   UNL     1       5.219   1.041  18.756  0.00  0.00    +0.000 HD
ENDBRANCH  18  20
BRANCH  19  22
ATOM     22  O   UNL     1       4.218   2.233  20.688  0.00  0.00    +0.000 OA
ATOM     23  H   UNL     1       4.129   1.324  21.028  0.00  0.00    +0.000 HD
ENDBRANCH  19  22
TORSDOF 2
ENDMDL
MODEL 3
REMARK VINA RESULT:      -7.7      1.421      3.644
REMARK  Name = 
REMARK  3 active torsions:
REMARK  status: ('A' for Active; 'I' for Inactive)
REMARK    1  A    between atoms: C_1  and  C_2
REMARK    2  A    between atoms: C_18  and  O_19
REMARK    3  A    between atoms: C_20  and  O_21
REMARK                            x       y       z     vdW  Elec       q    Type
REMARK                         _______ _______ _______ _____ _____    ______ ____
ROOT
ATOM      1  C   UNL     1       4.134   7.303  17.084  0.00  0.00    +0.000 C 
ATOM      2  C   UNL     1       3.501   6.583  18.251  0.00  0.00    +0.000 A 
ATOM      3  C   UNL     1       3.983   5.280  18.464  0.00  0.00    +0.000 A 
ATOM      4  C   UNL     1       3.499   4.471  19.482  0.00  0.00    +0.000 A 
ATOM      5  C   UNL     1       3.987   3.158  19.607  0.00  0.00    +0.000 A 
ATOM      6  C   UNL     1       3.474   2.290  20.564  0.00  0.00    +0.000 A 
ATOM      7  C   UNL     1       2.470   2.732  21.408  0.00  0.00    +0.000 A 
ATOM      8  C   UNL     1       2.015   4.052  21.317  0.00  0.00    +0.000 A 
ATOM      9  C   UNL     1       2.525   4.977  20.363  0.00  0.00    +0.000 A 
ATOM     10  C   UNL     1       2.095   6.349  20.231  0.00  0.00    +0.000 A 
ATOM     11  C   UNL     1       1.270   6.937  21.218  0.00  0.00    +0.000 A 
ATOM     12  C   UNL     1       0.804   8.242  21.143  0.00  0.00    +0.000 A 
ATOM     13  C   UNL     1       1.103   9.010  20.028  0.00  0.00    +0.000 A 
ATOM     14  C   UNL     1       1.902   8.465  18.991  0.00  0.00    +0.000 A 
ATOM     15  C   UNL     1       2.507   7.155  19.118  0.00  0.00    +0.000 A 
ATOM     16  C   UNL     1       2.004   9.303  17.772  0.00  0.00    +0.000 C 
ATOM     17  C   UNL     1       1.837  10.633  17.803  0.00  0.00    +0.000 C 
ATOM     18  C   UNL     1       1.428  11.336  19.059  0.00  0.00    +0.000 C 
ATOM     19  C   UNL     1       0.539  10.410  19.926  0.00  0.00    +0.000 C 
ENDROOT
BRANCH  18  20
ATOM     20  O   UNL     1       0.697  12.503  18.678  0.00  0.00    +0.000 OA
ATOM     21  H   UNL     1       1.101  13.232  19.190  0.00  0.00    +0.000 HD
ENDBRANCH  18  20
BRANCH  19  22
ATOM     22  O   UNL     1      -0.776  10.349  19.338  0.00  0.00    +0.000 OA
ATOM     23  H   UNL     1      -0.873  11.151  18.794  0.00  0.00    +0.000 HD
ENDBRANCH  19  22
TORSDOF 2
ENDMDL
MODEL 4
REMARK VINA RESULT:      -7.4      2.875      6.772
REMARK  Name = 
REMARK  3 active torsions:
REMARK  status: ('A' for Active; 'I' for Inactive)
REMARK    1  A    between atoms: C_1  and  C_2
REMARK    2  A    between atoms: C_18  and  O_19
REMARK    3  A    between atoms: C_20  and  O_21
REMARK                            x       y       z     vdW  Elec       q    Type
REMARK                         _______ _______ _______ _____ _____    ______ ____
ROOT
ATOM      1  C   UNL     1       2.485   9.199  17.261  0.00  0.00    +0.000 C 
ATOM      2  C   UNL     1       1.940   8.853  18.627  0.00  0.00    +0.000 A 
ATOM      3  C   UNL     1       1.150   9.858  19.212  0.00  0.00    +0.000 A 
ATOM      4  C   UNL     1       0.584   9.714  20.470  0.00  0.00    +0.000 A 
ATOM      5  C   UNL     1      -0.152  10.779  21.020  0.00  0.00    +0.000 A 
ATOM      6  C   UNL     1      -0.670  10.704  22.307  0.00  0.00    +0.000 A 
ATOM      7  C   UNL     1      -0.459   9.559  23.055  0.00  0.00    +0.000 A 
ATOM      8  C   UNL     1       0.233   8.480  22.494  0.00  0.00    +0.000 A 
ATOM      9  C   UNL     1       0.765   8.508  21.175  0.00  0.00    +0.000 A 
ATOM     10  C   UNL     1       1.480   7.422  20.548  0.00  0.00    +0.000 A 
ATOM     11  C   UNL     1       1.506   6.142  21.150  0.00  0.00    +0.000 A 
ATOM     12  C   UNL     1       2.190   5.062  20.613  0.00  0.00    +0.000 A 
ATOM     13  C   UNL     1       2.940   5.233  19.459  0.00  0.00    +0.000 A 
ATOM     14  C   UNL     1       2.976   6.502  18.826  0.00  0.00    +0.000 A 
ATOM     15  C   UNL     1       2.160   7.601  19.297  0.00  0.00    +0.000 A 
ATOM     16  C   UNL     1       3.949   6.618  17.713  0.00  0.00    +0.000 C 
ATOM     17  C   UNL     1       4.362   5.553  17.010  0.00  0.00    +0.000 C 
ATOM     18  C   UNL     1       3.946   4.165  17.385  0.00  0.00    +0.000 C 
ATOM     19  C   UNL     1       3.733   4.065  18.916  0.00  0.00    +0.000 C 
ENDROOT
BRANCH  18  20
ATOM     20  O   UNL     1       4.989   3.280  16.976  0.00  0.00    +0.000 OA
ATOM     21  H   UNL     1       5.722   3.865  16.695  0.00  0.00    +0.000 HD
ENDBRANCH  18  20
BRANCH  19  22
ATOM     22  O   UNL     1       5.022   4.027  19.561  0.00  0.00    +0.000 OA
ATOM     23  H   UNL     1       5.670   4.334  18.901  0.00  0.00    +0.000 HD
ENDBRANCH  19  22
TORSDOF 2
ENDMDL
MODEL 5
REMARK VINA RESULT:      -7.3      9.505     11.335
REMARK  Name = 
REMARK  3 active torsions:
REMARK  status: ('A' for Active; 'I' for Inactive)
REMARK    1  A    between atoms: C_1  and  C_2
REMARK    2  A    between atoms: C_18  and  O_19
REMARK    3  A    between atoms: C_20  and  O_21
REMARK                            x       y       z     vdW  Elec       q    Type
REMARK                         _______ _______ _______ _____ _____    ______ ____
ROOT
ATOM      1  C   UNL     1      10.172  16.177  21.580  0.00  0.00    +0.000 C 
ATOM      2  C   UNL     1       9.628  14.852  22.059  0.00  0.00    +0.000 A 
ATOM      3  C   UNL     1       8.932  14.914  23.278  0.00  0.00    +0.000 A 
ATOM      4  C   UNL     1       8.381  13.787  23.873  0.00  0.00    +0.000 A 
ATOM      5  C   UNL     1       7.742  13.910  25.120  0.00  0.00    +0.000 A 
ATOM      6  C   UNL     1       7.245  12.796  25.784  0.00  0.00    +0.000 A 
ATOM      7  C   UNL     1       7.378  11.546  25.202  0.00  0.00    +0.000 A 
ATOM      8  C   UNL     1       7.971  11.427  23.941  0.00  0.00    +0.000 A 
ATOM      9  C   UNL     1       8.478  12.544  23.219  0.00  0.00    +0.000 A 
ATOM     10  C   UNL     1       9.093  12.477  21.915  0.00  0.00    +0.000 A 
ATOM     11  C   UNL     1       9.028  11.284  21.156  0.00  0.00    +0.000 A 
ATOM     12  C   UNL     1       9.614  11.144  19.907  0.00  0.00    +0.000 A 
ATOM     13  C   UNL     1      10.352  12.192  19.377  0.00  0.00    +0.000 A 
ATOM     14  C   UNL     1      10.477  13.402  20.104  0.00  0.00    +0.000 A 
ATOM     15  C   UNL     1       9.760  13.612  21.345  0.00  0.00    +0.000 A 
ATOM     16  C   UNL     1      11.434  14.380  19.533  0.00  0.00    +0.000 C 
ATOM     17  C   UNL     1      11.748  14.396  18.229  0.00  0.00    +0.000 C 
ATOM     18  C   UNL     1      11.230  13.350  17.293  0.00  0.00    +0.000 C 
ATOM     19  C   UNL     1      11.039  12.007  18.042  0.00  0.00    +0.000 C 
ENDROOT
BRANCH  18  20
ATOM     20  O   UNL     1      12.191  13.196  16.248  0.00  0.00    +0.000 OA
ATOM     21  H   UNL     1      11.764  13.577  15.454  0.00  0.00    +0.000 HD
ENDBRANCH  18  20
BRANCH  19  22
ATOM     22  O   UNL     1      12.333  11.408  18.254  0.00  0.00    +0.000 OA
ATOM     23  H   UNL     1      12.779  11.946  18.933  0.00  0.00    +0.000 HD
ENDBRANCH  19  22
TORSDOF 2
ENDMDL
MODEL 6
REMARK VINA RESULT:      -7.2      2.564      4.723
REMARK  Name = 
REMARK  3 active torsions:
REMARK  status: ('A' for Active; 'I' for Inactive)
REMARK    1  A    between atoms: C_1  and  C_2
REMARK    2  A    between atoms: C_18  and  O_19
REMARK    3  A    between atoms: C_20  and  O_21
REMARK                            x       y       z     vdW  Elec       q    Type
REMARK                         _______ _______ _______ _____ _____    ______ ____
ROOT
ATOM      1  C   UNL     1      -0.071   9.426  23.398  0.00  0.00    +0.000 C 
ATOM      2  C   UNL     1       0.243   9.484  21.922  0.00  0.00    +0.000 A 
ATOM      3  C   UNL     1       1.072   8.447  21.460  0.00  0.00    +0.000 A 
ATOM      4  C   UNL     1       1.473   8.356  20.135  0.00  0.00    +0.000 A 
ATOM      5  C   UNL     1       2.346   7.323  19.750  0.00  0.00    +0.000 A 
ATOM      6  C   UNL     1       2.833   7.241  18.451  0.00  0.00    +0.000 A 
ATOM      7  C   UNL     1       2.444   8.193  17.523  0.00  0.00    +0.000 A 
ATOM      8  C   UNL     1       1.539   9.194  17.890  0.00  0.00    +0.000 A 
ATOM      9  C   UNL     1       1.004   9.303  19.205  0.00  0.00    +0.000 A 
ATOM     10  C   UNL     1       0.065  10.312  19.634  0.00  0.00    +0.000 A 
ATOM     11  C   UNL     1      -0.569  11.148  18.685  0.00  0.00    +0.000 A 
ATOM     12  C   UNL     1      -1.464  12.149  19.030  0.00  0.00    +0.000 A 
ATOM     13  C   UNL     1      -1.726  12.401  20.368  0.00  0.00    +0.000 A 
ATOM     14  C   UNL     1      -1.098  11.614  21.367  0.00  0.00    +0.000 A 
ATOM     15  C   UNL     1      -0.268  10.480  21.020  0.00  0.00    +0.000 A 
ATOM     16  C   UNL     1      -1.305  12.086  22.757  0.00  0.00    +0.000 C 
ATOM     17  C   UNL     1      -2.370  12.819  23.113  0.00  0.00    +0.000 C 
ATOM     18  C   UNL     1      -3.359  13.297  22.096  0.00  0.00    +0.000 C 
ATOM     19  C   UNL     1      -2.656  13.536  20.736  0.00  0.00    +0.000 C 
ENDROOT
BRANCH  18  20
ATOM     20  O   UNL     1      -3.916  14.519  22.581  0.00  0.00    +0.000 OA
ATOM     21  H   UNL     1      -3.979  14.401  23.551  0.00  0.00    +0.000 HD
ENDBRANCH  18  20
BRANCH  19  22
ATOM     22  O   UNL     1      -1.899  14.761  20.815  0.00  0.00    +0.000 OA
ATOM     23  H   UNL     1      -2.545  15.474  20.968  0.00  0.00    +0.000 HD
ENDBRANCH  19  22
TORSDOF 2
ENDMDL
MODEL 7
REMARK VINA RESULT:      -7.1      2.800      5.764
REMARK  Name = 
REMARK  3 active torsions:
REMARK  status: ('A' for Active; 'I' for Inactive)
REMARK    1  A    between atoms: C_1  and  C_2
REMARK    2  A    between atoms: C_18  and  O_19
REMARK    3  A    between atoms: C_20  and  O_21
REMARK                            x       y       z     vdW  Elec       q    Type
REMARK                         _______ _______ _______ _____ _____    ______ ____
ROOT
ATOM      1  C   UNL     1      -0.846  12.533  18.145  0.00  0.00    +0.000 C 
ATOM      2  C   UNL     1      -0.316  11.382  18.967  0.00  0.00    +0.000 A 
ATOM      3  C   UNL     1       0.573  10.537  18.283  0.00  0.00    +0.000 A 
ATOM      4  C   UNL     1       1.141   9.421  18.882  0.00  0.00    +0.000 A 
ATOM      5  C   UNL     1       1.982   8.587  18.124  0.00  0.00    +0.000 A 
ATOM      6  C   UNL     1       2.510   7.420  18.663  0.00  0.00    +0.000 A 
ATOM      7  C   UNL     1       2.202   7.079  19.969  0.00  0.00    +0.000 A 
ATOM      8  C   UNL     1       1.403   7.931  20.740  0.00  0.00    +0.000 A 
ATOM      9  C   UNL     1       0.857   9.143  20.232  0.00  0.00    +0.000 A 
ATOM     10  C   UNL     1       0.034  10.059  20.986  0.00  0.00    +0.000 A 
ATOM     11  C   UNL     1      -0.104   9.908  22.386  0.00  0.00    +0.000 A 
ATOM     12  C   UNL     1      -0.895  10.738  23.166  0.00  0.00    +0.000 A 
ATOM     13  C   UNL     1      -1.642  11.738  22.561  0.00  0.00    +0.000 A 
ATOM     14  C   UNL     1      -1.567  11.919  21.156  0.00  0.00    +0.000 A 
ATOM     15  C   UNL     1      -0.644  11.150  20.347  0.00  0.00    +0.000 A 
ATOM     16  C   UNL     1      -2.540  12.888  20.597  0.00  0.00    +0.000 C 
ATOM     17  C   UNL     1      -3.063  13.881  21.331  0.00  0.00    +0.000 C 
ATOM     18  C   UNL     1      -2.774  14.000  22.794  0.00  0.00    +0.000 C 
ATOM     19  C   UNL     1      -2.549  12.597  23.412  0.00  0.00    +0.000 C 
ENDROOT
BRANCH  18  20
ATOM     20  O   UNL     1      -3.902  14.630  23.403  0.00  0.00    +0.000 OA
ATOM     21  H   UNL     1      -3.807  14.447  24.360  0.00  0.00    +0.000 HD
ENDBRANCH  18  20
BRANCH  19  22
ATOM     22  O   UNL     1      -3.827  11.944  23.552  0.00  0.00    +0.000 OA
ATOM     23  H   UNL     1      -4.308  12.423  24.250  0.00  0.00    +0.000 HD
ENDBRANCH  19  22
TORSDOF 2
ENDMDL
MODEL 8
REMARK VINA RESULT:      -7.0      4.356      5.323
REMARK  Name = 
REMARK  3 active torsions:
REMARK  status: ('A' for Active; 'I' for Inactive)
REMARK    1  A    between atoms: C_1  and  C_2
REMARK    2  A    between atoms: C_18  and  O_19
REMARK    3  A    between atoms: C_20  and  O_21
REMARK                            x       y       z     vdW  Elec       q    Type
REMARK                         _______ _______ _______ _____ _____    ______ ____
ROOT
ATOM      1  C   UNL     1       6.133   5.492  19.640  0.00  0.00    +0.000 C 
ATOM      2  C   UNL     1       5.722   4.916  18.305  0.00  0.00    +0.000 A 
ATOM      3  C   UNL     1       6.625   5.167  17.258  0.00  0.00    +0.000 A 
ATOM      4  C   UNL     1       6.396   4.726  15.963  0.00  0.00    +0.000 A 
ATOM      5  C   UNL     1       7.314   5.057  14.951  0.00  0.00    +0.000 A 
ATOM      6  C   UNL     1       7.083   4.700  13.628  0.00  0.00    +0.000 A 
ATOM      7  C   UNL     1       5.931   4.003  13.307  0.00  0.00    +0.000 A 
ATOM      8  C   UNL     1       5.039   3.631  14.318  0.00  0.00    +0.000 A 
ATOM      9  C   UNL     1       5.246   3.962  15.687  0.00  0.00    +0.000 A 
ATOM     10  C   UNL     1       4.361   3.598  16.769  0.00  0.00    +0.000 A 
ATOM     11  C   UNL     1       3.313   2.673  16.553  0.00  0.00    +0.000 A 
ATOM     12  C   UNL     1       2.415   2.296  17.541  0.00  0.00    +0.000 A 
ATOM     13  C   UNL     1       2.493   2.883  18.795  0.00  0.00    +0.000 A 
ATOM     14  C   UNL     1       3.506   3.839  19.062  0.00  0.00    +0.000 A 
ATOM     15  C   UNL     1       4.531   4.142  18.085  0.00  0.00    +0.000 A 
ATOM     16  C   UNL     1       3.383   4.533  20.367  0.00  0.00    +0.000 C 
ATOM     17  C   UNL     1       2.747   3.984  21.412  0.00  0.00    +0.000 C 
ATOM     18  C   UNL     1       2.025   2.679  21.284  0.00  0.00    +0.000 C 
ATOM     19  C   UNL     1       1.471   2.511  19.846  0.00  0.00    +0.000 C 
ENDROOT
BRANCH  18  20
ATOM     20  O   UNL     1       0.951   2.689  22.225  0.00  0.00    +0.000 OA
ATOM     21  H   UNL     1       0.151   2.497  21.697  0.00  0.00    +0.000 HD
ENDBRANCH  18  20
BRANCH  19  22
ATOM     22  O   UNL     1       0.311   3.354  19.697  0.00  0.00    +0.000 OA
ATOM     23  H   UNL     1       0.096   3.688  20.587  0.00  0.00    +0.000 HD
ENDBRANCH  19  22
TORSDOF 2
ENDMDL
MODEL 9
REMARK VINA RESULT:      -6.9     10.216     12.098
REMARK  Name = 
REMARK  3 active torsions:
REMARK  status: ('A' for Active; 'I' for Inactive)
REMARK    1  A    between atoms: C_1  and  C_2
REMARK    2  A    between atoms: C_18  and  O_19
REMARK    3  A    between atoms: C_20  and  O_21
REMARK                            x       y       z     vdW  Elec       q    Type
REMARK                         _______ _______ _______ _____ _____    ______ ____
ROOT
ATOM      1  C   UNL     1      11.400  16.828  20.699  0.00  0.00    +0.000 C 
ATOM      2  C   UNL     1      10.644  15.685  21.333  0.00  0.00    +0.000 A 
ATOM      3  C   UNL     1      10.078  15.982  22.585  0.00  0.00    +0.000 A 
ATOM      4  C   UNL     1       9.364  15.042  23.315  0.00  0.00    +0.000 A 
ATOM      5  C   UNL     1       8.869  15.389  24.584  0.00  0.00    +0.000 A 
ATOM      6  C   UNL     1       8.216  14.455  25.380  0.00  0.00    +0.000 A 
ATOM      7  C   UNL     1       8.049  13.164  24.908  0.00  0.00    +0.000 A 
ATOM      8  C   UNL     1       8.499  12.829  23.626  0.00  0.00    +0.000 A 
ATOM      9  C   UNL     1       9.157  13.759  22.773  0.00  0.00    +0.000 A 
ATOM     10  C   UNL     1       9.635  13.467  21.443  0.00  0.00    +0.000 A 
ATOM     11  C   UNL     1       9.271  12.258  20.803  0.00  0.00    +0.000 A 
ATOM     12  C   UNL     1       9.711  11.906  19.536  0.00  0.00    +0.000 A 
ATOM     13  C   UNL     1      10.597  12.735  18.865  0.00  0.00    +0.000 A 
ATOM     14  C   UNL     1      11.021  13.946  19.468  0.00  0.00    +0.000 A 
ATOM     15  C   UNL     1      10.466  14.393  20.729  0.00  0.00    +0.000 A 
ATOM     16  C   UNL     1      12.103  14.659  18.747  0.00  0.00    +0.000 C 
ATOM     17  C   UNL     1      12.304  14.510  17.430  0.00  0.00    +0.000 C 
ATOM     18  C   UNL     1      11.512  13.524  16.630  0.00  0.00    +0.000 C 
ATOM     19  C   UNL     1      11.120  12.311  17.510  0.00  0.00    +0.000 C 
ENDROOT
BRANCH  18  20
ATOM     20  O   UNL     1      12.333  13.096  15.543  0.00  0.00    +0.000 OA
ATOM     21  H   UNL     1      12.022  12.193  15.332  0.00  0.00    +0.000 HD
ENDBRANCH  18  20
BRANCH  19  22
ATOM     22  O   UNL     1      12.282  11.476  17.691  0.00  0.00    +0.000 OA
ATOM     23  H   UNL     1      12.490  11.100  16.817  0.00  0.00    +0.000 HD
ENDBRANCH  19  22
TORSDOF 2
ENDMDL
