MODEL 1
REMARK VINA RESULT:      -8.5      0.000      0.000
REMARK  Name = 
REMARK  12 active torsions:
REMARK  status: ('A' for Active; 'I' for Inactive)
REMARK    1  A    between atoms: C_1  and  O_2
REMARK    2  A    between atoms: O_2  and  C_3
REMARK    3  A    between atoms: C_3  and  C_5
REMARK    4  A    between atoms: C_6  and  C_7
REMARK    5  A    between atoms: C_9  and  O_10
REMARK    6  A    between atoms: O_10  and  C_11
REMARK    7  A    between atoms: C_15  and  C_16
REMARK    8  A    between atoms: C_16  and  O_17
REMARK    9  A    between atoms: C_18  and  C_19
REMARK   10  A    between atoms: C_22  and  O_23
REMARK   11  A    between atoms: C_24  and  O_25
REMARK   12  A    between atoms: O_25  and  C_26
REMARK                            x       y       z     vdW  Elec       q    Type
REMARK                         _______ _______ _______ _____ _____    ______ ____
ROOT
ATOM      1  C   UNL     1       5.820   4.359  16.197  0.00  0.00    +0.000 A 
ATOM      2  C   UNL     1       6.625   4.707  17.306  0.00  0.00    +0.000 A 
ATOM      3  C   UNL     1       6.076   4.918  18.574  0.00  0.00    +0.000 A 
ATOM      4  C   UNL     1       4.701   4.811  18.689  0.00  0.00    +0.000 A 
ATOM      5  C   UNL     1       3.890   4.484  17.611  0.00  0.00    +0.000 A 
ATOM      6  C   UNL     1       4.432   4.251  16.357  0.00  0.00    +0.000 A 
ATOM      7  C   UNL     1       2.467   4.439  18.058  0.00  0.00    +0.000 C 
ATOM      8  C   UNL     1       2.607   5.181  19.412  0.00  0.00    +0.000 C 
ATOM      9  O   UNL     1       3.990   5.029  19.848  0.00  0.00    +0.000 OA
ENDROOT
BRANCH   8  10
ATOM     10  C   UNL     1       2.219   6.660  19.323  0.00  0.00    +0.000 A 
ATOM     11  C   UNL     1       2.250   7.350  18.104  0.00  0.00    +0.000 A 
ATOM     12  C   UNL     1       1.842   8.679  18.024  0.00  0.00    +0.000 A 
ATOM     13  C   UNL     1       1.407   9.354  19.164  0.00  0.00    +0.000 A 
ATOM     14  C   UNL     1       1.392   8.708  20.405  0.00  0.00    +0.000 A 
ATOM     15  C   UNL     1       1.811   7.366  20.470  0.00  0.00    +0.000 A 
BRANCH  13  16
ATOM     16  O   UNL     1       1.001  10.652  19.021  0.00  0.00    +0.000 OA
ATOM     17  H   UNL     1       0.681  10.784  18.114  0.00  0.00    +0.000 HD
ENDBRANCH  13  16
BRANCH  14  18
ATOM     18  O   UNL     1       1.001   9.211  21.618  0.00  0.00    +0.000 OA
ATOM     19  C   UNL     1      -0.354   9.022  22.006  0.00  0.00    +0.000 C 
ENDBRANCH  14  18
ENDBRANCH   8  10
BRANCH   1  21
ATOM     20  C   UNL     1       5.692   3.839  13.772  0.00  0.00    +0.000 C 
ATOM     21  C   UNL     1       6.405   4.183  14.858  0.00  0.00    +0.000 C 
BRANCH  20  22
ATOM     22  C   UNL     1       6.358   3.636  12.474  0.00  0.00    +0.000 C 
ATOM     23  O   UNL     1       7.359   4.220  12.093  0.00  0.00    +0.000 OA
BRANCH  22  25
ATOM     24  C   UNL     1       4.340   3.082  11.447  0.00  0.00    +0.000 C 
ATOM     25  O   UNL     1       5.667   2.685  11.796  0.00  0.00    +0.000 OA
ENDBRANCH  22  25
ENDBRANCH  20  22
ENDBRANCH   1  21
BRANCH   3  26
ATOM     26  O   UNL     1       6.778   5.244  19.698  0.00  0.00    +0.000 OA
ATOM     27  C   UNL     1       8.092   5.756  19.511  0.00  0.00    +0.000 C 
ENDBRANCH   3  26
BRANCH   7  28
ATOM     28  C   UNL     1       1.949   3.006  18.222  0.00  0.00    +0.000 C 
BRANCH  28  29
ATOM     29  O   UNL     1       2.104   2.496  19.541  0.00  0.00    +0.000 OA
ATOM     30  H   UNL     1       3.044   2.583  19.785  0.00  0.00    +0.000 HD
ENDBRANCH  28  29
ENDBRANCH   7  28
TORSDOF 9
ENDMDL
MODEL 2
REMARK VINA RESULT:      -8.0      1.388      1.600
REMARK  Name = 
REMARK  12 active torsions:
REMARK  status: ('A' for Active; 'I' for Inactive)
REMARK    1  A    between atoms: C_1  and  O_2
REMARK    2  A    between atoms: O_2  and  C_3
REMARK    3  A    between atoms: C_3  and  C_5
REMARK    4  A    between atoms: C_6  and  C_7
REMARK    5  A    between atoms: C_9  and  O_10
REMARK    6  A    between atoms: O_10  and  C_11
REMARK    7  A    between atoms: C_15  and  C_16
REMARK    8  A    between atoms: C_16  and  O_17
REMARK    9  A    between atoms: C_18  and  C_19
REMARK   10  A    between atoms: C_22  and  O_23
REMARK   11  A    between atoms: C_24  and  O_25
REMARK   12  A    between atoms: O_25  and  C_26
REMARK                            x       y       z     vdW  Elec       q    Type
REMARK                         _______ _______ _______ _____ _____    ______ ____
ROOT
ATOM      1  C   UNL     1       6.012   4.360  15.372  0.00  0.00    +0.000 A 
ATOM      2  C   UNL     1       6.980   5.195  15.975  0.00  0.00    +0.000 A 
ATOM      3  C   UNL     1       6.860   5.618  17.302  0.00  0.00    +0.000 A 
ATOM      4  C   UNL     1       5.728   5.215  17.990  0.00  0.00    +0.000 A 
ATOM      5  C   UNL     1       4.759   4.406  17.414  0.00  0.00    +0.000 A 
ATOM      6  C   UNL     1       4.885   3.966  16.106  0.00  0.00    +0.000 A 
ATOM      7  C   UNL     1       3.677   4.144  18.407  0.00  0.00    +0.000 C 
ATOM      8  C   UNL     1       4.012   5.251  19.439  0.00  0.00    +0.000 C 
ATOM      9  O   UNL     1       5.426   5.573  19.285  0.00  0.00    +0.000 OA
ENDROOT
BRANCH   8  10
ATOM     10  C   UNL     1       3.144   6.502  19.273  0.00  0.00    +0.000 A 
ATOM     11  C   UNL     1       3.141   7.235  18.079  0.00  0.00    +0.000 A 
ATOM     12  C   UNL     1       2.306   8.338  17.919  0.00  0.00    +0.000 A 
ATOM     13  C   UNL     1       1.464   8.742  18.955  0.00  0.00    +0.000 A 
ATOM     14  C   UNL     1       1.461   8.053  20.173  0.00  0.00    +0.000 A 
ATOM     15  C   UNL     1       2.314   6.944  20.321  0.00  0.00    +0.000 A 
BRANCH  13  16
ATOM     16  O   UNL     1       0.653   9.820  18.732  0.00  0.00    +0.000 OA
ATOM     17  H   UNL     1       0.968  10.295  17.947  0.00  0.00    +0.000 HD
ENDBRANCH  13  16
BRANCH  14  18
ATOM     18  O   UNL     1       0.708   8.309  21.288  0.00  0.00    +0.000 OA
ATOM     19  C   UNL     1       1.178   9.303  22.190  0.00  0.00    +0.000 C 
ENDBRANCH  14  18
ENDBRANCH   8  10
BRANCH   1  21
ATOM     20  C   UNL     1       5.090   3.539  13.217  0.00  0.00    +0.000 C 
ATOM     21  C   UNL     1       6.127   3.959  13.961  0.00  0.00    +0.000 C 
BRANCH  20  22
ATOM     22  C   UNL     1       5.294   3.109  11.823  0.00  0.00    +0.000 C 
ATOM     23  O   UNL     1       4.450   3.145  10.941  0.00  0.00    +0.000 OA
BRANCH  22  25
ATOM     24  C   UNL     1       6.699   1.414  11.058  0.00  0.00    +0.000 C 
ATOM     25  O   UNL     1       6.576   2.683  11.702  0.00  0.00    +0.000 OA
ENDBRANCH  22  25
ENDBRANCH  20  22
ENDBRANCH   1  21
BRANCH   3  26
ATOM     26  O   UNL     1       7.749   6.413  17.966  0.00  0.00    +0.000 OA
ATOM     27  C   UNL     1       7.753   7.795  17.630  0.00  0.00    +0.000 C 
ENDBRANCH   3  26
BRANCH   7  28
ATOM     28  C   UNL     1       3.761   2.736  19.007  0.00  0.00    +0.000 C 
BRANCH  28  29
ATOM     29  O   UNL     1       4.978   2.487  19.701  0.00  0.00    +0.000 OA
ATOM     30  H   UNL     1       5.075   3.175  20.385  0.00  0.00    +0.000 HD
ENDBRANCH  28  29
ENDBRANCH   7  28
TORSDOF 9
ENDMDL
MODEL 3
REMARK VINA RESULT:      -7.9      0.788      1.219
REMARK  Name = 
REMARK  12 active torsions:
REMARK  status: ('A' for Active; 'I' for Inactive)
REMARK    1  A    between atoms: C_1  and  O_2
REMARK    2  A    between atoms: O_2  and  C_3
REMARK    3  A    between atoms: C_3  and  C_5
REMARK    4  A    between atoms: C_6  and  C_7
REMARK    5  A    between atoms: C_9  and  O_10
REMARK    6  A    between atoms: O_10  and  C_11
REMARK    7  A    between atoms: C_15  and  C_16
REMARK    8  A    between atoms: C_16  and  O_17
REMARK    9  A    between atoms: C_18  and  C_19
REMARK   10  A    between atoms: C_22  and  O_23
REMARK   11  A    between atoms: C_24  and  O_25
REMARK   12  A    between atoms: O_25  and  C_26
REMARK                            x       y       z     vdW  Elec       q    Type
REMARK                         _______ _______ _______ _____ _____    ______ ____
ROOT
ATOM      1  C   UNL     1       5.621   3.941  16.216  0.00  0.00    +0.000 A 
ATOM      2  C   UNL     1       6.595   4.607  16.994  0.00  0.00    +0.000 A 
ATOM      3  C   UNL     1       6.293   5.136  18.252  0.00  0.00    +0.000 A 
ATOM      4  C   UNL     1       4.985   5.014  18.688  0.00  0.00    +0.000 A 
ATOM      5  C   UNL     1       4.009   4.376  17.935  0.00  0.00    +0.000 A 
ATOM      6  C   UNL     1       4.309   3.830  16.697  0.00  0.00    +0.000 A 
ATOM      7  C   UNL     1       2.715   4.403  18.676  0.00  0.00    +0.000 C 
ATOM      8  C   UNL     1       3.052   5.491  19.728  0.00  0.00    +0.000 C 
ATOM      9  O   UNL     1       4.503   5.514  19.876  0.00  0.00    +0.000 OA
ENDROOT
BRANCH   8  10
ATOM     10  C   UNL     1       2.517   6.874  19.346  0.00  0.00    +0.000 A 
ATOM     11  C   UNL     1       2.672   7.383  18.050  0.00  0.00    +0.000 A 
ATOM     12  C   UNL     1       2.133   8.618  17.698  0.00  0.00    +0.000 A 
ATOM     13  C   UNL     1       1.439   9.380  18.638  0.00  0.00    +0.000 A 
ATOM     14  C   UNL     1       1.290   8.918  19.951  0.00  0.00    +0.000 A 
ATOM     15  C   UNL     1       1.844   7.670  20.292  0.00  0.00    +0.000 A 
BRANCH  13  16
ATOM     16  O   UNL     1       0.916  10.575  18.229  0.00  0.00    +0.000 OA
ATOM     17  H   UNL     1      -0.053  10.526  18.271  0.00  0.00    +0.000 HD
ENDBRANCH  13  16
BRANCH  14  18
ATOM     18  O   UNL     1       0.647   9.527  20.995  0.00  0.00    +0.000 OA
ATOM     19  C   UNL     1      -0.287   8.754  21.738  0.00  0.00    +0.000 C 
ENDBRANCH  14  18
ENDBRANCH   8  10
BRANCH   1  21
ATOM     20  C   UNL     1       5.964   4.193  13.770  0.00  0.00    +0.000 C 
ATOM     21  C   UNL     1       5.940   3.428  14.874  0.00  0.00    +0.000 C 
BRANCH  20  22
ATOM     22  C   UNL     1       6.247   3.597  12.452  0.00  0.00    +0.000 C 
ATOM     23  O   UNL     1       5.568   2.747  11.900  0.00  0.00    +0.000 OA
BRANCH  22  25
ATOM     24  C   UNL     1       7.822   5.292  12.735  0.00  0.00    +0.000 C 
ATOM     25  O   UNL     1       7.380   4.169  11.972  0.00  0.00    +0.000 OA
ENDBRANCH  22  25
ENDBRANCH  20  22
ENDBRANCH   1  21
BRANCH   3  26
ATOM     26  O   UNL     1       7.171   5.782  19.073  0.00  0.00    +0.000 OA
ATOM     27  C   UNL     1       7.966   6.807  18.487  0.00  0.00    +0.000 C 
ENDBRANCH   3  26
BRANCH   7  28
ATOM     28  C   UNL     1       2.377   3.051  19.314  0.00  0.00    +0.000 C 
BRANCH  28  29
ATOM     29  O   UNL     1       3.027   2.835  20.561  0.00  0.00    +0.000 OA
ATOM     30  H   UNL     1       3.903   2.452  20.377  0.00  0.00    +0.000 HD
ENDBRANCH  28  29
ENDBRANCH   7  28
TORSDOF 9
ENDMDL
MODEL 4
REMARK VINA RESULT:      -7.5      0.933      1.740
REMARK  Name = 
REMARK  12 active torsions:
REMARK  status: ('A' for Active; 'I' for Inactive)
REMARK    1  A    between atoms: C_1  and  O_2
REMARK    2  A    between atoms: O_2  and  C_3
REMARK    3  A    between atoms: C_3  and  C_5
REMARK    4  A    between atoms: C_6  and  C_7
REMARK    5  A    between atoms: C_9  and  O_10
REMARK    6  A    between atoms: O_10  and  C_11
REMARK    7  A    between atoms: C_15  and  C_16
REMARK    8  A    between atoms: C_16  and  O_17
REMARK    9  A    between atoms: C_18  and  C_19
REMARK   10  A    between atoms: C_22  and  O_23
REMARK   11  A    between atoms: C_24  and  O_25
REMARK   12  A    between atoms: O_25  and  C_26
REMARK                            x       y       z     vdW  Elec       q    Type
REMARK                         _______ _______ _______ _____ _____    ______ ____
ROOT
ATOM      1  C   UNL     1       5.870   4.342  15.867  0.00  0.00    +0.000 A 
ATOM      2  C   UNL     1       6.740   4.621  16.946  0.00  0.00    +0.000 A 
ATOM      3  C   UNL     1       6.296   4.601  18.271  0.00  0.00    +0.000 A 
ATOM      4  C   UNL     1       4.954   4.334  18.480  0.00  0.00    +0.000 A 
ATOM      5  C   UNL     1       4.079   4.070  17.436  0.00  0.00    +0.000 A 
ATOM      6  C   UNL     1       4.519   4.067  16.122  0.00  0.00    +0.000 A 
ATOM      7  C   UNL     1       2.715   3.816  17.984  0.00  0.00    +0.000 C 
ATOM      8  C   UNL     1       2.912   4.380  19.414  0.00  0.00    +0.000 C 
ATOM      9  O   UNL     1       4.338   4.319  19.712  0.00  0.00    +0.000 OA
ENDROOT
BRANCH   8  10
ATOM     10  C   UNL     1       2.380   5.808  19.569  0.00  0.00    +0.000 A 
ATOM     11  C   UNL     1       1.772   6.235  20.757  0.00  0.00    +0.000 A 
ATOM     12  C   UNL     1       1.343   7.551  20.907  0.00  0.00    +0.000 A 
ATOM     13  C   UNL     1       1.498   8.468  19.868  0.00  0.00    +0.000 A 
ATOM     14  C   UNL     1       2.073   8.070  18.655  0.00  0.00    +0.000 A 
ATOM     15  C   UNL     1       2.497   6.736  18.517  0.00  0.00    +0.000 A 
BRANCH  13  16
ATOM     16  O   UNL     1       1.074   9.750  20.081  0.00  0.00    +0.000 OA
ATOM     17  H   UNL     1       0.696  10.099  19.257  0.00  0.00    +0.000 HD
ENDBRANCH  13  16
BRANCH  14  18
ATOM     18  O   UNL     1       2.300   8.828  17.538  0.00  0.00    +0.000 OA
ATOM     19  C   UNL     1       2.191  10.241  17.663  0.00  0.00    +0.000 C 
ENDBRANCH  14  18
ENDBRANCH   8  10
BRANCH   1  21
ATOM     20  C   UNL     1       5.891   3.607  13.496  0.00  0.00    +0.000 C 
ATOM     21  C   UNL     1       6.340   4.410  14.474  0.00  0.00    +0.000 C 
BRANCH  20  22
ATOM     22  C   UNL     1       6.445   3.704  12.134  0.00  0.00    +0.000 C 
ATOM     23  O   UNL     1       7.372   4.424  11.798  0.00  0.00    +0.000 OA
BRANCH  22  25
ATOM     24  C   UNL     1       4.337   3.044  11.392  0.00  0.00    +0.000 C 
ATOM     25  O   UNL     1       5.751   2.851  11.340  0.00  0.00    +0.000 OA
ENDBRANCH  22  25
ENDBRANCH  20  22
ENDBRANCH   1  21
BRANCH   3  26
ATOM     26  O   UNL     1       7.067   4.846  19.371  0.00  0.00    +0.000 OA
ATOM     27  C   UNL     1       7.950   5.959  19.302  0.00  0.00    +0.000 C 
ENDBRANCH   3  26
BRANCH   7  28
ATOM     28  C   UNL     1       2.351   2.327  17.983  0.00  0.00    +0.000 C 
BRANCH  28  29
ATOM     29  O   UNL     1       3.346   1.501  18.575  0.00  0.00    +0.000 OA
ATOM     30  H   UNL     1       2.901   0.716  18.944  0.00  0.00    +0.000 HD
ENDBRANCH  28  29
ENDBRANCH   7  28
TORSDOF 9
ENDMDL
MODEL 5
REMARK VINA RESULT:      -7.0      3.120      6.023
REMARK  Name = 
REMARK  12 active torsions:
REMARK  status: ('A' for Active; 'I' for Inactive)
REMARK    1  A    between atoms: C_1  and  O_2
REMARK    2  A    between atoms: O_2  and  C_3
REMARK    3  A    between atoms: C_3  and  C_5
REMARK    4  A    between atoms: C_6  and  C_7
REMARK    5  A    between atoms: C_9  and  O_10
REMARK    6  A    between atoms: O_10  and  C_11
REMARK    7  A    between atoms: C_15  and  C_16
REMARK    8  A    between atoms: C_16  and  O_17
REMARK    9  A    between atoms: C_18  and  C_19
REMARK   10  A    between atoms: C_22  and  O_23
REMARK   11  A    between atoms: C_24  and  O_25
REMARK   12  A    between atoms: O_25  and  C_26
REMARK                            x       y       z     vdW  Elec       q    Type
REMARK                         _______ _______ _______ _____ _____    ______ ____
ROOT
ATOM      1  C   UNL     1       7.502   7.988  17.644  0.00  0.00    +0.000 A 
ATOM      2  C   UNL     1       8.088   7.084  18.560  0.00  0.00    +0.000 A 
ATOM      3  C   UNL     1       7.758   5.726  18.564  0.00  0.00    +0.000 A 
ATOM      4  C   UNL     1       6.800   5.309  17.656  0.00  0.00    +0.000 A 
ATOM      5  C   UNL     1       6.202   6.181  16.757  0.00  0.00    +0.000 A 
ATOM      6  C   UNL     1       6.542   7.524  16.733  0.00  0.00    +0.000 A 
ATOM      7  C   UNL     1       5.225   5.431  15.914  0.00  0.00    +0.000 C 
ATOM      8  C   UNL     1       5.101   4.141  16.765  0.00  0.00    +0.000 C 
ATOM      9  O   UNL     1       6.323   4.022  17.551  0.00  0.00    +0.000 OA
ENDROOT
BRANCH   8  10
ATOM     10  C   UNL     1       3.865   4.140  17.668  0.00  0.00    +0.000 A 
ATOM     11  C   UNL     1       3.099   2.982  17.855  0.00  0.00    +0.000 A 
ATOM     12  C   UNL     1       2.009   2.978  18.722  0.00  0.00    +0.000 A 
ATOM     13  C   UNL     1       1.651   4.136  19.412  0.00  0.00    +0.000 A 
ATOM     14  C   UNL     1       2.373   5.320  19.227  0.00  0.00    +0.000 A 
ATOM     15  C   UNL     1       3.469   5.309  18.344  0.00  0.00    +0.000 A 
BRANCH  13  16
ATOM     16  O   UNL     1       0.584   4.065  20.264  0.00  0.00    +0.000 OA
ATOM     17  H   UNL     1       0.255   4.963  20.433  0.00  0.00    +0.000 HD
ENDBRANCH  13  16
BRANCH  14  18
ATOM     18  O   UNL     1       2.164   6.539  19.815  0.00  0.00    +0.000 OA
ATOM     19  C   UNL     1       2.301   7.698  19.002  0.00  0.00    +0.000 C 
ENDBRANCH  14  18
ENDBRANCH   8  10
BRANCH   1  21
ATOM     20  C   UNL     1       8.875   9.934  18.344  0.00  0.00    +0.000 C 
ATOM     21  C   UNL     1       7.825   9.423  17.680  0.00  0.00    +0.000 C 
BRANCH  20  22
ATOM     22  C   UNL     1       9.107  11.389  18.372  0.00  0.00    +0.000 C 
ATOM     23  O   UNL     1       8.614  12.198  17.603  0.00  0.00    +0.000 OA
BRANCH  22  25
ATOM     24  C   UNL     1       9.459  11.208  20.669  0.00  0.00    +0.000 C 
ATOM     25  O   UNL     1       9.946  11.657  19.404  0.00  0.00    +0.000 OA
ENDBRANCH  22  25
ENDBRANCH  20  22
ENDBRANCH   1  21
BRANCH   3  26
ATOM     26  O   UNL     1       8.282   4.784  19.402  0.00  0.00    +0.000 OA
ATOM     27  C   UNL     1       8.513   5.178  20.749  0.00  0.00    +0.000 C 
ENDBRANCH   3  26
BRANCH   7  28
ATOM     28  C   UNL     1       5.758   5.158  14.503  0.00  0.00    +0.000 C 
BRANCH  28  29
ATOM     29  O   UNL     1       6.549   3.979  14.415  0.00  0.00    +0.000 OA
ATOM     30  H   UNL     1       7.479   4.252  14.311  0.00  0.00    +0.000 HD
ENDBRANCH  28  29
ENDBRANCH   7  28
TORSDOF 9
ENDMDL
MODEL 6
REMARK VINA RESULT:      -7.0      1.710      7.860
REMARK  Name = 
REMARK  12 active torsions:
REMARK  status: ('A' for Active; 'I' for Inactive)
REMARK    1  A    between atoms: C_1  and  O_2
REMARK    2  A    between atoms: O_2  and  C_3
REMARK    3  A    between atoms: C_3  and  C_5
REMARK    4  A    between atoms: C_6  and  C_7
REMARK    5  A    between atoms: C_9  and  O_10
REMARK    6  A    between atoms: O_10  and  C_11
REMARK    7  A    between atoms: C_15  and  C_16
REMARK    8  A    between atoms: C_16  and  O_17
REMARK    9  A    between atoms: C_18  and  C_19
REMARK   10  A    between atoms: C_22  and  O_23
REMARK   11  A    between atoms: C_24  and  O_25
REMARK   12  A    between atoms: O_25  and  C_26
REMARK                            x       y       z     vdW  Elec       q    Type
REMARK                         _______ _______ _______ _____ _____    ______ ____
ROOT
ATOM      1  C   UNL     1       2.992   6.712  17.864  0.00  0.00    +0.000 A 
ATOM      2  C   UNL     1       2.532   5.380  17.743  0.00  0.00    +0.000 A 
ATOM      3  C   UNL     1       3.409   4.322  17.491  0.00  0.00    +0.000 A 
ATOM      4  C   UNL     1       4.747   4.639  17.327  0.00  0.00    +0.000 A 
ATOM      5  C   UNL     1       5.218   5.940  17.428  0.00  0.00    +0.000 A 
ATOM      6  C   UNL     1       4.356   6.991  17.699  0.00  0.00    +0.000 A 
ATOM      7  C   UNL     1       6.694   5.951  17.209  0.00  0.00    +0.000 C 
ATOM      8  C   UNL     1       6.863   4.544  16.581  0.00  0.00    +0.000 C 
ATOM      9  O   UNL     1       5.739   3.731  17.030  0.00  0.00    +0.000 OA
ENDROOT
BRANCH   8  10
ATOM     10  C   UNL     1       6.939   4.580  15.052  0.00  0.00    +0.000 A 
ATOM     11  C   UNL     1       7.802   5.458  14.385  0.00  0.00    +0.000 A 
ATOM     12  C   UNL     1       7.904   5.443  12.996  0.00  0.00    +0.000 A 
ATOM     13  C   UNL     1       7.133   4.560  12.240  0.00  0.00    +0.000 A 
ATOM     14  C   UNL     1       6.237   3.689  12.870  0.00  0.00    +0.000 A 
ATOM     15  C   UNL     1       6.142   3.719  14.273  0.00  0.00    +0.000 A 
BRANCH  13  16
ATOM     16  O   UNL     1       7.290   4.578  10.882  0.00  0.00    +0.000 OA
ATOM     17  H   UNL     1       6.435   4.387  10.463  0.00  0.00    +0.000 HD
ENDBRANCH  13  16
BRANCH  14  18
ATOM     18  O   UNL     1       5.408   2.764  12.292  0.00  0.00    +0.000 OA
ATOM     19  C   UNL     1       4.314   3.246  11.522  0.00  0.00    +0.000 C 
ENDBRANCH  14  18
ENDBRANCH   8  10
BRANCH   1  21
ATOM     20  C   UNL     1       2.377   9.117  17.922  0.00  0.00    +0.000 C 
ATOM     21  C   UNL     1       2.052   7.823  18.084  0.00  0.00    +0.000 C 
BRANCH  20  22
ATOM     22  C   UNL     1       1.394  10.177  18.207  0.00  0.00    +0.000 C 
ATOM     23  O   UNL     1       1.660  11.303  18.596  0.00  0.00    +0.000 OA
BRANCH  22  25
ATOM     24  C   UNL     1      -0.898  10.430  18.550  0.00  0.00    +0.000 C 
ATOM     25  O   UNL     1       0.158   9.678  17.951  0.00  0.00    +0.000 OA
ENDBRANCH  22  25
ENDBRANCH  20  22
ENDBRANCH   1  21
BRANCH   3  26
ATOM     26  O   UNL     1       3.055   3.009  17.371  0.00  0.00    +0.000 OA
ATOM     27  C   UNL     1       2.821   2.293  18.578  0.00  0.00    +0.000 C 
ENDBRANCH   3  26
BRANCH   7  28
ATOM     28  C   UNL     1       7.478   6.112  18.515  0.00  0.00    +0.000 C 
BRANCH  28  29
ATOM     29  O   UNL     1       7.242   5.067  19.450  0.00  0.00    +0.000 OA
ATOM     30  H   UNL     1       7.418   4.220  19.000  0.00  0.00    +0.000 HD
ENDBRANCH  28  29
ENDBRANCH   7  28
TORSDOF 9
ENDMDL
MODEL 7
REMARK VINA RESULT:      -7.0      3.312      6.354
REMARK  Name = 
REMARK  12 active torsions:
REMARK  status: ('A' for Active; 'I' for Inactive)
REMARK    1  A    between atoms: C_1  and  O_2
REMARK    2  A    between atoms: O_2  and  C_3
REMARK    3  A    between atoms: C_3  and  C_5
REMARK    4  A    between atoms: C_6  and  C_7
REMARK    5  A    between atoms: C_9  and  O_10
REMARK    6  A    between atoms: O_10  and  C_11
REMARK    7  A    between atoms: C_15  and  C_16
REMARK    8  A    between atoms: C_16  and  O_17
REMARK    9  A    between atoms: C_18  and  C_19
REMARK   10  A    between atoms: C_22  and  O_23
REMARK   11  A    between atoms: C_24  and  O_25
REMARK   12  A    between atoms: O_25  and  C_26
REMARK                            x       y       z     vdW  Elec       q    Type
REMARK                         _______ _______ _______ _____ _____    ______ ____
ROOT
ATOM      1  C   UNL     1       7.566   8.083  17.687  0.00  0.00    +0.000 A 
ATOM      2  C   UNL     1       8.205   7.185  18.572  0.00  0.00    +0.000 A 
ATOM      3  C   UNL     1       7.895   5.822  18.586  0.00  0.00    +0.000 A 
ATOM      4  C   UNL     1       6.904   5.394  17.719  0.00  0.00    +0.000 A 
ATOM      5  C   UNL     1       6.253   6.261  16.851  0.00  0.00    +0.000 A 
ATOM      6  C   UNL     1       6.573   7.609  16.818  0.00  0.00    +0.000 A 
ATOM      7  C   UNL     1       5.251   5.499  16.050  0.00  0.00    +0.000 C 
ATOM      8  C   UNL     1       5.184   4.205  16.900  0.00  0.00    +0.000 C 
ATOM      9  O   UNL     1       6.441   4.101  17.631  0.00  0.00    +0.000 OA
ENDROOT
BRANCH   8  10
ATOM     10  C   UNL     1       3.989   4.183  17.857  0.00  0.00    +0.000 A 
ATOM     11  C   UNL     1       2.832   4.929  17.597  0.00  0.00    +0.000 A 
ATOM     12  C   UNL     1       1.730   4.859  18.445  0.00  0.00    +0.000 A 
ATOM     13  C   UNL     1       1.764   4.052  19.582  0.00  0.00    +0.000 A 
ATOM     14  C   UNL     1       2.913   3.317  19.892  0.00  0.00    +0.000 A 
ATOM     15  C   UNL     1       4.020   3.401  19.028  0.00  0.00    +0.000 A 
BRANCH  13  16
ATOM     16  O   UNL     1       0.645   4.009  20.367  0.00  0.00    +0.000 OA
ATOM     17  H   UNL     1       0.831   3.469  21.152  0.00  0.00    +0.000 HD
ENDBRANCH  13  16
BRANCH  14  18
ATOM     18  O   UNL     1       3.122   2.481  20.958  0.00  0.00    +0.000 OA
ATOM     19  C   UNL     1       4.367   1.797  21.027  0.00  0.00    +0.000 C 
ENDBRANCH  14  18
ENDBRANCH   8  10
BRANCH   1  21
ATOM     20  C   UNL     1       8.936  10.048  18.340  0.00  0.00    +0.000 C 
ATOM     21  C   UNL     1       7.869   9.523  17.714  0.00  0.00    +0.000 C 
BRANCH  20  22
ATOM     22  C   UNL     1       9.148  11.506  18.363  0.00  0.00    +0.000 C 
ATOM     23  O   UNL     1       8.719  12.295  17.537  0.00  0.00    +0.000 OA
BRANCH  22  25
ATOM     24  C   UNL     1      11.280  11.538  19.303  0.00  0.00    +0.000 C 
ATOM     25  O   UNL     1       9.885  11.802  19.462  0.00  0.00    +0.000 OA
ENDBRANCH  22  25
ENDBRANCH  20  22
ENDBRANCH   1  21
BRANCH   3  26
ATOM     26  O   UNL     1       8.469   4.885  19.396  0.00  0.00    +0.000 OA
ATOM     27  C   UNL     1       8.492   5.167  20.790  0.00  0.00    +0.000 C 
ENDBRANCH   3  26
BRANCH   7  28
ATOM     28  C   UNL     1       5.724   5.238  14.616  0.00  0.00    +0.000 C 
BRANCH  28  29
ATOM     29  O   UNL     1       6.860   4.385  14.540  0.00  0.00    +0.000 OA
ATOM     30  H   UNL     1       7.325   4.583  13.707  0.00  0.00    +0.000 HD
ENDBRANCH  28  29
ENDBRANCH   7  28
TORSDOF 9
ENDMDL
MODEL 8
REMARK VINA RESULT:      -6.9      1.108      1.343
REMARK  Name = 
REMARK  12 active torsions:
REMARK  status: ('A' for Active; 'I' for Inactive)
REMARK    1  A    between atoms: C_1  and  O_2
REMARK    2  A    between atoms: O_2  and  C_3
REMARK    3  A    between atoms: C_3  and  C_5
REMARK    4  A    between atoms: C_6  and  C_7
REMARK    5  A    between atoms: C_9  and  O_10
REMARK    6  A    between atoms: O_10  and  C_11
REMARK    7  A    between atoms: C_15  and  C_16
REMARK    8  A    between atoms: C_16  and  O_17
REMARK    9  A    between atoms: C_18  and  C_19
REMARK   10  A    between atoms: C_22  and  O_23
REMARK   11  A    between atoms: C_24  and  O_25
REMARK   12  A    between atoms: O_25  and  C_26
REMARK                            x       y       z     vdW  Elec       q    Type
REMARK                         _______ _______ _______ _____ _____    ______ ____
ROOT
ATOM      1  C   UNL     1       5.069   4.191  15.817  0.00  0.00    +0.000 A 
ATOM      2  C   UNL     1       6.138   4.975  16.309  0.00  0.00    +0.000 A 
ATOM      3  C   UNL     1       6.075   5.604  17.555  0.00  0.00    +0.000 A 
ATOM      4  C   UNL     1       4.901   5.457  18.274  0.00  0.00    +0.000 A 
ATOM      5  C   UNL     1       3.834   4.703  17.806  0.00  0.00    +0.000 A 
ATOM      6  C   UNL     1       3.901   4.059  16.580  0.00  0.00    +0.000 A 
ATOM      7  C   UNL     1       2.728   4.733  18.807  0.00  0.00    +0.000 C 
ATOM      8  C   UNL     1       3.205   5.930  19.669  0.00  0.00    +0.000 C 
ATOM      9  O   UNL     1       4.649   6.041  19.495  0.00  0.00    +0.000 OA
ENDROOT
BRANCH   8  10
ATOM     10  C   UNL     1       2.507   7.243  19.303  0.00  0.00    +0.000 A 
ATOM     11  C   UNL     1       2.681   7.836  18.046  0.00  0.00    +0.000 A 
ATOM     12  C   UNL     1       1.998   9.000  17.704  0.00  0.00    +0.000 A 
ATOM     13  C   UNL     1       1.134   9.607  18.616  0.00  0.00    +0.000 A 
ATOM     14  C   UNL     1       0.958   9.061  19.892  0.00  0.00    +0.000 A 
ATOM     15  C   UNL     1       1.659   7.887  20.225  0.00  0.00    +0.000 A 
BRANCH  13  16
ATOM     16  O   UNL     1       0.477  10.737  18.217  0.00  0.00    +0.000 OA
ATOM     17  H   UNL     1       0.525  11.398  18.926  0.00  0.00    +0.000 HD
ENDBRANCH  13  16
BRANCH  14  18
ATOM     18  O   UNL     1       0.160   9.519  20.906  0.00  0.00    +0.000 OA
ATOM     19  C   UNL     1       0.574  10.690  21.597  0.00  0.00    +0.000 C 
ENDBRANCH  14  18
ENDBRANCH   8  10
BRANCH   1  21
ATOM     20  C   UNL     1       6.018   3.925  13.538  0.00  0.00    +0.000 C 
ATOM     21  C   UNL     1       5.131   3.572  14.483  0.00  0.00    +0.000 C 
BRANCH  20  22
ATOM     22  C   UNL     1       5.987   3.292  12.208  0.00  0.00    +0.000 C 
ATOM     23  O   UNL     1       4.978   2.970  11.602  0.00  0.00    +0.000 OA
BRANCH  22  25
ATOM     24  C   UNL     1       7.488   1.953  11.032  0.00  0.00    +0.000 C 
ATOM     25  O   UNL     1       7.268   3.144  11.787  0.00  0.00    +0.000 OA
ENDBRANCH  22  25
ENDBRANCH  20  22
ENDBRANCH   1  21
BRANCH   3  26
ATOM     26  O   UNL     1       7.061   6.367  18.111  0.00  0.00    +0.000 OA
ATOM     27  C   UNL     1       7.904   5.733  19.066  0.00  0.00    +0.000 C 
ENDBRANCH   3  26
BRANCH   7  28
ATOM     28  C   UNL     1       2.629   3.432  19.610  0.00  0.00    +0.000 C 
BRANCH  28  29
ATOM     29  O   UNL     1       2.144   3.619  20.934  0.00  0.00    +0.000 OA
ATOM     30  H   UNL     1       1.478   2.928  21.107  0.00  0.00    +0.000 HD
ENDBRANCH  28  29
ENDBRANCH   7  28
TORSDOF 9
ENDMDL
MODEL 9
REMARK VINA RESULT:      -6.9      1.682      7.903
REMARK  Name = 
REMARK  12 active torsions:
REMARK  status: ('A' for Active; 'I' for Inactive)
REMARK    1  A    between atoms: C_1  and  O_2
REMARK    2  A    between atoms: O_2  and  C_3
REMARK    3  A    between atoms: C_3  and  C_5
REMARK    4  A    between atoms: C_6  and  C_7
REMARK    5  A    between atoms: C_9  and  O_10
REMARK    6  A    between atoms: O_10  and  C_11
REMARK    7  A    between atoms: C_15  and  C_16
REMARK    8  A    between atoms: C_16  and  O_17
REMARK    9  A    between atoms: C_18  and  C_19
REMARK   10  A    between atoms: C_22  and  O_23
REMARK   11  A    between atoms: C_24  and  O_25
REMARK   12  A    between atoms: O_25  and  C_26
REMARK                            x       y       z     vdW  Elec       q    Type
REMARK                         _______ _______ _______ _____ _____    ______ ____
ROOT
ATOM      1  C   UNL     1       2.819   6.707  18.177  0.00  0.00    +0.000 A 
ATOM      2  C   UNL     1       2.159   5.504  17.834  0.00  0.00    +0.000 A 
ATOM      3  C   UNL     1       2.869   4.350  17.493  0.00  0.00    +0.000 A 
ATOM      4  C   UNL     1       4.250   4.445  17.468  0.00  0.00    +0.000 A 
ATOM      5  C   UNL     1       4.918   5.619  17.789  0.00  0.00    +0.000 A 
ATOM      6  C   UNL     1       4.219   6.760  18.149  0.00  0.00    +0.000 A 
ATOM      7  C   UNL     1       6.389   5.399  17.675  0.00  0.00    +0.000 C 
ATOM      8  C   UNL     1       6.382   4.077  16.864  0.00  0.00    +0.000 C 
ATOM      9  O   UNL     1       5.102   3.424  17.113  0.00  0.00    +0.000 OA
ENDROOT
BRANCH   8  10
ATOM     10  C   UNL     1       6.603   4.298  15.365  0.00  0.00    +0.000 A 
ATOM     11  C   UNL     1       7.490   5.276  14.895  0.00  0.00    +0.000 A 
ATOM     12  C   UNL     1       7.726   5.431  13.531  0.00  0.00    +0.000 A 
ATOM     13  C   UNL     1       7.069   4.622  12.604  0.00  0.00    +0.000 A 
ATOM     14  C   UNL     1       6.153   3.655  13.034  0.00  0.00    +0.000 A 
ATOM     15  C   UNL     1       5.923   3.514  14.415  0.00  0.00    +0.000 A 
BRANCH  13  16
ATOM     16  O   UNL     1       7.356   4.808  11.280  0.00  0.00    +0.000 OA
ATOM     17  H   UNL     1       6.630   5.303  10.867  0.00  0.00    +0.000 HD
ENDBRANCH  13  16
BRANCH  14  18
ATOM     18  O   UNL     1       5.424   2.782  12.272  0.00  0.00    +0.000 OA
ATOM     19  C   UNL     1       4.329   3.306  11.531  0.00  0.00    +0.000 C 
ENDBRANCH  14  18
ENDBRANCH   8  10
BRANCH   1  21
ATOM     20  C   UNL     1       2.121   9.053  17.758  0.00  0.00    +0.000 C 
ATOM     21  C   UNL     1       2.059   7.928  18.490  0.00  0.00    +0.000 C 
BRANCH  20  22
ATOM     22  C   UNL     1       1.366  10.252  18.163  0.00  0.00    +0.000 C 
ATOM     23  O   UNL     1       0.186  10.273  18.472  0.00  0.00    +0.000 OA
BRANCH  22  25
ATOM     24  C   UNL     1       1.774  12.418  18.919  0.00  0.00    +0.000 C 
ATOM     25  O   UNL     1       2.217  11.308  18.138  0.00  0.00    +0.000 OA
ENDBRANCH  22  25
ENDBRANCH  20  22
ENDBRANCH   1  21
BRANCH   3  26
ATOM     26  O   UNL     1       2.316   3.147  17.161  0.00  0.00    +0.000 OA
ATOM     27  C   UNL     1       2.035   2.251  18.230  0.00  0.00    +0.000 C 
ENDBRANCH   3  26
BRANCH   7  28
ATOM     28  C   UNL     1       7.066   5.247  19.042  0.00  0.00    +0.000 C 
BRANCH  28  29
ATOM     29  O   UNL     1       8.104   6.192  19.268  0.00  0.00    +0.000 OA
ATOM     30  H   UNL     1       8.256   6.672  18.434  0.00  0.00    +0.000 HD
ENDBRANCH  28  29
ENDBRANCH   7  28
TORSDOF 9
ENDMDL
