MODEL 1
REMARK VINA RESULT:      -7.5      0.000      0.000
REMARK  Name = 
REMARK  14 active torsions:
REMARK  status: ('A' for Active; 'I' for Inactive)
REMARK    1  A    between atoms: C_1  and  C_2
REMARK    2  A    between atoms: C_2  and  C_3
REMARK    3  A    between atoms: C_3  and  N_4
REMARK    4  A    between atoms: N_4  and  C_5
REMARK    5  A    between atoms: N_4  and  C_8
REMARK    6  A    between atoms: C_5  and  C_6
REMARK    7  A    between atoms: C_6  and  C_7
REMARK    8  A    between atoms: C_8  and  C_9
REMARK    9  A    between atoms: C_9  and  C_10
REMARK   10  A    between atoms: C_10  and  N_11
REMARK   11  A    between atoms: C_12  and  C_14
REMARK   12  A    between atoms: C_14  and  N_15
REMARK   13  A    between atoms: N_25  and  C_26
REMARK   14  A    between atoms: C_26  and  C_27
REMARK                            x       y       z     vdW  Elec       q    Type
REMARK                         _______ _______ _______ _____ _____    ______ ____
ROOT
ATOM      1  N   UNL     1       1.876   8.451  19.181  0.00  0.00    +0.000 N 
ATOM      2  N   UNL     1       1.688   7.821  20.424  0.00  0.00    +0.000 NA
ATOM      3  C   UNL     1       1.024   8.445  21.353  0.00  0.00    +0.000 A 
ATOM      4  C   UNL     1       0.375   9.693  21.089  0.00  0.00    +0.000 A 
ATOM      5  C   UNL     1      -0.516  10.489  21.846  0.00  0.00    +0.000 A 
ATOM      6  C   UNL     1      -1.043  10.390  23.146  0.00  0.00    +0.000 A 
ATOM      7  C   UNL     1      -1.961  11.353  23.587  0.00  0.00    +0.000 A 
ATOM      8  C   UNL     1      -2.389  12.357  22.733  0.00  0.00    +0.000 A 
ATOM      9  C   UNL     1      -1.899  12.465  21.427  0.00  0.00    +0.000 A 
ATOM     10  C   UNL     1      -0.948  11.524  21.005  0.00  0.00    +0.000 A 
ATOM     11  N   UNL     1      -0.298  11.367  19.785  0.00  0.00    +0.000 N 
ATOM     12  C   UNL     1       0.579  10.312  19.874  0.00  0.00    +0.000 A 
ATOM     13  C   UNL     1       1.498   9.781  18.903  0.00  0.00    +0.000 A 
ATOM     14  O   UNL     1       1.896  10.414  17.932  0.00  0.00    +0.000 OA
ENDROOT
BRANCH   1  15
ATOM     15  C   UNL     1       2.512   7.670  18.123  0.00  0.00    +0.000 C 
BRANCH  15  17
ATOM     16  N   UNL     1       3.559   5.813  19.372  0.00  0.00    +0.000 N 
ATOM     17  C   UNL     1       2.574   6.176  18.481  0.00  0.00    +0.000 C 
ATOM     18  O   UNL     1       1.869   5.347  17.908  0.00  0.00    +0.000 OA
ATOM     19  H   UNL     1       4.221   6.531  19.660  0.00  0.00    +0.000 HD
BRANCH  16  20
ATOM     20  C   UNL     1       3.767   4.450  19.828  0.00  0.00    +0.000 C 
BRANCH  20  21
ATOM     21  C   UNL     1       4.986   3.776  19.200  0.00  0.00    +0.000 C 
BRANCH  21  22
ATOM     22  C   UNL     1       5.886   4.733  18.402  0.00  0.00    +0.000 C 
BRANCH  22  23
ATOM     23  N   UNL     1       5.390   5.131  17.060  0.00  0.00    +0.000 NA
BRANCH  23  24
ATOM     24  C   UNL     1       6.200   6.262  16.545  0.00  0.00    +0.000 C 
BRANCH  24  26
ATOM     25  C   UNL     1       7.583   8.042  17.763  0.00  0.00    +0.000 C 
ATOM     26  C   UNL     1       7.507   6.604  17.276  0.00  0.00    +0.000 C 
ENDBRANCH  24  26
ENDBRANCH  23  24
BRANCH  23  27
ATOM     27  C   UNL     1       5.445   3.977  16.131  0.00  0.00    +0.000 C 
BRANCH  27  28
ATOM     28  C   UNL     1       6.371   4.138  14.913  0.00  0.00    +0.000 C 
ATOM     29  C   UNL     1       5.704   3.800  13.591  0.00  0.00    +0.000 C 
ENDBRANCH  27  28
ENDBRANCH  23  27
ENDBRANCH  22  23
ENDBRANCH  21  22
ENDBRANCH  20  21
ENDBRANCH  16  20
ENDBRANCH  15  17
ENDBRANCH   1  15
BRANCH  11  30
ATOM     30  C   UNL     1      -0.612  12.126  18.569  0.00  0.00    +0.000 C 
BRANCH  30  31
ATOM     31  C   UNL     1      -1.754  11.474  17.814  0.00  0.00    +0.000 A 
ATOM     32  C   UNL     1      -1.509  10.458  16.872  0.00  0.00    +0.000 A 
ATOM     33  C   UNL     1      -2.537   9.991  16.048  0.00  0.00    +0.000 A 
ATOM     34  C   UNL     1      -3.810  10.529  16.171  0.00  0.00    +0.000 A 
ATOM     35  F   UNL     1      -4.777  10.135  15.332  0.00  0.00    +0.000 F 
ATOM     36  C   UNL     1      -4.092  11.481  17.142  0.00  0.00    +0.000 A 
ATOM     37  C   UNL     1      -3.068  11.945  17.969  0.00  0.00    +0.000 A 
ENDBRANCH  30  31
ENDBRANCH  11  30
TORSDOF 12
ENDMDL
MODEL 2
REMARK VINA RESULT:      -7.5      2.360      3.504
REMARK  Name = 
REMARK  14 active torsions:
REMARK  status: ('A' for Active; 'I' for Inactive)
REMARK    1  A    between atoms: C_1  and  C_2
REMARK    2  A    between atoms: C_2  and  C_3
REMARK    3  A    between atoms: C_3  and  N_4
REMARK    4  A    between atoms: N_4  and  C_5
REMARK    5  A    between atoms: N_4  and  C_8
REMARK    6  A    between atoms: C_5  and  C_6
REMARK    7  A    between atoms: C_6  and  C_7
REMARK    8  A    between atoms: C_8  and  C_9
REMARK    9  A    between atoms: C_9  and  C_10
REMARK   10  A    between atoms: C_10  and  N_11
REMARK   11  A    between atoms: C_12  and  C_14
REMARK   12  A    between atoms: C_14  and  N_15
REMARK   13  A    between atoms: N_25  and  C_26
REMARK   14  A    between atoms: C_26  and  C_27
REMARK                            x       y       z     vdW  Elec       q    Type
REMARK                         _______ _______ _______ _____ _____    ______ ____
ROOT
ATOM      1  N   UNL     1       1.866   8.479  19.120  0.00  0.00    +0.000 N 
ATOM      2  N   UNL     1       1.601   7.859  20.353  0.00  0.00    +0.000 NA
ATOM      3  C   UNL     1       0.948   8.519  21.264  0.00  0.00    +0.000 A 
ATOM      4  C   UNL     1       0.387   9.806  20.986  0.00  0.00    +0.000 A 
ATOM      5  C   UNL     1      -0.476  10.654  21.719  0.00  0.00    +0.000 A 
ATOM      6  C   UNL     1      -1.049  10.585  23.001  0.00  0.00    +0.000 A 
ATOM      7  C   UNL     1      -1.919  11.601  23.419  0.00  0.00    +0.000 A 
ATOM      8  C   UNL     1      -2.257  12.633  22.556  0.00  0.00    +0.000 A 
ATOM      9  C   UNL     1      -1.720  12.713  21.267  0.00  0.00    +0.000 A 
ATOM     10  C   UNL     1      -0.817  11.716  20.870  0.00  0.00    +0.000 A 
ATOM     11  N   UNL     1      -0.140  11.523  19.670  0.00  0.00    +0.000 N 
ATOM     12  C   UNL     1       0.666  10.415  19.781  0.00  0.00    +0.000 A 
ATOM     13  C   UNL     1       1.581   9.831  18.837  0.00  0.00    +0.000 A 
ATOM     14  O   UNL     1       2.048  10.440  17.882  0.00  0.00    +0.000 OA
ENDROOT
BRANCH   1  15
ATOM     15  C   UNL     1       2.486   7.663  18.079  0.00  0.00    +0.000 C 
BRANCH  15  17
ATOM     16  N   UNL     1       3.227   5.703  19.387  0.00  0.00    +0.000 N 
ATOM     17  C   UNL     1       2.385   6.163  18.399  0.00  0.00    +0.000 C 
ATOM     18  O   UNL     1       1.687   5.406  17.726  0.00  0.00    +0.000 OA
ATOM     19  H   UNL     1       3.906   6.357  19.769  0.00  0.00    +0.000 HD
BRANCH  16  20
ATOM     20  C   UNL     1       3.269   4.318  19.825  0.00  0.00    +0.000 C 
BRANCH  20  21
ATOM     21  C   UNL     1       4.558   3.595  19.438  0.00  0.00    +0.000 C 
BRANCH  21  22
ATOM     22  C   UNL     1       5.708   4.537  19.048  0.00  0.00    +0.000 C 
BRANCH  22  23
ATOM     23  N   UNL     1       6.254   4.370  17.677  0.00  0.00    +0.000 NA
BRANCH  23  24
ATOM     24  C   UNL     1       5.273   4.876  16.685  0.00  0.00    +0.000 C 
BRANCH  24  26
ATOM     25  C   UNL     1       6.105   3.912  14.462  0.00  0.00    +0.000 C 
ATOM     26  C   UNL     1       5.774   5.162  15.261  0.00  0.00    +0.000 C 
ENDBRANCH  24  26
ENDBRANCH  23  24
BRANCH  23  27
ATOM     27  C   UNL     1       7.548   5.083  17.551  0.00  0.00    +0.000 C 
BRANCH  27  28
ATOM     28  C   UNL     1       7.687   6.375  18.375  0.00  0.00    +0.000 C 
ATOM     29  C   UNL     1       7.635   7.640  17.537  0.00  0.00    +0.000 C 
ENDBRANCH  27  28
ENDBRANCH  23  27
ENDBRANCH  22  23
ENDBRANCH  21  22
ENDBRANCH  20  21
ENDBRANCH  16  20
ENDBRANCH  15  17
ENDBRANCH   1  15
BRANCH  11  30
ATOM     30  C   UNL     1      -0.368  12.303  18.449  0.00  0.00    +0.000 C 
BRANCH  30  31
ATOM     31  C   UNL     1       0.409  13.605  18.495  0.00  0.00    +0.000 A 
ATOM     32  C   UNL     1       1.810  13.614  18.381  0.00  0.00    +0.000 A 
ATOM     33  C   UNL     1       2.534  14.787  18.608  0.00  0.00    +0.000 A 
ATOM     34  C   UNL     1       1.859  15.954  18.938  0.00  0.00    +0.000 A 
ATOM     35  F   UNL     1       2.557  17.060  19.229  0.00  0.00    +0.000 F 
ATOM     36  C   UNL     1       0.472  15.986  18.986  0.00  0.00    +0.000 A 
ATOM     37  C   UNL     1      -0.253  14.817  18.755  0.00  0.00    +0.000 A 
ENDBRANCH  30  31
ENDBRANCH  11  30
TORSDOF 12
ENDMDL
MODEL 3
REMARK VINA RESULT:      -7.4      3.034      9.500
REMARK  Name = 
REMARK  14 active torsions:
REMARK  status: ('A' for Active; 'I' for Inactive)
REMARK    1  A    between atoms: C_1  and  C_2
REMARK    2  A    between atoms: C_2  and  C_3
REMARK    3  A    between atoms: C_3  and  N_4
REMARK    4  A    between atoms: N_4  and  C_5
REMARK    5  A    between atoms: N_4  and  C_8
REMARK    6  A    between atoms: C_5  and  C_6
REMARK    7  A    between atoms: C_6  and  C_7
REMARK    8  A    between atoms: C_8  and  C_9
REMARK    9  A    between atoms: C_9  and  C_10
REMARK   10  A    between atoms: C_10  and  N_11
REMARK   11  A    between atoms: C_12  and  C_14
REMARK   12  A    between atoms: C_14  and  N_15
REMARK   13  A    between atoms: N_25  and  C_26
REMARK   14  A    between atoms: C_26  and  C_27
REMARK                            x       y       z     vdW  Elec       q    Type
REMARK                         _______ _______ _______ _____ _____    ______ ____
ROOT
ATOM      1  N   UNL     1       1.730   8.885  19.080  0.00  0.00    +0.000 N 
ATOM      2  N   UNL     1       1.265   8.586  20.373  0.00  0.00    +0.000 NA
ATOM      3  C   UNL     1       1.356   7.363  20.808  0.00  0.00    +0.000 A 
ATOM      4  C   UNL     1       2.034   6.356  20.051  0.00  0.00    +0.000 A 
ATOM      5  C   UNL     1       2.404   5.023  20.345  0.00  0.00    +0.000 A 
ATOM      6  C   UNL     1       2.196   4.177  21.448  0.00  0.00    +0.000 A 
ATOM      7  C   UNL     1       2.750   2.889  21.438  0.00  0.00    +0.000 A 
ATOM      8  C   UNL     1       3.541   2.474  20.378  0.00  0.00    +0.000 A 
ATOM      9  C   UNL     1       3.783   3.304  19.278  0.00  0.00    +0.000 A 
ATOM     10  C   UNL     1       3.192   4.576  19.275  0.00  0.00    +0.000 A 
ATOM     11  N   UNL     1       3.257   5.610  18.346  0.00  0.00    +0.000 N 
ATOM     12  C   UNL     1       2.470   6.653  18.778  0.00  0.00    +0.000 A 
ATOM     13  C   UNL     1       2.180   7.918  18.158  0.00  0.00    +0.000 A 
ATOM     14  O   UNL     1       2.325   8.134  16.960  0.00  0.00    +0.000 OA
ENDROOT
BRANCH   1  15
ATOM     15  C   UNL     1       1.732  10.290  18.677  0.00  0.00    +0.000 C 
BRANCH  15  17
ATOM     16  N   UNL     1      -0.432  11.110  19.541  0.00  0.00    +0.000 N 
ATOM     17  C   UNL     1       0.938  11.163  19.662  0.00  0.00    +0.000 C 
ATOM     18  O   UNL     1       1.501  11.951  20.421  0.00  0.00    +0.000 OA
ATOM     19  H   UNL     1      -0.816  10.574  18.766  0.00  0.00    +0.000 HD
BRANCH  16  20
ATOM     20  C   UNL     1      -1.342  11.864  20.386  0.00  0.00    +0.000 C 
BRANCH  20  21
ATOM     21  C   UNL     1      -2.617  12.306  19.668  0.00  0.00    +0.000 C 
BRANCH  21  22
ATOM     22  C   UNL     1      -2.896  11.540  18.366  0.00  0.00    +0.000 C 
BRANCH  22  23
ATOM     23  N   UNL     1      -4.263  11.683  17.803  0.00  0.00    +0.000 NA
BRANCH  23  24
ATOM     24  C   UNL     1      -4.254  11.301  16.369  0.00  0.00    +0.000 C 
BRANCH  24  26
ATOM     25  C   UNL     1      -2.885   9.993  14.644  0.00  0.00    +0.000 C 
ATOM     26  C   UNL     1      -2.892  11.099  15.686  0.00  0.00    +0.000 C 
ENDBRANCH  24  26
ENDBRANCH  23  24
BRANCH  23  27
ATOM     27  C   UNL     1      -5.221  10.846  18.565  0.00  0.00    +0.000 C 
BRANCH  27  28
ATOM     28  C   UNL     1      -6.544  11.527  18.957  0.00  0.00    +0.000 C 
ATOM     29  C   UNL     1      -6.510  13.040  18.837  0.00  0.00    +0.000 C 
ENDBRANCH  27  28
ENDBRANCH  23  27
ENDBRANCH  22  23
ENDBRANCH  21  22
ENDBRANCH  20  21
ENDBRANCH  16  20
ENDBRANCH  15  17
ENDBRANCH   1  15
BRANCH  11  30
ATOM     30  C   UNL     1       4.137   5.624  17.173  0.00  0.00    +0.000 C 
BRANCH  30  31
ATOM     31  C   UNL     1       5.530   6.086  17.557  0.00  0.00    +0.000 A 
ATOM     32  C   UNL     1       6.269   5.410  18.544  0.00  0.00    +0.000 A 
ATOM     33  C   UNL     1       7.467   5.943  19.024  0.00  0.00    +0.000 A 
ATOM     34  C   UNL     1       7.935   7.145  18.512  0.00  0.00    +0.000 A 
ATOM     35  F   UNL     1       9.045   7.694  19.024  0.00  0.00    +0.000 F 
ATOM     36  C   UNL     1       7.260   7.795  17.487  0.00  0.00    +0.000 A 
ATOM     37  C   UNL     1       6.065   7.261  17.002  0.00  0.00    +0.000 A 
ENDBRANCH  30  31
ENDBRANCH  11  30
TORSDOF 12
ENDMDL
MODEL 4
REMARK VINA RESULT:      -7.2      3.757      9.306
REMARK  Name = 
REMARK  14 active torsions:
REMARK  status: ('A' for Active; 'I' for Inactive)
REMARK    1  A    between atoms: C_1  and  C_2
REMARK    2  A    between atoms: C_2  and  C_3
REMARK    3  A    between atoms: C_3  and  N_4
REMARK    4  A    between atoms: N_4  and  C_5
REMARK    5  A    between atoms: N_4  and  C_8
REMARK    6  A    between atoms: C_5  and  C_6
REMARK    7  A    between atoms: C_6  and  C_7
REMARK    8  A    between atoms: C_8  and  C_9
REMARK    9  A    between atoms: C_9  and  C_10
REMARK   10  A    between atoms: C_10  and  N_11
REMARK   11  A    between atoms: C_12  and  C_14
REMARK   12  A    between atoms: C_14  and  N_15
REMARK   13  A    between atoms: N_25  and  C_26
REMARK   14  A    between atoms: C_26  and  C_27
REMARK                            x       y       z     vdW  Elec       q    Type
REMARK                         _______ _______ _______ _____ _____    ______ ____
ROOT
ATOM      1  N   UNL     1       1.965   8.760  18.974  0.00  0.00    +0.000 N 
ATOM      2  N   UNL     1       1.451   8.519  20.261  0.00  0.00    +0.000 NA
ATOM      3  C   UNL     1       1.461   7.305  20.728  0.00  0.00    +0.000 A 
ATOM      4  C   UNL     1       2.101   6.242  20.013  0.00  0.00    +0.000 A 
ATOM      5  C   UNL     1       2.389   4.899  20.349  0.00  0.00    +0.000 A 
ATOM      6  C   UNL     1       2.106   4.094  21.466  0.00  0.00    +0.000 A 
ATOM      7  C   UNL     1       2.587   2.778  21.501  0.00  0.00    +0.000 A 
ATOM      8  C   UNL     1       3.380   2.293  20.473  0.00  0.00    +0.000 A 
ATOM      9  C   UNL     1       3.696   3.081  19.361  0.00  0.00    +0.000 A 
ATOM     10  C   UNL     1       3.177   4.383  19.311  0.00  0.00    +0.000 A 
ATOM     11  N   UNL     1       3.324   5.388  18.360  0.00  0.00    +0.000 N 
ATOM     12  C   UNL     1       2.586   6.483  18.745  0.00  0.00    +0.000 A 
ATOM     13  C   UNL     1       2.383   7.746  18.088  0.00  0.00    +0.000 A 
ATOM     14  O   UNL     1       2.570   7.924  16.890  0.00  0.00    +0.000 OA
ENDROOT
BRANCH   1  15
ATOM     15  C   UNL     1       2.055  10.151  18.538  0.00  0.00    +0.000 C 
BRANCH  15  17
ATOM     16  N   UNL     1       0.799  11.871  19.790  0.00  0.00    +0.000 N 
ATOM     17  C   UNL     1       0.747  10.914  18.802  0.00  0.00    +0.000 C 
ATOM     18  O   UNL     1      -0.306  10.597  18.249  0.00  0.00    +0.000 OA
ATOM     19  H   UNL     1       1.660  11.946  20.327  0.00  0.00    +0.000 HD
BRANCH  16  20
ATOM     20  C   UNL     1      -0.337  12.692  20.174  0.00  0.00    +0.000 C 
BRANCH  20  21
ATOM     21  C   UNL     1      -0.500  13.947  19.317  0.00  0.00    +0.000 C 
BRANCH  21  22
ATOM     22  C   UNL     1       0.449  15.092  19.703  0.00  0.00    +0.000 C 
BRANCH  22  23
ATOM     23  N   UNL     1       1.314  15.618  18.617  0.00  0.00    +0.000 NA
BRANCH  23  24
ATOM     24  C   UNL     1       1.330  17.101  18.666  0.00  0.00    +0.000 C 
BRANCH  24  26
ATOM     25  C   UNL     1       1.012  18.335  16.443  0.00  0.00    +0.000 C 
ATOM     26  C   UNL     1       0.371  17.862  17.738  0.00  0.00    +0.000 C 
ENDBRANCH  24  26
ENDBRANCH  23  24
BRANCH  23  27
ATOM     27  C   UNL     1       2.687  15.071  18.745  0.00  0.00    +0.000 C 
BRANCH  27  28
ATOM     28  C   UNL     1       3.745  15.683  17.810  0.00  0.00    +0.000 C 
ATOM     29  C   UNL     1       5.057  14.920  17.792  0.00  0.00    +0.000 C 
ENDBRANCH  27  28
ENDBRANCH  23  27
ENDBRANCH  22  23
ENDBRANCH  21  22
ENDBRANCH  20  21
ENDBRANCH  16  20
ENDBRANCH  15  17
ENDBRANCH   1  15
BRANCH  11  30
ATOM     30  C   UNL     1       4.233   5.323  17.211  0.00  0.00    +0.000 C 
BRANCH  30  31
ATOM     31  C   UNL     1       5.595   5.882  17.577  0.00  0.00    +0.000 A 
ATOM     32  C   UNL     1       6.374   5.284  18.583  0.00  0.00    +0.000 A 
ATOM     33  C   UNL     1       7.538   5.905  19.044  0.00  0.00    +0.000 A 
ATOM     34  C   UNL     1       7.931   7.116  18.492  0.00  0.00    +0.000 A 
ATOM     35  F   UNL     1       9.005   7.748  18.984  0.00  0.00    +0.000 F 
ATOM     36  C   UNL     1       7.218   7.690  17.448  0.00  0.00    +0.000 A 
ATOM     37  C   UNL     1       6.058   7.069  16.983  0.00  0.00    +0.000 A 
ENDBRANCH  30  31
ENDBRANCH  11  30
TORSDOF 12
ENDMDL
MODEL 5
REMARK VINA RESULT:      -7.1      3.162      9.772
REMARK  Name = 
REMARK  14 active torsions:
REMARK  status: ('A' for Active; 'I' for Inactive)
REMARK    1  A    between atoms: C_1  and  C_2
REMARK    2  A    between atoms: C_2  and  C_3
REMARK    3  A    between atoms: C_3  and  N_4
REMARK    4  A    between atoms: N_4  and  C_5
REMARK    5  A    between atoms: N_4  and  C_8
REMARK    6  A    between atoms: C_5  and  C_6
REMARK    7  A    between atoms: C_6  and  C_7
REMARK    8  A    between atoms: C_8  and  C_9
REMARK    9  A    between atoms: C_9  and  C_10
REMARK   10  A    between atoms: C_10  and  N_11
REMARK   11  A    between atoms: C_12  and  C_14
REMARK   12  A    between atoms: C_14  and  N_15
REMARK   13  A    between atoms: N_25  and  C_26
REMARK   14  A    between atoms: C_26  and  C_27
REMARK                            x       y       z     vdW  Elec       q    Type
REMARK                         _______ _______ _______ _____ _____    ______ ____
ROOT
ATOM      1  N   UNL     1       1.999   8.852  18.812  0.00  0.00    +0.000 N 
ATOM      2  N   UNL     1       1.462   8.650  20.096  0.00  0.00    +0.000 NA
ATOM      3  C   UNL     1       1.465   7.451  20.599  0.00  0.00    +0.000 A 
ATOM      4  C   UNL     1       2.119   6.368  19.929  0.00  0.00    +0.000 A 
ATOM      5  C   UNL     1       2.402   5.036  20.312  0.00  0.00    +0.000 A 
ATOM      6  C   UNL     1       2.099   4.265  21.447  0.00  0.00    +0.000 A 
ATOM      7  C   UNL     1       2.580   2.951  21.532  0.00  0.00    +0.000 A 
ATOM      8  C   UNL     1       3.393   2.436  20.533  0.00  0.00    +0.000 A 
ATOM      9  C   UNL     1       3.728   3.190  19.403  0.00  0.00    +0.000 A 
ATOM     10  C   UNL     1       3.209   4.489  19.305  0.00  0.00    +0.000 A 
ATOM     11  N   UNL     1       3.372   5.465  18.326  0.00  0.00    +0.000 N 
ATOM     12  C   UNL     1       2.626   6.570  18.664  0.00  0.00    +0.000 A 
ATOM     13  C   UNL     1       2.434   7.812  17.965  0.00  0.00    +0.000 A 
ATOM     14  O   UNL     1       2.643   7.953  16.765  0.00  0.00    +0.000 OA
ENDROOT
BRANCH   1  15
ATOM     15  C   UNL     1       2.095  10.229  18.334  0.00  0.00    +0.000 C 
BRANCH  15  17
ATOM     16  N   UNL     1      -0.354  10.538  18.413  0.00  0.00    +0.000 N 
ATOM     17  C   UNL     1       0.873  11.061  18.753  0.00  0.00    +0.000 C 
ATOM     18  O   UNL     1       0.995  12.182  19.247  0.00  0.00    +0.000 OA
ATOM     19  H   UNL     1      -0.364   9.695  17.843  0.00  0.00    +0.000 HD
BRANCH  16  20
ATOM     20  C   UNL     1      -1.618  11.182  18.729  0.00  0.00    +0.000 C 
BRANCH  20  21
ATOM     21  C   UNL     1      -2.564  11.287  17.534  0.00  0.00    +0.000 C 
BRANCH  21  22
ATOM     22  C   UNL     1      -3.782  10.354  17.621  0.00  0.00    +0.000 C 
BRANCH  22  23
ATOM     23  N   UNL     1      -5.079  11.000  17.950  0.00  0.00    +0.000 NA
BRANCH  23  24
ATOM     24  C   UNL     1      -5.144  11.273  19.407  0.00  0.00    +0.000 C 
BRANCH  24  26
ATOM     25  C   UNL     1      -4.214  12.856  21.194  0.00  0.00    +0.000 C 
ATOM     26  C   UNL     1      -4.959  12.725  19.875  0.00  0.00    +0.000 C 
ENDBRANCH  24  26
ENDBRANCH  23  24
BRANCH  23  27
ATOM     27  C   UNL     1      -5.240  12.251  17.171  0.00  0.00    +0.000 C 
BRANCH  27  28
ATOM     28  C   UNL     1      -6.684  12.752  16.996  0.00  0.00    +0.000 C 
ATOM     29  C   UNL     1      -6.786  14.249  16.764  0.00  0.00    +0.000 C 
ENDBRANCH  27  28
ENDBRANCH  23  27
ENDBRANCH  22  23
ENDBRANCH  21  22
ENDBRANCH  20  21
ENDBRANCH  16  20
ENDBRANCH  15  17
ENDBRANCH   1  15
BRANCH  11  30
ATOM     30  C   UNL     1       4.302   5.366  17.196  0.00  0.00    +0.000 C 
BRANCH  30  31
ATOM     31  C   UNL     1       5.656   5.937  17.569  0.00  0.00    +0.000 A 
ATOM     32  C   UNL     1       6.456   5.319  18.547  0.00  0.00    +0.000 A 
ATOM     33  C   UNL     1       7.612   5.945  19.019  0.00  0.00    +0.000 A 
ATOM     34  C   UNL     1       7.978   7.182  18.506  0.00  0.00    +0.000 A 
ATOM     35  F   UNL     1       9.045   7.817  19.011  0.00  0.00    +0.000 F 
ATOM     36  C   UNL     1       7.244   7.778  17.489  0.00  0.00    +0.000 A 
ATOM     37  C   UNL     1       6.092   7.152  17.013  0.00  0.00    +0.000 A 
ENDBRANCH  30  31
ENDBRANCH  11  30
TORSDOF 12
ENDMDL
MODEL 6
REMARK VINA RESULT:      -7.1      2.999      9.325
REMARK  Name = 
REMARK  14 active torsions:
REMARK  status: ('A' for Active; 'I' for Inactive)
REMARK    1  A    between atoms: C_1  and  C_2
REMARK    2  A    between atoms: C_2  and  C_3
REMARK    3  A    between atoms: C_3  and  N_4
REMARK    4  A    between atoms: N_4  and  C_5
REMARK    5  A    between atoms: N_4  and  C_8
REMARK    6  A    between atoms: C_5  and  C_6
REMARK    7  A    between atoms: C_6  and  C_7
REMARK    8  A    between atoms: C_8  and  C_9
REMARK    9  A    between atoms: C_9  and  C_10
REMARK   10  A    between atoms: C_10  and  N_11
REMARK   11  A    between atoms: C_12  and  C_14
REMARK   12  A    between atoms: C_14  and  N_15
REMARK   13  A    between atoms: N_25  and  C_26
REMARK   14  A    between atoms: C_26  and  C_27
REMARK                            x       y       z     vdW  Elec       q    Type
REMARK                         _______ _______ _______ _____ _____    ______ ____
ROOT
ATOM      1  N   UNL     1       2.118   8.865  18.799  0.00  0.00    +0.000 N 
ATOM      2  N   UNL     1       1.549   8.678  20.071  0.00  0.00    +0.000 NA
ATOM      3  C   UNL     1       1.497   7.477  20.568  0.00  0.00    +0.000 A 
ATOM      4  C   UNL     1       2.122   6.373  19.905  0.00  0.00    +0.000 A 
ATOM      5  C   UNL     1       2.346   5.029  20.285  0.00  0.00    +0.000 A 
ATOM      6  C   UNL     1       1.993   4.265  21.411  0.00  0.00    +0.000 A 
ATOM      7  C   UNL     1       2.422   2.933  21.498  0.00  0.00    +0.000 A 
ATOM      8  C   UNL     1       3.233   2.393  20.512  0.00  0.00    +0.000 A 
ATOM      9  C   UNL     1       3.618   3.138  19.392  0.00  0.00    +0.000 A 
ATOM     10  C   UNL     1       3.151   4.457  19.290  0.00  0.00    +0.000 A 
ATOM     11  N   UNL     1       3.370   5.430  18.320  0.00  0.00    +0.000 N 
ATOM     12  C   UNL     1       2.660   6.561  18.650  0.00  0.00    +0.000 A 
ATOM     13  C   UNL     1       2.529   7.813  17.954  0.00  0.00    +0.000 A 
ATOM     14  O   UNL     1       2.765   7.951  16.760  0.00  0.00    +0.000 OA
ENDROOT
BRANCH   1  15
ATOM     15  C   UNL     1       2.276  10.240  18.331  0.00  0.00    +0.000 C 
BRANCH  15  17
ATOM     16  N   UNL     1      -0.177  10.312  18.044  0.00  0.00    +0.000 N 
ATOM     17  C   UNL     1       0.951  11.017  18.397  0.00  0.00    +0.000 C 
ATOM     18  O   UNL     1       0.925  12.225  18.630  0.00  0.00    +0.000 OA
ATOM     19  H   UNL     1      -0.049   9.368  17.687  0.00  0.00    +0.000 HD
BRANCH  16  20
ATOM     20  C   UNL     1      -1.514  10.880  18.050  0.00  0.00    +0.000 C 
BRANCH  20  21
ATOM     21  C   UNL     1      -2.059  11.144  19.453  0.00  0.00    +0.000 C 
BRANCH  21  22
ATOM     22  C   UNL     1      -2.586  12.573  19.658  0.00  0.00    +0.000 C 
BRANCH  22  23
ATOM     23  N   UNL     1      -2.316  13.186  20.984  0.00  0.00    +0.000 NA
BRANCH  23  24
ATOM     24  C   UNL     1      -2.371  12.142  22.037  0.00  0.00    +0.000 C 
BRANCH  24  26
ATOM     25  C   UNL     1      -0.720  10.453  23.029  0.00  0.00    +0.000 C 
ATOM     26  C   UNL     1      -1.115  11.915  22.892  0.00  0.00    +0.000 C 
ENDBRANCH  24  26
ENDBRANCH  23  24
BRANCH  23  27
ATOM     27  C   UNL     1      -0.995  13.859  20.978  0.00  0.00    +0.000 C 
BRANCH  27  28
ATOM     28  C   UNL     1      -0.984  15.315  20.481  0.00  0.00    +0.000 C 
ATOM     29  C   UNL     1      -0.155  15.524  19.226  0.00  0.00    +0.000 C 
ENDBRANCH  27  28
ENDBRANCH  23  27
ENDBRANCH  22  23
ENDBRANCH  21  22
ENDBRANCH  20  21
ENDBRANCH  16  20
ENDBRANCH  15  17
ENDBRANCH   1  15
BRANCH  11  30
ATOM     30  C   UNL     1       4.316   5.301  17.208  0.00  0.00    +0.000 C 
BRANCH  30  31
ATOM     31  C   UNL     1       5.663   5.887  17.583  0.00  0.00    +0.000 A 
ATOM     32  C   UNL     1       6.443   5.309  18.601  0.00  0.00    +0.000 A 
ATOM     33  C   UNL     1       7.591   5.954  19.069  0.00  0.00    +0.000 A 
ATOM     34  C   UNL     1       7.967   7.170  18.514  0.00  0.00    +0.000 A 
ATOM     35  F   UNL     1       9.024   7.824  19.013  0.00  0.00    +0.000 F 
ATOM     36  C   UNL     1       7.254   7.724  17.460  0.00  0.00    +0.000 A 
ATOM     37  C   UNL     1       6.110   7.079  16.987  0.00  0.00    +0.000 A 
ENDBRANCH  30  31
ENDBRANCH  11  30
TORSDOF 12
ENDMDL
MODEL 7
REMARK VINA RESULT:      -7.0      3.063      9.355
REMARK  Name = 
REMARK  14 active torsions:
REMARK  status: ('A' for Active; 'I' for Inactive)
REMARK    1  A    between atoms: C_1  and  C_2
REMARK    2  A    between atoms: C_2  and  C_3
REMARK    3  A    between atoms: C_3  and  N_4
REMARK    4  A    between atoms: N_4  and  C_5
REMARK    5  A    between atoms: N_4  and  C_8
REMARK    6  A    between atoms: C_5  and  C_6
REMARK    7  A    between atoms: C_6  and  C_7
REMARK    8  A    between atoms: C_8  and  C_9
REMARK    9  A    between atoms: C_9  and  C_10
REMARK   10  A    between atoms: C_10  and  N_11
REMARK   11  A    between atoms: C_12  and  C_14
REMARK   12  A    between atoms: C_14  and  N_15
REMARK   13  A    between atoms: N_25  and  C_26
REMARK   14  A    between atoms: C_26  and  C_27
REMARK                            x       y       z     vdW  Elec       q    Type
REMARK                         _______ _______ _______ _____ _____    ______ ____
ROOT
ATOM      1  N   UNL     1       1.939   8.668  19.009  0.00  0.00    +0.000 N 
ATOM      2  N   UNL     1       1.436   8.413  20.297  0.00  0.00    +0.000 NA
ATOM      3  C   UNL     1       1.471   7.197  20.758  0.00  0.00    +0.000 A 
ATOM      4  C   UNL     1       2.126   6.150  20.036  0.00  0.00    +0.000 A 
ATOM      5  C   UNL     1       2.440   4.811  20.366  0.00  0.00    +0.000 A 
ATOM      6  C   UNL     1       2.177   3.996  21.481  0.00  0.00    +0.000 A 
ATOM      7  C   UNL     1       2.682   2.689  21.509  0.00  0.00    +0.000 A 
ATOM      8  C   UNL     1       3.480   2.223  20.475  0.00  0.00    +0.000 A 
ATOM      9  C   UNL     1       3.776   3.020  19.364  0.00  0.00    +0.000 A 
ATOM     10  C   UNL     1       3.233   4.313  19.322  0.00  0.00    +0.000 A 
ATOM     11  N   UNL     1       3.357   5.324  18.374  0.00  0.00    +0.000 N 
ATOM     12  C   UNL     1       2.600   6.403  18.767  0.00  0.00    +0.000 A 
ATOM     13  C   UNL     1       2.371   7.666  18.116  0.00  0.00    +0.000 A 
ATOM     14  O   UNL     1       2.549   7.851  16.918  0.00  0.00    +0.000 OA
ENDROOT
BRANCH   1  15
ATOM     15  C   UNL     1       2.001  10.062  18.577  0.00  0.00    +0.000 C 
BRANCH  15  17
ATOM     16  N   UNL     1       0.364  11.913  18.555  0.00  0.00    +0.000 N 
ATOM     17  C   UNL     1       0.611  10.604  18.206  0.00  0.00    +0.000 C 
ATOM     18  O   UNL     1      -0.262   9.872  17.741  0.00  0.00    +0.000 OA
ATOM     19  H   UNL     1       1.074  12.395  19.102  0.00  0.00    +0.000 HD
BRANCH  16  20
ATOM     20  C   UNL     1      -0.890  12.593  18.283  0.00  0.00    +0.000 C 
BRANCH  20  21
ATOM     21  C   UNL     1      -2.068  12.047  19.087  0.00  0.00    +0.000 C 
BRANCH  21  22
ATOM     22  C   UNL     1      -2.042  12.437  20.574  0.00  0.00    +0.000 C 
BRANCH  22  23
ATOM     23  N   UNL     1      -0.753  12.966  21.088  0.00  0.00    +0.000 NA
BRANCH  23  24
ATOM     24  C   UNL     1      -1.000  14.194  21.884  0.00  0.00    +0.000 C 
BRANCH  24  26
ATOM     25  C   UNL     1      -2.666  15.659  23.163  0.00  0.00    +0.000 C 
ATOM     26  C   UNL     1      -2.450  14.685  22.017  0.00  0.00    +0.000 C 
ENDBRANCH  24  26
ENDBRANCH  23  24
BRANCH  23  27
ATOM     27  C   UNL     1      -0.066  11.937  21.906  0.00  0.00    +0.000 C 
BRANCH  27  28
ATOM     28  C   UNL     1      -0.851  10.636  22.148  0.00  0.00    +0.000 C 
ATOM     29  C   UNL     1      -0.257   9.759  23.235  0.00  0.00    +0.000 C 
ENDBRANCH  27  28
ENDBRANCH  23  27
ENDBRANCH  22  23
ENDBRANCH  21  22
ENDBRANCH  20  21
ENDBRANCH  16  20
ENDBRANCH  15  17
ENDBRANCH   1  15
BRANCH  11  30
ATOM     30  C   UNL     1       4.261   5.280  17.221  0.00  0.00    +0.000 C 
BRANCH  30  31
ATOM     31  C   UNL     1       5.615   5.859  17.583  0.00  0.00    +0.000 A 
ATOM     32  C   UNL     1       6.413   5.264  18.576  0.00  0.00    +0.000 A 
ATOM     33  C   UNL     1       7.569   5.900  19.036  0.00  0.00    +0.000 A 
ATOM     34  C   UNL     1       7.936   7.125  18.496  0.00  0.00    +0.000 A 
ATOM     35  F   UNL     1       9.002   7.771  18.987  0.00  0.00    +0.000 F 
ATOM     36  C   UNL     1       7.204   7.698  17.464  0.00  0.00    +0.000 A 
ATOM     37  C   UNL     1       6.051   7.062  17.000  0.00  0.00    +0.000 A 
ENDBRANCH  30  31
ENDBRANCH  11  30
TORSDOF 12
ENDMDL
MODEL 8
REMARK VINA RESULT:      -7.0      3.239     10.050
REMARK  Name = 
REMARK  14 active torsions:
REMARK  status: ('A' for Active; 'I' for Inactive)
REMARK    1  A    between atoms: C_1  and  C_2
REMARK    2  A    between atoms: C_2  and  C_3
REMARK    3  A    between atoms: C_3  and  N_4
REMARK    4  A    between atoms: N_4  and  C_5
REMARK    5  A    between atoms: N_4  and  C_8
REMARK    6  A    between atoms: C_5  and  C_6
REMARK    7  A    between atoms: C_6  and  C_7
REMARK    8  A    between atoms: C_8  and  C_9
REMARK    9  A    between atoms: C_9  and  C_10
REMARK   10  A    between atoms: C_10  and  N_11
REMARK   11  A    between atoms: C_12  and  C_14
REMARK   12  A    between atoms: C_14  and  N_15
REMARK   13  A    between atoms: N_25  and  C_26
REMARK   14  A    between atoms: C_26  and  C_27
REMARK                            x       y       z     vdW  Elec       q    Type
REMARK                         _______ _______ _______ _____ _____    ______ ____
ROOT
ATOM      1  N   UNL     1       1.858   8.801  19.088  0.00  0.00    +0.000 N 
ATOM      2  N   UNL     1       1.371   8.516  20.375  0.00  0.00    +0.000 NA
ATOM      3  C   UNL     1       1.413   7.289  20.808  0.00  0.00    +0.000 A 
ATOM      4  C   UNL     1       2.061   6.260  20.054  0.00  0.00    +0.000 A 
ATOM      5  C   UNL     1       2.380   4.914  20.348  0.00  0.00    +0.000 A 
ATOM      6  C   UNL     1       2.132   4.073  21.446  0.00  0.00    +0.000 A 
ATOM      7  C   UNL     1       2.639   2.766  21.438  0.00  0.00    +0.000 A 
ATOM      8  C   UNL     1       3.425   2.326  20.383  0.00  0.00    +0.000 A 
ATOM      9  C   UNL     1       3.706   3.149  19.288  0.00  0.00    +0.000 A 
ATOM     10  C   UNL     1       3.161   4.442  19.283  0.00  0.00    +0.000 A 
ATOM     11  N   UNL     1       3.272   5.475  18.358  0.00  0.00    +0.000 N 
ATOM     12  C   UNL     1       2.519   6.544  18.785  0.00  0.00    +0.000 A 
ATOM     13  C   UNL     1       2.281   7.821  18.167  0.00  0.00    +0.000 A 
ATOM     14  O   UNL     1       2.444   8.035  16.971  0.00  0.00    +0.000 OA
ENDROOT
BRANCH   1  15
ATOM     15  C   UNL     1       1.913  10.205  18.688  0.00  0.00    +0.000 C 
BRANCH  15  17
ATOM     16  N   UNL     1      -0.263  10.816  19.687  0.00  0.00    +0.000 N 
ATOM     17  C   UNL     1       1.084  11.095  19.629  0.00  0.00    +0.000 C 
ATOM     18  O   UNL     1       1.578  12.071  20.192  0.00  0.00    +0.000 OA
ATOM     19  H   UNL     1      -0.624  10.110  19.050  0.00  0.00    +0.000 HD
BRANCH  16  20
ATOM     20  C   UNL     1      -1.199  11.549  20.521  0.00  0.00    +0.000 C 
BRANCH  20  21
ATOM     21  C   UNL     1      -1.931  12.667  19.780  0.00  0.00    +0.000 C 
BRANCH  21  22
ATOM     22  C   UNL     1      -3.461  12.605  19.912  0.00  0.00    +0.000 C 
BRANCH  22  23
ATOM     23  N   UNL     1      -4.069  13.523  20.909  0.00  0.00    +0.000 NA
BRANCH  23  24
ATOM     24  C   UNL     1      -4.543  12.745  22.080  0.00  0.00    +0.000 C 
BRANCH  24  26
ATOM     25  C   UNL     1      -4.281  12.501  24.617  0.00  0.00    +0.000 C 
ATOM     26  C   UNL     1      -3.583  12.579  23.269  0.00  0.00    +0.000 C 
ENDBRANCH  24  26
ENDBRANCH  23  24
BRANCH  23  27
ATOM     27  C   UNL     1      -3.086  14.554  21.322  0.00  0.00    +0.000 C 
BRANCH  27  28
ATOM     28  C   UNL     1      -3.593  16.007  21.315  0.00  0.00    +0.000 C 
ATOM     29  C   UNL     1      -2.872  16.898  20.320  0.00  0.00    +0.000 C 
ENDBRANCH  27  28
ENDBRANCH  23  27
ENDBRANCH  22  23
ENDBRANCH  21  22
ENDBRANCH  20  21
ENDBRANCH  16  20
ENDBRANCH  15  17
ENDBRANCH   1  15
BRANCH  11  30
ATOM     30  C   UNL     1       4.162   5.460  17.193  0.00  0.00    +0.000 C 
BRANCH  30  31
ATOM     31  C   UNL     1       5.542   5.965  17.569  0.00  0.00    +0.000 A 
ATOM     32  C   UNL     1       6.299   5.321  18.565  0.00  0.00    +0.000 A 
ATOM     33  C   UNL     1       7.483   5.893  19.038  0.00  0.00    +0.000 A 
ATOM     34  C   UNL     1       7.918   7.100  18.509  0.00  0.00    +0.000 A 
ATOM     35  F   UNL     1       9.013   7.685  19.014  0.00  0.00    +0.000 F 
ATOM     36  C   UNL     1       7.226   7.718  17.476  0.00  0.00    +0.000 A 
ATOM     37  C   UNL     1       6.046   7.146  16.999  0.00  0.00    +0.000 A 
ENDBRANCH  30  31
ENDBRANCH  11  30
TORSDOF 12
ENDMDL
MODEL 9
REMARK VINA RESULT:      -7.0      2.511      3.730
REMARK  Name = 
REMARK  14 active torsions:
REMARK  status: ('A' for Active; 'I' for Inactive)
REMARK    1  A    between atoms: C_1  and  C_2
REMARK    2  A    between atoms: C_2  and  C_3
REMARK    3  A    between atoms: C_3  and  N_4
REMARK    4  A    between atoms: N_4  and  C_5
REMARK    5  A    between atoms: N_4  and  C_8
REMARK    6  A    between atoms: C_5  and  C_6
REMARK    7  A    between atoms: C_6  and  C_7
REMARK    8  A    between atoms: C_8  and  C_9
REMARK    9  A    between atoms: C_9  and  C_10
REMARK   10  A    between atoms: C_10  and  N_11
REMARK   11  A    between atoms: C_12  and  C_14
REMARK   12  A    between atoms: C_14  and  N_15
REMARK   13  A    between atoms: N_25  and  C_26
REMARK   14  A    between atoms: C_26  and  C_27
REMARK                            x       y       z     vdW  Elec       q    Type
REMARK                         _______ _______ _______ _____ _____    ______ ____
ROOT
ATOM      1  N   UNL     1       1.855   8.424  19.172  0.00  0.00    +0.000 N 
ATOM      2  N   UNL     1       1.528   7.800  20.389  0.00  0.00    +0.000 NA
ATOM      3  C   UNL     1       0.871   8.476  21.287  0.00  0.00    +0.000 A 
ATOM      4  C   UNL     1       0.367   9.786  21.006  0.00  0.00    +0.000 A 
ATOM      5  C   UNL     1      -0.487  10.657  21.721  0.00  0.00    +0.000 A 
ATOM      6  C   UNL     1      -1.103  10.596  22.984  0.00  0.00    +0.000 A 
ATOM      7  C   UNL     1      -1.948  11.640  23.385  0.00  0.00    +0.000 A 
ATOM      8  C   UNL     1      -2.219  12.693  22.525  0.00  0.00    +0.000 A 
ATOM      9  C   UNL     1      -1.638  12.767  21.254  0.00  0.00    +0.000 A 
ATOM     10  C   UNL     1      -0.760  11.741  20.875  0.00  0.00    +0.000 A 
ATOM     11  N   UNL     1      -0.053  11.535  19.694  0.00  0.00    +0.000 N 
ATOM     12  C   UNL     1       0.708  10.396  19.818  0.00  0.00    +0.000 A 
ATOM     13  C   UNL     1       1.630   9.788  18.897  0.00  0.00    +0.000 A 
ATOM     14  O   UNL     1       2.150  10.390  17.964  0.00  0.00    +0.000 OA
ENDROOT
BRANCH   1  15
ATOM     15  C   UNL     1       2.477   7.596  18.141  0.00  0.00    +0.000 C 
BRANCH  15  17
ATOM     16  N   UNL     1       2.184   5.146  18.019  0.00  0.00    +0.000 N 
ATOM     17  C   UNL     1       2.807   6.189  18.666  0.00  0.00    +0.000 C 
ATOM     18  O   UNL     1       3.485   6.023  19.679  0.00  0.00    +0.000 OA
ATOM     19  H   UNL     1       1.495   5.378  17.308  0.00  0.00    +0.000 HD
BRANCH  16  20
ATOM     20  C   UNL     1       2.378   3.751  18.375  0.00  0.00    +0.000 C 
BRANCH  20  21
ATOM     21  C   UNL     1       3.617   3.124  17.737  0.00  0.00    +0.000 C 
BRANCH  21  22
ATOM     22  C   UNL     1       4.140   3.889  16.510  0.00  0.00    +0.000 C 
BRANCH  22  23
ATOM     23  N   UNL     1       5.600   4.158  16.481  0.00  0.00    +0.000 NA
BRANCH  23  24
ATOM     24  C   UNL     1       5.913   5.091  15.371  0.00  0.00    +0.000 C 
BRANCH  24  26
ATOM     25  C   UNL     1       5.988   3.718  13.209  0.00  0.00    +0.000 C 
ATOM     26  C   UNL     1       6.765   4.563  14.206  0.00  0.00    +0.000 C 
ENDBRANCH  24  26
ENDBRANCH  23  24
BRANCH  23  27
ATOM     27  C   UNL     1       6.044   4.718  17.781  0.00  0.00    +0.000 C 
BRANCH  27  28
ATOM     28  C   UNL     1       7.551   4.999  17.913  0.00  0.00    +0.000 C 
ATOM     29  C   UNL     1       7.919   5.772  19.167  0.00  0.00    +0.000 C 
ENDBRANCH  27  28
ENDBRANCH  23  27
ENDBRANCH  22  23
ENDBRANCH  21  22
ENDBRANCH  20  21
ENDBRANCH  16  20
ENDBRANCH  15  17
ENDBRANCH   1  15
BRANCH  11  30
ATOM     30  C   UNL     1      -0.212  12.336  18.476  0.00  0.00    +0.000 C 
BRANCH  30  31
ATOM     31  C   UNL     1       0.556  13.638  18.591  0.00  0.00    +0.000 A 
ATOM     32  C   UNL     1      -0.116  14.859  18.777  0.00  0.00    +0.000 A 
ATOM     33  C   UNL     1       0.575  16.071  18.697  0.00  0.00    +0.000 A 
ATOM     34  C   UNL     1       1.939  16.064  18.442  0.00  0.00    +0.000 A 
ATOM     35  F   UNL     1       2.588  17.227  18.292  0.00  0.00    +0.000 F 
ATOM     36  C   UNL     1       2.638  14.870  18.326  0.00  0.00    +0.000 A 
ATOM     37  C   UNL     1       1.950  13.658  18.411  0.00  0.00    +0.000 A 
ENDBRANCH  30  31
ENDBRANCH  11  30
TORSDOF 12
ENDMDL
