MODEL 1
REMARK VINA RESULT:      -8.1      0.000      0.000
REMARK  Name = 
REMARK  9 active torsions:
REMARK  status: ('A' for Active; 'I' for Inactive)
REMARK    1  A    between atoms: C_2  and  O_3
REMARK    2  A    between atoms: C_2  and  C_4
REMARK    3  A    between atoms: C_5  and  C_6
REMARK    4  A    between atoms: C_9  and  C_10
REMARK    5  A    between atoms: N_12  and  C_13
REMARK    6  A    between atoms: C_13  and  C_14
REMARK    7  A    between atoms: C_13  and  C_24
REMARK    8  A    between atoms: N_16  and  C_17
REMARK    9  A    between atoms: C_17  and  C_18
REMARK                            x       y       z     vdW  Elec       q    Type
REMARK                         _______ _______ _______ _____ _____    ______ ____
ROOT
ATOM      1  C   UNL     1       0.195  10.520  20.112  0.00  0.00    +0.000 C 
ENDROOT
BRANCH   1   2
ATOM      2  C   UNL     1      -1.113  10.839  19.400  0.00  0.00    +0.000 A 
ATOM      3  C   UNL     1      -1.442  10.154  18.217  0.00  0.00    +0.000 A 
ATOM      4  C   UNL     1      -2.596  10.477  17.498  0.00  0.00    +0.000 A 
ATOM      5  C   UNL     1      -3.439  11.491  17.947  0.00  0.00    +0.000 A 
ATOM      6  C   UNL     1      -3.134  12.175  19.121  0.00  0.00    +0.000 A 
ATOM      7  C   UNL     1      -1.979  11.856  19.840  0.00  0.00    +0.000 A 
ENDBRANCH   1   2
BRANCH   1  10
ATOM      8  C   UNL     1       1.511   8.416  20.008  0.00  0.00    +0.000 C 
ATOM      9  O   UNL     1       1.396   8.225  21.216  0.00  0.00    +0.000 OA
ATOM     10  N   UNL     1       0.909   9.478  19.376  0.00  0.00    +0.000 N 
ATOM     11  H   UNL     1       1.169   9.737  18.436  0.00  0.00    +0.000 HD
BRANCH   8  15
ATOM     12  C   UNL     1       3.936   5.825  17.530  0.00  0.00    +0.000 A 
ATOM     13  C   UNL     1       3.671   7.145  17.162  0.00  0.00    +0.000 A 
ATOM     14  C   UNL     1       2.875   7.959  17.979  0.00  0.00    +0.000 A 
ATOM     15  C   UNL     1       2.331   7.471  19.178  0.00  0.00    +0.000 A 
ATOM     16  C   UNL     1       2.603   6.146  19.543  0.00  0.00    +0.000 A 
ATOM     17  C   UNL     1       3.398   5.329  18.722  0.00  0.00    +0.000 A 
BRANCH  12  19
ATOM     18  C   UNL     1       5.738   5.525  15.911  0.00  0.00    +0.000 C 
ATOM     19  C   UNL     1       4.787   4.980  16.686  0.00  0.00    +0.000 C 
BRANCH  18  21
ATOM     20  O   UNL     1       7.674   5.340  14.582  0.00  0.00    +0.000 OA
ATOM     21  C   UNL     1       6.680   4.800  15.036  0.00  0.00    +0.000 C 
BRANCH  21  22
ATOM     22  O   UNL     1       6.341   3.530  14.749  0.00  0.00    +0.000 OA
ATOM     23  H   UNL     1       6.331   2.927  15.512  0.00  0.00    +0.000 HD
ENDBRANCH  21  22
ENDBRANCH  18  21
ENDBRANCH  12  19
ENDBRANCH   8  15
ENDBRANCH   1  10
BRANCH   1  24
ATOM     24  C   UNL     1       1.148  11.740  20.201  0.00  0.00    +0.000 C 
ATOM     25  O   UNL     1       1.605  12.128  21.278  0.00  0.00    +0.000 OA
ATOM     26  N   UNL     1       1.503  12.305  18.992  0.00  0.00    +0.000 N 
ATOM     27  H   UNL     1       0.983  12.057  18.161  0.00  0.00    +0.000 HD
BRANCH  26  28
ATOM     28  C   UNL     1       2.402  13.435  18.919  0.00  0.00    +0.000 C 
BRANCH  28  29
ATOM     29  C   UNL     1       1.665  14.731  18.700  0.00  0.00    +0.000 A 
ATOM     30  C   UNL     1       2.374  15.899  18.381  0.00  0.00    +0.000 A 
ATOM     31  C   UNL     1       1.703  17.107  18.187  0.00  0.00    +0.000 A 
ATOM     32  C   UNL     1       0.318  17.163  18.312  0.00  0.00    +0.000 A 
ATOM     33  C   UNL     1      -0.399  16.010  18.635  0.00  0.00    +0.000 A 
ATOM     34  C   UNL     1       0.270  14.800  18.831  0.00  0.00    +0.000 A 
ENDBRANCH  28  29
ENDBRANCH  26  28
ENDBRANCH   1  24
TORSDOF 9
ENDMDL
MODEL 2
REMARK VINA RESULT:      -7.9      0.575      1.350
REMARK  Name = 
REMARK  9 active torsions:
REMARK  status: ('A' for Active; 'I' for Inactive)
REMARK    1  A    between atoms: C_2  and  O_3
REMARK    2  A    between atoms: C_2  and  C_4
REMARK    3  A    between atoms: C_5  and  C_6
REMARK    4  A    between atoms: C_9  and  C_10
REMARK    5  A    between atoms: N_12  and  C_13
REMARK    6  A    between atoms: C_13  and  C_14
REMARK    7  A    between atoms: C_13  and  C_24
REMARK    8  A    between atoms: N_16  and  C_17
REMARK    9  A    between atoms: C_17  and  C_18
REMARK                            x       y       z     vdW  Elec       q    Type
REMARK                         _______ _______ _______ _____ _____    ______ ____
ROOT
ATOM      1  C   UNL     1      -0.058  10.132  19.865  0.00  0.00    +0.000 C 
ENDROOT
BRANCH   1   2
ATOM      2  C   UNL     1      -1.193  10.522  18.926  0.00  0.00    +0.000 A 
ATOM      3  C   UNL     1      -2.151  11.459  19.350  0.00  0.00    +0.000 A 
ATOM      4  C   UNL     1      -3.246  11.780  18.543  0.00  0.00    +0.000 A 
ATOM      5  C   UNL     1      -3.405  11.169  17.302  0.00  0.00    +0.000 A 
ATOM      6  C   UNL     1      -2.461  10.244  16.862  0.00  0.00    +0.000 A 
ATOM      7  C   UNL     1      -1.367   9.919  17.667  0.00  0.00    +0.000 A 
ENDBRANCH   1   2
BRANCH   1  10
ATOM      8  C   UNL     1       1.492   8.197  19.709  0.00  0.00    +0.000 C 
ATOM      9  O   UNL     1       1.158   7.776  20.813  0.00  0.00    +0.000 OA
ATOM     10  N   UNL     1       0.909   9.306  19.143  0.00  0.00    +0.000 N 
ATOM     11  H   UNL     1       1.321   9.757  18.339  0.00  0.00    +0.000 HD
BRANCH   8  15
ATOM     12  C   UNL     1       4.560   6.024  17.564  0.00  0.00    +0.000 A 
ATOM     13  C   UNL     1       3.990   5.515  18.733  0.00  0.00    +0.000 A 
ATOM     14  C   UNL     1       3.005   6.245  19.412  0.00  0.00    +0.000 A 
ATOM     15  C   UNL     1       2.570   7.493  18.937  0.00  0.00    +0.000 A 
ATOM     16  C   UNL     1       3.144   7.996  17.762  0.00  0.00    +0.000 A 
ATOM     17  C   UNL     1       4.134   7.266  17.083  0.00  0.00    +0.000 A 
BRANCH  12  19
ATOM     18  C   UNL     1       5.689   5.349  15.508  0.00  0.00    +0.000 C 
ATOM     19  C   UNL     1       5.575   5.250  16.841  0.00  0.00    +0.000 C 
BRANCH  18  21
ATOM     20  O   UNL     1       7.709   5.196  14.305  0.00  0.00    +0.000 OA
ATOM     21  C   UNL     1       6.675   4.655  14.656  0.00  0.00    +0.000 C 
BRANCH  21  22
ATOM     22  O   UNL     1       6.331   3.413  14.271  0.00  0.00    +0.000 OA
ATOM     23  H   UNL     1       5.473   3.347  13.818  0.00  0.00    +0.000 HD
ENDBRANCH  21  22
ENDBRANCH  18  21
ENDBRANCH  12  19
ENDBRANCH   8  15
ENDBRANCH   1  10
BRANCH   1  24
ATOM     24  C   UNL     1       0.718  11.355  20.417  0.00  0.00    +0.000 C 
ATOM     25  O   UNL     1       0.823  11.562  21.628  0.00  0.00    +0.000 OA
ATOM     26  N   UNL     1       1.340  12.141  19.468  0.00  0.00    +0.000 N 
ATOM     27  H   UNL     1       1.094  12.023  18.494  0.00  0.00    +0.000 HD
BRANCH  26  28
ATOM     28  C   UNL     1       2.118  13.301  19.838  0.00  0.00    +0.000 C 
BRANCH  28  29
ATOM     29  C   UNL     1       1.514  14.578  19.312  0.00  0.00    +0.000 A 
ATOM     30  C   UNL     1       2.342  15.600  18.823  0.00  0.00    +0.000 A 
ATOM     31  C   UNL     1       1.795  16.790  18.343  0.00  0.00    +0.000 A 
ATOM     32  C   UNL     1       0.415  16.975  18.350  0.00  0.00    +0.000 A 
ATOM     33  C   UNL     1      -0.419  15.970  18.840  0.00  0.00    +0.000 A 
ATOM     34  C   UNL     1       0.126  14.778  19.321  0.00  0.00    +0.000 A 
ENDBRANCH  28  29
ENDBRANCH  26  28
ENDBRANCH   1  24
TORSDOF 9
ENDMDL
MODEL 3
REMARK VINA RESULT:      -7.8      3.284      5.145
REMARK  Name = 
REMARK  9 active torsions:
REMARK  status: ('A' for Active; 'I' for Inactive)
REMARK    1  A    between atoms: C_2  and  O_3
REMARK    2  A    between atoms: C_2  and  C_4
REMARK    3  A    between atoms: C_5  and  C_6
REMARK    4  A    between atoms: C_9  and  C_10
REMARK    5  A    between atoms: N_12  and  C_13
REMARK    6  A    between atoms: C_13  and  C_14
REMARK    7  A    between atoms: C_13  and  C_24
REMARK    8  A    between atoms: N_16  and  C_17
REMARK    9  A    between atoms: C_17  and  C_18
REMARK                            x       y       z     vdW  Elec       q    Type
REMARK                         _______ _______ _______ _____ _____    ______ ____
ROOT
ATOM      1  C   UNL     1      -0.853  11.064  18.784  0.00  0.00    +0.000 C 
ENDROOT
BRANCH   1   2
ATOM      2  C   UNL     1      -1.207  11.518  20.194  0.00  0.00    +0.000 A 
ATOM      3  C   UNL     1      -0.633  10.861  21.297  0.00  0.00    +0.000 A 
ATOM      4  C   UNL     1      -0.996  11.202  22.603  0.00  0.00    +0.000 A 
ATOM      5  C   UNL     1      -1.941  12.200  22.829  0.00  0.00    +0.000 A 
ATOM      6  C   UNL     1      -2.514  12.866  21.749  0.00  0.00    +0.000 A 
ATOM      7  C   UNL     1      -2.154  12.527  20.442  0.00  0.00    +0.000 A 
ENDBRANCH   1   2
BRANCH   1  10
ATOM      8  C   UNL     1       1.341   9.922  18.542  0.00  0.00    +0.000 C 
ATOM      9  O   UNL     1       1.918  10.976  18.289  0.00  0.00    +0.000 OA
ATOM     10  N   UNL     1       0.002   9.879  18.853  0.00  0.00    +0.000 N 
ATOM     11  H   UNL     1      -0.501   9.004  18.862  0.00  0.00    +0.000 HD
BRANCH   8  15
ATOM     12  C   UNL     1       3.427   6.130  18.581  0.00  0.00    +0.000 A 
ATOM     13  C   UNL     1       2.523   6.474  19.588  0.00  0.00    +0.000 A 
ATOM     14  C   UNL     1       1.869   7.713  19.556  0.00  0.00    +0.000 A 
ATOM     15  C   UNL     1       2.102   8.629  18.516  0.00  0.00    +0.000 A 
ATOM     16  C   UNL     1       3.008   8.276  17.508  0.00  0.00    +0.000 A 
ATOM     17  C   UNL     1       3.666   7.035  17.543  0.00  0.00    +0.000 A 
BRANCH  12  19
ATOM     18  C   UNL     1       3.515   3.769  19.197  0.00  0.00    +0.000 C 
ATOM     19  C   UNL     1       4.095   4.824  18.604  0.00  0.00    +0.000 C 
BRANCH  18  21
ATOM     20  O   UNL     1       3.551   1.477  18.653  0.00  0.00    +0.000 OA
ATOM     21  C   UNL     1       4.055   2.398  19.273  0.00  0.00    +0.000 C 
BRANCH  21  22
ATOM     22  O   UNL     1       5.105   2.237  20.099  0.00  0.00    +0.000 OA
ATOM     23  H   UNL     1       5.864   2.815  19.913  0.00  0.00    +0.000 HD
ENDBRANCH  21  22
ENDBRANCH  18  21
ENDBRANCH  12  19
ENDBRANCH   8  15
ENDBRANCH   1  10
BRANCH   1  24
ATOM     24  C   UNL     1      -2.096  10.672  17.944  0.00  0.00    +0.000 C 
ATOM     25  O   UNL     1      -2.475   9.503  17.853  0.00  0.00    +0.000 OA
ATOM     26  N   UNL     1      -2.783  11.726  17.376  0.00  0.00    +0.000 N 
ATOM     27  H   UNL     1      -2.348  12.638  17.346  0.00  0.00    +0.000 HD
BRANCH  26  28
ATOM     28  C   UNL     1      -3.974  11.515  16.584  0.00  0.00    +0.000 C 
BRANCH  28  29
ATOM     29  C   UNL     1      -5.231  11.774  17.374  0.00  0.00    +0.000 A 
ATOM     30  C   UNL     1      -6.035  12.885  17.075  0.00  0.00    +0.000 A 
ATOM     31  C   UNL     1      -7.195  13.141  17.806  0.00  0.00    +0.000 A 
ATOM     32  C   UNL     1      -7.563  12.294  18.847  0.00  0.00    +0.000 A 
ATOM     33  C   UNL     1      -6.770  11.189  19.160  0.00  0.00    +0.000 A 
ATOM     34  C   UNL     1      -5.608  10.932  18.430  0.00  0.00    +0.000 A 
ENDBRANCH  28  29
ENDBRANCH  26  28
ENDBRANCH   1  24
TORSDOF 9
ENDMDL
MODEL 4
REMARK VINA RESULT:      -7.7      0.885      1.540
REMARK  Name = 
REMARK  9 active torsions:
REMARK  status: ('A' for Active; 'I' for Inactive)
REMARK    1  A    between atoms: C_2  and  O_3
REMARK    2  A    between atoms: C_2  and  C_4
REMARK    3  A    between atoms: C_5  and  C_6
REMARK    4  A    between atoms: C_9  and  C_10
REMARK    5  A    between atoms: N_12  and  C_13
REMARK    6  A    between atoms: C_13  and  C_14
REMARK    7  A    between atoms: C_13  and  C_24
REMARK    8  A    between atoms: N_16  and  C_17
REMARK    9  A    between atoms: C_17  and  C_18
REMARK                            x       y       z     vdW  Elec       q    Type
REMARK                         _______ _______ _______ _____ _____    ______ ____
ROOT
ATOM      1  C   UNL     1      -0.013   9.926  20.009  0.00  0.00    +0.000 C 
ENDROOT
BRANCH   1   2
ATOM      2  C   UNL     1      -1.038  10.485  19.030  0.00  0.00    +0.000 A 
ATOM      3  C   UNL     1      -1.943  11.469  19.463  0.00  0.00    +0.000 A 
ATOM      4  C   UNL     1      -2.945  11.946  18.612  0.00  0.00    +0.000 A 
ATOM      5  C   UNL     1      -3.061  11.445  17.318  0.00  0.00    +0.000 A 
ATOM      6  C   UNL     1      -2.169  10.475  16.870  0.00  0.00    +0.000 A 
ATOM      7  C   UNL     1      -1.168   9.995  17.718  0.00  0.00    +0.000 A 
ENDBRANCH   1   2
BRANCH   1  10
ATOM      8  C   UNL     1       1.542   7.995  19.862  0.00  0.00    +0.000 C 
ATOM      9  O   UNL     1       1.226   7.591  20.978  0.00  0.00    +0.000 OA
ATOM     10  N   UNL     1       0.947   9.092  19.287  0.00  0.00    +0.000 N 
ATOM     11  H   UNL     1       1.345   9.531  18.470  0.00  0.00    +0.000 HD
BRANCH   8  15
ATOM     12  C   UNL     1       4.649   6.082  17.533  0.00  0.00    +0.000 A 
ATOM     13  C   UNL     1       4.046   7.268  17.109  0.00  0.00    +0.000 A 
ATOM     14  C   UNL     1       3.036   7.860  17.878  0.00  0.00    +0.000 A 
ATOM     15  C   UNL     1       2.611   7.282  19.085  0.00  0.00    +0.000 A 
ATOM     16  C   UNL     1       3.222   6.094  19.507  0.00  0.00    +0.000 A 
ATOM     17  C   UNL     1       4.232   5.499  18.734  0.00  0.00    +0.000 A 
BRANCH  12  19
ATOM     18  C   UNL     1       5.609   5.367  15.405  0.00  0.00    +0.000 C 
ATOM     19  C   UNL     1       5.721   5.474  16.739  0.00  0.00    +0.000 C 
BRANCH  18  21
ATOM     20  O   UNL     1       6.385   3.808  13.820  0.00  0.00    +0.000 OA
ATOM     21  C   UNL     1       6.613   4.806  14.481  0.00  0.00    +0.000 C 
BRANCH  21  22
ATOM     22  O   UNL     1       7.795   5.447  14.455  0.00  0.00    +0.000 OA
ATOM     23  H   UNL     1       8.550   4.929  14.783  0.00  0.00    +0.000 HD
ENDBRANCH  21  22
ENDBRANCH  18  21
ENDBRANCH  12  19
ENDBRANCH   8  15
ENDBRANCH   1  10
BRANCH   1  24
ATOM     24  C   UNL     1       0.803  11.032  20.728  0.00  0.00    +0.000 C 
ATOM     25  O   UNL     1       0.976  11.019  21.948  0.00  0.00    +0.000 OA
ATOM     26  N   UNL     1       1.378  11.976  19.901  0.00  0.00    +0.000 N 
ATOM     27  H   UNL     1       1.078  12.034  18.937  0.00  0.00    +0.000 HD
BRANCH  26  28
ATOM     28  C   UNL     1       2.185  13.053  20.428  0.00  0.00    +0.000 C 
BRANCH  28  29
ATOM     29  C   UNL     1       2.350  14.175  19.436  0.00  0.00    +0.000 A 
ATOM     30  C   UNL     1       3.405  14.148  18.511  0.00  0.00    +0.000 A 
ATOM     31  C   UNL     1       3.573  15.186  17.594  0.00  0.00    +0.000 A 
ATOM     32  C   UNL     1       2.693  16.265  17.594  0.00  0.00    +0.000 A 
ATOM     33  C   UNL     1       1.644  16.308  18.512  0.00  0.00    +0.000 A 
ATOM     34  C   UNL     1       1.474  15.270  19.431  0.00  0.00    +0.000 A 
ENDBRANCH  28  29
ENDBRANCH  26  28
ENDBRANCH   1  24
TORSDOF 9
ENDMDL
MODEL 5
REMARK VINA RESULT:      -7.6      2.951      5.215
REMARK  Name = 
REMARK  9 active torsions:
REMARK  status: ('A' for Active; 'I' for Inactive)
REMARK    1  A    between atoms: C_2  and  O_3
REMARK    2  A    between atoms: C_2  and  C_4
REMARK    3  A    between atoms: C_5  and  C_6
REMARK    4  A    between atoms: C_9  and  C_10
REMARK    5  A    between atoms: N_12  and  C_13
REMARK    6  A    between atoms: C_13  and  C_14
REMARK    7  A    between atoms: C_13  and  C_24
REMARK    8  A    between atoms: N_16  and  C_17
REMARK    9  A    between atoms: C_17  and  C_18
REMARK                            x       y       z     vdW  Elec       q    Type
REMARK                         _______ _______ _______ _____ _____    ______ ____
ROOT
ATOM      1  C   UNL     1      -0.886  11.255  18.382  0.00  0.00    +0.000 C 
ENDROOT
BRANCH   1   2
ATOM      2  C   UNL     1      -1.107  12.080  19.644  0.00  0.00    +0.000 A 
ATOM      3  C   UNL     1      -1.137  13.482  19.558  0.00  0.00    +0.000 A 
ATOM      4  C   UNL     1      -1.259  14.269  20.706  0.00  0.00    +0.000 A 
ATOM      5  C   UNL     1      -1.350  13.668  21.960  0.00  0.00    +0.000 A 
ATOM      6  C   UNL     1      -1.329  12.280  22.063  0.00  0.00    +0.000 A 
ATOM      7  C   UNL     1      -1.205  11.491  20.917  0.00  0.00    +0.000 A 
ENDBRANCH   1   2
BRANCH   1  10
ATOM      8  C   UNL     1       1.217   9.937  18.486  0.00  0.00    +0.000 C 
ATOM      9  O   UNL     1       1.889  10.883  18.086  0.00  0.00    +0.000 OA
ATOM     10  N   UNL     1      -0.135  10.046  18.714  0.00  0.00    +0.000 N 
ATOM     11  H   UNL     1      -0.707   9.225  18.847  0.00  0.00    +0.000 HD
BRANCH   8  15
ATOM     12  C   UNL     1       2.995   6.085  19.343  0.00  0.00    +0.000 A 
ATOM     13  C   UNL     1       2.167   6.726  20.266  0.00  0.00    +0.000 A 
ATOM     14  C   UNL     1       1.613   7.978  19.966  0.00  0.00    +0.000 A 
ATOM     15  C   UNL     1       1.872   8.610  18.739  0.00  0.00    +0.000 A 
ATOM     16  C   UNL     1       2.701   7.960  17.816  0.00  0.00    +0.000 A 
ATOM     17  C   UNL     1       3.259   6.707  18.118  0.00  0.00    +0.000 A 
BRANCH  12  19
ATOM     18  C   UNL     1       3.490   3.768  18.752  0.00  0.00    +0.000 C 
ATOM     19  C   UNL     1       3.558   4.765  19.648  0.00  0.00    +0.000 C 
BRANCH  18  21
ATOM     20  O   UNL     1       3.481   1.437  18.418  0.00  0.00    +0.000 OA
ATOM     21  C   UNL     1       4.033   2.405  18.911  0.00  0.00    +0.000 C 
BRANCH  21  22
ATOM     22  O   UNL     1       5.144   2.311  19.663  0.00  0.00    +0.000 OA
ATOM     23  H   UNL     1       4.990   2.074  20.593  0.00  0.00    +0.000 HD
ENDBRANCH  21  22
ENDBRANCH  18  21
ENDBRANCH  12  19
ENDBRANCH   8  15
ENDBRANCH   1  10
BRANCH   1  24
ATOM     24  C   UNL     1      -2.211  10.794  17.721  0.00  0.00    +0.000 C 
ATOM     25  O   UNL     1      -2.584   9.620  17.769  0.00  0.00    +0.000 OA
ATOM     26  N   UNL     1      -2.969  11.797  17.149  0.00  0.00    +0.000 N 
ATOM     27  H   UNL     1      -2.550  12.704  16.997  0.00  0.00    +0.000 HD
BRANCH  26  28
ATOM     28  C   UNL     1      -4.238  11.518  16.516  0.00  0.00    +0.000 C 
BRANCH  28  29
ATOM     29  C   UNL     1      -5.403  11.879  17.402  0.00  0.00    +0.000 A 
ATOM     30  C   UNL     1      -5.686  11.111  18.541  0.00  0.00    +0.000 A 
ATOM     31  C   UNL     1      -6.769  11.429  19.363  0.00  0.00    +0.000 A 
ATOM     32  C   UNL     1      -7.582  12.515  19.053  0.00  0.00    +0.000 A 
ATOM     33  C   UNL     1      -7.316  13.284  17.919  0.00  0.00    +0.000 A 
ATOM     34  C   UNL     1      -6.234  12.966  17.095  0.00  0.00    +0.000 A 
ENDBRANCH  28  29
ENDBRANCH  26  28
ENDBRANCH   1  24
TORSDOF 9
ENDMDL
MODEL 6
REMARK VINA RESULT:      -7.6      3.011      5.200
REMARK  Name = 
REMARK  9 active torsions:
REMARK  status: ('A' for Active; 'I' for Inactive)
REMARK    1  A    between atoms: C_2  and  O_3
REMARK    2  A    between atoms: C_2  and  C_4
REMARK    3  A    between atoms: C_5  and  C_6
REMARK    4  A    between atoms: C_9  and  C_10
REMARK    5  A    between atoms: N_12  and  C_13
REMARK    6  A    between atoms: C_13  and  C_14
REMARK    7  A    between atoms: C_13  and  C_24
REMARK    8  A    between atoms: N_16  and  C_17
REMARK    9  A    between atoms: C_17  and  C_18
REMARK                            x       y       z     vdW  Elec       q    Type
REMARK                         _______ _______ _______ _____ _____    ______ ____
ROOT
ATOM      1  C   UNL     1      -0.446  11.158  18.920  0.00  0.00    +0.000 C 
ENDROOT
BRANCH   1   2
ATOM      2  C   UNL     1      -0.658  11.661  20.342  0.00  0.00    +0.000 A 
ATOM      3  C   UNL     1      -0.609  10.752  21.412  0.00  0.00    +0.000 A 
ATOM      4  C   UNL     1      -0.876  11.168  22.720  0.00  0.00    +0.000 A 
ATOM      5  C   UNL     1      -1.200  12.498  22.978  0.00  0.00    +0.000 A 
ATOM      6  C   UNL     1      -1.246  13.414  21.931  0.00  0.00    +0.000 A 
ATOM      7  C   UNL     1      -0.981  13.001  20.623  0.00  0.00    +0.000 A 
ENDBRANCH   1   2
BRANCH   1  10
ATOM      8  C   UNL     1       1.608   9.833  18.471  0.00  0.00    +0.000 C 
ATOM      9  O   UNL     1       2.222  10.823  18.081  0.00  0.00    +0.000 OA
ATOM     10  N   UNL     1       0.323   9.914  18.953  0.00  0.00    +0.000 N 
ATOM     11  H   UNL     1      -0.237   9.084  19.080  0.00  0.00    +0.000 HD
BRANCH   8  15
ATOM     12  C   UNL     1       3.392   5.890  18.470  0.00  0.00    +0.000 A 
ATOM     13  C   UNL     1       2.581   6.322  19.521  0.00  0.00    +0.000 A 
ATOM     14  C   UNL     1       2.025   7.607  19.500  0.00  0.00    +0.000 A 
ATOM     15  C   UNL     1       2.264   8.484  18.429  0.00  0.00    +0.000 A 
ATOM     16  C   UNL     1       3.076   8.043  17.376  0.00  0.00    +0.000 A 
ATOM     17  C   UNL     1       3.637   6.755  17.399  0.00  0.00    +0.000 A 
BRANCH  12  19
ATOM     18  C   UNL     1       3.834   3.753  19.565  0.00  0.00    +0.000 C 
ATOM     19  C   UNL     1       3.957   4.536  18.482  0.00  0.00    +0.000 C 
BRANCH  18  21
ATOM     20  O   UNL     1       4.946   2.010  20.695  0.00  0.00    +0.000 OA
ATOM     21  C   UNL     1       4.326   2.369  19.708  0.00  0.00    +0.000 C 
BRANCH  21  22
ATOM     22  O   UNL     1       4.076   1.557  18.665  0.00  0.00    +0.000 OA
ATOM     23  H   UNL     1       3.661   0.709  18.897  0.00  0.00    +0.000 HD
ENDBRANCH  21  22
ENDBRANCH  18  21
ENDBRANCH  12  19
ENDBRANCH   8  15
ENDBRANCH   1  10
BRANCH   1  24
ATOM     24  C   UNL     1      -1.774  10.846  18.183  0.00  0.00    +0.000 C 
ATOM     25  O   UNL     1      -1.925   9.812  17.529  0.00  0.00    +0.000 OA
ATOM     26  N   UNL     1      -2.788  11.763  18.376  0.00  0.00    +0.000 N 
ATOM     27  H   UNL     1      -2.567  12.662  18.783  0.00  0.00    +0.000 HD
BRANCH  26  28
ATOM     28  C   UNL     1      -4.089  11.592  17.770  0.00  0.00    +0.000 C 
BRANCH  28  29
ATOM     29  C   UNL     1      -5.194  11.590  18.794  0.00  0.00    +0.000 A 
ATOM     30  C   UNL     1      -5.171  12.506  19.857  0.00  0.00    +0.000 A 
ATOM     31  C   UNL     1      -6.184  12.506  20.817  0.00  0.00    +0.000 A 
ATOM     32  C   UNL     1      -7.227  11.589  20.729  0.00  0.00    +0.000 A 
ATOM     33  C   UNL     1      -7.259  10.669  19.681  0.00  0.00    +0.000 A 
ATOM     34  C   UNL     1      -6.246  10.666  18.720  0.00  0.00    +0.000 A 
ENDBRANCH  28  29
ENDBRANCH  26  28
ENDBRANCH   1  24
TORSDOF 9
ENDMDL
MODEL 7
REMARK VINA RESULT:      -7.6      0.583      1.157
REMARK  Name = 
REMARK  9 active torsions:
REMARK  status: ('A' for Active; 'I' for Inactive)
REMARK    1  A    between atoms: C_2  and  O_3
REMARK    2  A    between atoms: C_2  and  C_4
REMARK    3  A    between atoms: C_5  and  C_6
REMARK    4  A    between atoms: C_9  and  C_10
REMARK    5  A    between atoms: N_12  and  C_13
REMARK    6  A    between atoms: C_13  and  C_14
REMARK    7  A    between atoms: C_13  and  C_24
REMARK    8  A    between atoms: N_16  and  C_17
REMARK    9  A    between atoms: C_17  and  C_18
REMARK                            x       y       z     vdW  Elec       q    Type
REMARK                         _______ _______ _______ _____ _____    ______ ____
ROOT
ATOM      1  C   UNL     1      -0.089  10.187  19.924  0.00  0.00    +0.000 C 
ENDROOT
BRANCH   1   2
ATOM      2  C   UNL     1      -1.241  10.564  19.001  0.00  0.00    +0.000 A 
ATOM      3  C   UNL     1      -1.281  10.043  17.696  0.00  0.00    +0.000 A 
ATOM      4  C   UNL     1      -2.281  10.430  16.800  0.00  0.00    +0.000 A 
ATOM      5  C   UNL     1      -3.255  11.346  17.191  0.00  0.00    +0.000 A 
ATOM      6  C   UNL     1      -3.235  11.866  18.482  0.00  0.00    +0.000 A 
ATOM      7  C   UNL     1      -2.236  11.483  19.379  0.00  0.00    +0.000 A 
ENDBRANCH   1   2
BRANCH   1  10
ATOM      8  C   UNL     1       1.430   8.227  19.766  0.00  0.00    +0.000 C 
ATOM      9  O   UNL     1       1.098   7.816  20.874  0.00  0.00    +0.000 OA
ATOM     10  N   UNL     1       0.860   9.343  19.200  0.00  0.00    +0.000 N 
ATOM     11  H   UNL     1       1.273   9.784  18.391  0.00  0.00    +0.000 HD
BRANCH   8  15
ATOM     12  C   UNL     1       4.452   6.000  17.612  0.00  0.00    +0.000 A 
ATOM     13  C   UNL     1       3.909   5.523  18.807  0.00  0.00    +0.000 A 
ATOM     14  C   UNL     1       2.940   6.270  19.488  0.00  0.00    +0.000 A 
ATOM     15  C   UNL     1       2.491   7.504  18.989  0.00  0.00    +0.000 A 
ATOM     16  C   UNL     1       3.038   7.975  17.788  0.00  0.00    +0.000 A 
ATOM     17  C   UNL     1       4.013   7.228  17.107  0.00  0.00    +0.000 A 
BRANCH  12  19
ATOM     18  C   UNL     1       5.477   5.199  15.546  0.00  0.00    +0.000 C 
ATOM     19  C   UNL     1       5.452   5.207  16.888  0.00  0.00    +0.000 C 
BRANCH  18  21
ATOM     20  O   UNL     1       6.063   3.688  13.837  0.00  0.00    +0.000 OA
ATOM     21  C   UNL     1       6.436   4.475  14.689  0.00  0.00    +0.000 C 
BRANCH  21  22
ATOM     22  O   UNL     1       7.734   4.717  14.945  0.00  0.00    +0.000 OA
ATOM     23  H   UNL     1       8.359   4.272  14.348  0.00  0.00    +0.000 HD
ENDBRANCH  21  22
ENDBRANCH  18  21
ENDBRANCH  12  19
ENDBRANCH   8  15
ENDBRANCH   1  10
BRANCH   1  24
ATOM     24  C   UNL     1       0.703  11.417  20.437  0.00  0.00    +0.000 C 
ATOM     25  O   UNL     1       0.797  11.672  21.640  0.00  0.00    +0.000 OA
ATOM     26  N   UNL     1       1.351  12.152  19.465  0.00  0.00    +0.000 N 
ATOM     27  H   UNL     1       1.115  11.999  18.494  0.00  0.00    +0.000 HD
BRANCH  26  28
ATOM     28  C   UNL     1       2.146  13.313  19.797  0.00  0.00    +0.000 C 
BRANCH  28  29
ATOM     29  C   UNL     1       1.528  14.587  19.285  0.00  0.00    +0.000 A 
ATOM     30  C   UNL     1       2.344  15.636  18.836  0.00  0.00    +0.000 A 
ATOM     31  C   UNL     1       1.783  16.826  18.370  0.00  0.00    +0.000 A 
ATOM     32  C   UNL     1       0.400  16.982  18.351  0.00  0.00    +0.000 A 
ATOM     33  C   UNL     1      -0.424  15.950  18.800  0.00  0.00    +0.000 A 
ATOM     34  C   UNL     1       0.136  14.759  19.268  0.00  0.00    +0.000 A 
ENDBRANCH  28  29
ENDBRANCH  26  28
ENDBRANCH   1  24
TORSDOF 9
ENDMDL
MODEL 8
REMARK VINA RESULT:      -7.6      3.014      5.562
REMARK  Name = 
REMARK  9 active torsions:
REMARK  status: ('A' for Active; 'I' for Inactive)
REMARK    1  A    between atoms: C_2  and  O_3
REMARK    2  A    between atoms: C_2  and  C_4
REMARK    3  A    between atoms: C_5  and  C_6
REMARK    4  A    between atoms: C_9  and  C_10
REMARK    5  A    between atoms: N_12  and  C_13
REMARK    6  A    between atoms: C_13  and  C_14
REMARK    7  A    between atoms: C_13  and  C_24
REMARK    8  A    between atoms: N_16  and  C_17
REMARK    9  A    between atoms: C_17  and  C_18
REMARK                            x       y       z     vdW  Elec       q    Type
REMARK                         _______ _______ _______ _____ _____    ______ ____
ROOT
ATOM      1  C   UNL     1      -1.306  11.597  19.088  0.00  0.00    +0.000 C 
ENDROOT
BRANCH   1   2
ATOM      2  C   UNL     1      -1.458  12.213  20.473  0.00  0.00    +0.000 A 
ATOM      3  C   UNL     1      -1.651  13.600  20.597  0.00  0.00    +0.000 A 
ATOM      4  C   UNL     1      -1.715  14.206  21.854  0.00  0.00    +0.000 A 
ATOM      5  C   UNL     1      -1.584  13.438  23.009  0.00  0.00    +0.000 A 
ATOM      6  C   UNL     1      -1.400  12.062  22.906  0.00  0.00    +0.000 A 
ATOM      7  C   UNL     1      -1.333  11.454  21.650  0.00  0.00    +0.000 A 
ENDBRANCH   1   2
BRANCH   1  10
ATOM      8  C   UNL     1       0.853  10.379  18.921  0.00  0.00    +0.000 C 
ATOM      9  O   UNL     1       1.476  11.414  18.698  0.00  0.00    +0.000 OA
ATOM     10  N   UNL     1      -0.497  10.382  19.181  0.00  0.00    +0.000 N 
ATOM     11  H   UNL     1      -1.032   9.526  19.164  0.00  0.00    +0.000 HD
BRANCH   8  15
ATOM     12  C   UNL     1       3.008   6.629  18.768  0.00  0.00    +0.000 A 
ATOM     13  C   UNL     1       3.013   7.516  17.690  0.00  0.00    +0.000 A 
ATOM     14  C   UNL     1       2.298   8.718  17.763  0.00  0.00    +0.000 A 
ATOM     15  C   UNL     1       1.568   9.060  18.914  0.00  0.00    +0.000 A 
ATOM     16  C   UNL     1       1.570   8.167  19.993  0.00  0.00    +0.000 A 
ATOM     17  C   UNL     1       2.284   6.960  19.919  0.00  0.00    +0.000 A 
BRANCH  12  19
ATOM     18  C   UNL     1       3.276   4.243  19.211  0.00  0.00    +0.000 C 
ATOM     19  C   UNL     1       3.773   5.380  18.700  0.00  0.00    +0.000 C 
BRANCH  18  21
ATOM     20  O   UNL     1       3.283   1.901  18.960  0.00  0.00    +0.000 OA
ATOM     21  C   UNL     1       3.918   2.915  19.191  0.00  0.00    +0.000 C 
BRANCH  21  22
ATOM     22  O   UNL     1       5.232   2.905  19.482  0.00  0.00    +0.000 OA
ATOM     23  H   UNL     1       5.442   2.755  20.419  0.00  0.00    +0.000 HD
ENDBRANCH  21  22
ENDBRANCH  18  21
ENDBRANCH  12  19
ENDBRANCH   8  15
ENDBRANCH   1  10
BRANCH   1  24
ATOM     24  C   UNL     1      -2.662  11.188  18.457  0.00  0.00    +0.000 C 
ATOM     25  O   UNL     1      -2.859  10.049  18.028  0.00  0.00    +0.000 OA
ATOM     26  N   UNL     1      -3.644  12.158  18.479  0.00  0.00    +0.000 N 
ATOM     27  H   UNL     1      -3.387  13.113  18.692  0.00  0.00    +0.000 HD
BRANCH  26  28
ATOM     28  C   UNL     1      -4.964  11.911  17.946  0.00  0.00    +0.000 C 
BRANCH  28  29
ATOM     29  C   UNL     1      -5.944  11.520  19.022  0.00  0.00    +0.000 A 
ATOM     30  C   UNL     1      -6.292  12.437  20.026  0.00  0.00    +0.000 A 
ATOM     31  C   UNL     1      -7.190  12.082  21.033  0.00  0.00    +0.000 A 
ATOM     32  C   UNL     1      -7.748  10.807  21.051  0.00  0.00    +0.000 A 
ATOM     33  C   UNL     1      -7.406   9.883  20.063  0.00  0.00    +0.000 A 
ATOM     34  C   UNL     1      -6.507  10.236  19.055  0.00  0.00    +0.000 A 
ENDBRANCH  28  29
ENDBRANCH  26  28
ENDBRANCH   1  24
TORSDOF 9
ENDMDL
MODEL 9
REMARK VINA RESULT:      -7.5      6.338     10.182
REMARK  Name = 
REMARK  9 active torsions:
REMARK  status: ('A' for Active; 'I' for Inactive)
REMARK    1  A    between atoms: C_2  and  O_3
REMARK    2  A    between atoms: C_2  and  C_4
REMARK    3  A    between atoms: C_5  and  C_6
REMARK    4  A    between atoms: C_9  and  C_10
REMARK    5  A    between atoms: N_12  and  C_13
REMARK    6  A    between atoms: C_13  and  C_14
REMARK    7  A    between atoms: C_13  and  C_24
REMARK    8  A    between atoms: N_16  and  C_17
REMARK    9  A    between atoms: C_17  and  C_18
REMARK                            x       y       z     vdW  Elec       q    Type
REMARK                         _______ _______ _______ _____ _____    ______ ____
ROOT
ATOM      1  C   UNL     1       6.413   5.139  16.317  0.00  0.00    +0.000 C 
ENDROOT
BRANCH   1   2
ATOM      2  C   UNL     1       6.669   4.762  14.864  0.00  0.00    +0.000 A 
ATOM      3  C   UNL     1       7.666   5.437  14.138  0.00  0.00    +0.000 A 
ATOM      4  C   UNL     1       7.872   5.169  12.782  0.00  0.00    +0.000 A 
ATOM      5  C   UNL     1       7.083   4.226  12.127  0.00  0.00    +0.000 A 
ATOM      6  C   UNL     1       6.096   3.542  12.831  0.00  0.00    +0.000 A 
ATOM      7  C   UNL     1       5.886   3.809  14.186  0.00  0.00    +0.000 A 
ENDBRANCH   1   2
BRANCH   1  10
ATOM      8  C   UNL     1       7.534   6.793  17.793  0.00  0.00    +0.000 C 
ATOM      9  O   UNL     1       7.693   5.965  18.686  0.00  0.00    +0.000 OA
ATOM     10  N   UNL     1       6.972   6.464  16.583  0.00  0.00    +0.000 N 
ATOM     11  H   UNL     1       6.666   7.179  15.940  0.00  0.00    +0.000 HD
BRANCH   8  15
ATOM     12  C   UNL     1       8.896  10.839  18.510  0.00  0.00    +0.000 A 
ATOM     13  C   UNL     1       9.378   9.765  19.260  0.00  0.00    +0.000 A 
ATOM     14  C   UNL     1       8.912   8.467  19.013  0.00  0.00    +0.000 A 
ATOM     15  C   UNL     1       7.960   8.216  18.011  0.00  0.00    +0.000 A 
ATOM     16  C   UNL     1       7.482   9.298  17.261  0.00  0.00    +0.000 A 
ATOM     17  C   UNL     1       7.946  10.600  17.510  0.00  0.00    +0.000 A 
BRANCH  12  19
ATOM     18  C   UNL     1       9.697  13.009  17.729  0.00  0.00    +0.000 C 
ATOM     19  C   UNL     1       9.399  12.195  18.753  0.00  0.00    +0.000 C 
BRANCH  18  21
ATOM     20  O   UNL     1      11.061  14.819  17.089  0.00  0.00    +0.000 OA
ATOM     21  C   UNL     1      10.184  14.398  17.823  0.00  0.00    +0.000 C 
BRANCH  21  22
ATOM     22  O   UNL     1       9.622  15.142  18.794  0.00  0.00    +0.000 OA
ATOM     23  H   UNL     1      10.245  15.685  19.305  0.00  0.00    +0.000 HD
ENDBRANCH  21  22
ENDBRANCH  18  21
ENDBRANCH  12  19
ENDBRANCH   8  15
ENDBRANCH   1  10
BRANCH   1  24
ATOM     24  C   UNL     1       4.905   5.208  16.669  0.00  0.00    +0.000 C 
ATOM     25  O   UNL     1       4.283   6.272  16.646  0.00  0.00    +0.000 OA
ATOM     26  N   UNL     1       4.301   3.995  16.931  0.00  0.00    +0.000 N 
ATOM     27  H   UNL     1       4.879   3.182  17.093  0.00  0.00    +0.000 HD
BRANCH  26  28
ATOM     28  C   UNL     1       2.894   3.903  17.251  0.00  0.00    +0.000 C 
BRANCH  28  29
ATOM     29  C   UNL     1       2.653   3.889  18.738  0.00  0.00    +0.000 A 
ATOM     30  C   UNL     1       2.869   2.715  19.476  0.00  0.00    +0.000 A 
ATOM     31  C   UNL     1       2.638   2.688  20.852  0.00  0.00    +0.000 A 
ATOM     32  C   UNL     1       2.185   3.830  21.505  0.00  0.00    +0.000 A 
ATOM     33  C   UNL     1       1.959   5.002  20.783  0.00  0.00    +0.000 A 
ATOM     34  C   UNL     1       2.188   5.032  19.406  0.00  0.00    +0.000 A 
ENDBRANCH  28  29
ENDBRANCH  26  28
ENDBRANCH   1  24
TORSDOF 9
ENDMDL
