MODEL 1
REMARK VINA RESULT:      -8.2      0.000      0.000
REMARK  Name = 
REMARK  6 active torsions:
REMARK  status: ('A' for Active; 'I' for Inactive)
REMARK    1  A    between atoms: C_1  and  O_2
REMARK    2  A    between atoms: O_2  and  C_3
REMARK    3  A    between atoms: C_6  and  N_7
REMARK    4  A    between atoms: C_11  and  S_12
REMARK    5  A    between atoms: S_12  and  C_13
REMARK    6  A    between atoms: C_18  and  C_19
REMARK                            x       y       z     vdW  Elec       q    Type
REMARK                         _______ _______ _______ _____ _____    ______ ____
ROOT
ATOM      1  N   UNL     1       1.835   7.790  19.622  0.00  0.00    +0.000 N 
ATOM      2  C   UNL     1       2.402   8.172  18.429  0.00  0.00    +0.000 C 
ATOM      3  O   UNL     1       2.462   9.284  17.918  0.00  0.00    +0.000 OA
ATOM      4  C   UNL     1       3.025   6.989  17.764  0.00  0.00    +0.000 C 
ATOM      5  C   UNL     1       2.741   5.821  18.685  0.00  0.00    +0.000 C 
ATOM      6  C   UNL     1       1.936   6.429  19.816  0.00  0.00    +0.000 C 
ATOM      7  O   UNL     1       1.429   5.749  20.704  0.00  0.00    +0.000 OA
ENDROOT
BRANCH   1  11
ATOM      8  C   UNL     1      -0.105  10.451  22.341  0.00  0.00    +0.000 A 
ATOM      9  C   UNL     1       0.797   9.500  22.806  0.00  0.00    +0.000 A 
ATOM     10  C   UNL     1       1.444   8.635  21.914  0.00  0.00    +0.000 A 
ATOM     11  C   UNL     1       1.202   8.691  20.534  0.00  0.00    +0.000 A 
ATOM     12  C   UNL     1       0.281   9.652  20.086  0.00  0.00    +0.000 A 
ATOM     13  C   UNL     1      -0.372  10.518  20.978  0.00  0.00    +0.000 A 
BRANCH   8  15
ATOM     14  C   UNL     1      -1.998  11.695  23.009  0.00  0.00    +0.000 C 
ATOM     15  O   UNL     1      -0.688  11.225  23.304  0.00  0.00    +0.000 OA
ENDBRANCH   8  15
ENDBRANCH   1  11
BRANCH   5  16
ATOM     16  S   UNL     1       4.248   5.044  19.382  0.00  0.00    +0.000 S 
BRANCH  16  17
ATOM     17  C   UNL     1       5.297   4.903  17.932  0.00  0.00    +0.000 A 
ATOM     18  N   UNL     1       4.662   4.615  16.764  0.00  0.00    +0.000 NA
ATOM     19  C   UNL     1       5.433   4.569  15.664  0.00  0.00    +0.000 A 
ATOM     20  C   UNL     1       6.797   4.812  15.647  0.00  0.00    +0.000 A 
ATOM     21  C   UNL     1       7.444   5.100  16.830  0.00  0.00    +0.000 A 
ATOM     22  C   UNL     1       6.683   5.126  18.008  0.00  0.00    +0.000 A 
ATOM     23  C   UNL     1       7.346   4.720  14.262  0.00  0.00    +0.000 C 
ATOM     24  C   UNL     1       6.241   3.913  13.565  0.00  0.00    +0.000 C 
ATOM     25  C   UNL     1       4.927   4.256  14.283  0.00  0.00    +0.000 C 
BRANCH  22  26
ATOM     26  C   UNL     1       7.356   5.355  19.251  0.00  0.00    +0.000 C 
ATOM     27  N   UNL     1       7.852   5.547  20.283  0.00  0.00    +0.000 NA
ENDBRANCH  22  26
ENDBRANCH  16  17
ENDBRANCH   5  16
TORSDOF 5
ENDMDL
MODEL 2
REMARK VINA RESULT:      -7.4      3.890      5.447
REMARK  Name = 
REMARK  6 active torsions:
REMARK  status: ('A' for Active; 'I' for Inactive)
REMARK    1  A    between atoms: C_1  and  O_2
REMARK    2  A    between atoms: O_2  and  C_3
REMARK    3  A    between atoms: C_6  and  N_7
REMARK    4  A    between atoms: C_11  and  S_12
REMARK    5  A    between atoms: S_12  and  C_13
REMARK    6  A    between atoms: C_18  and  C_19
REMARK                            x       y       z     vdW  Elec       q    Type
REMARK                         _______ _______ _______ _____ _____    ______ ____
ROOT
ATOM      1  N   UNL     1      -0.958  11.142  21.567  0.00  0.00    +0.000 N 
ATOM      2  C   UNL     1      -1.000  11.122  20.193  0.00  0.00    +0.000 C 
ATOM      3  O   UNL     1      -1.389  11.985  19.415  0.00  0.00    +0.000 OA
ATOM      4  C   UNL     1      -0.444   9.832  19.689  0.00  0.00    +0.000 C 
ATOM      5  C   UNL     1      -0.083   9.044  20.930  0.00  0.00    +0.000 C 
ATOM      6  C   UNL     1      -0.494   9.948  22.076  0.00  0.00    +0.000 C 
ATOM      7  O   UNL     1      -0.452   9.588  23.248  0.00  0.00    +0.000 OA
ENDROOT
BRANCH   1  11
ATOM      8  C   UNL     1      -2.162  14.439  24.000  0.00  0.00    +0.000 A 
ATOM      9  C   UNL     1      -0.938  14.459  23.340  0.00  0.00    +0.000 A 
ATOM     10  C   UNL     1      -0.547  13.384  22.531  0.00  0.00    +0.000 A 
ATOM     11  C   UNL     1      -1.365  12.256  22.365  0.00  0.00    +0.000 A 
ATOM     12  C   UNL     1      -2.593  12.254  23.048  0.00  0.00    +0.000 A 
ATOM     13  C   UNL     1      -2.985  13.327  23.862  0.00  0.00    +0.000 A 
BRANCH   8  15
ATOM     14  C   UNL     1      -1.642  15.659  25.955  0.00  0.00    +0.000 C 
ATOM     15  O   UNL     1      -2.427  15.534  24.774  0.00  0.00    +0.000 OA
ENDBRANCH   8  15
ENDBRANCH   1  11
BRANCH   5  16
ATOM     16  S   UNL     1       1.707   8.677  21.080  0.00  0.00    +0.000 S 
BRANCH  16  17
ATOM     17  C   UNL     1       1.850   7.145  20.157  0.00  0.00    +0.000 A 
ATOM     18  N   UNL     1       1.623   6.003  20.859  0.00  0.00    +0.000 NA
ATOM     19  C   UNL     1       1.668   4.856  20.159  0.00  0.00    +0.000 A 
ATOM     20  C   UNL     1       1.903   4.773  18.796  0.00  0.00    +0.000 A 
ATOM     21  C   UNL     1       2.137   5.929  18.082  0.00  0.00    +0.000 A 
ATOM     22  C   UNL     1       2.132   7.147  18.779  0.00  0.00    +0.000 A 
ATOM     23  C   UNL     1       1.847   3.359  18.322  0.00  0.00    +0.000 C 
ATOM     24  C   UNL     1       2.045   2.602  19.644  0.00  0.00    +0.000 C 
ATOM     25  C   UNL     1       1.458   3.490  20.751  0.00  0.00    +0.000 C 
BRANCH  22  26
ATOM     26  C   UNL     1       2.443   8.346  18.060  0.00  0.00    +0.000 C 
ATOM     27  N   UNL     1       2.642   9.335  17.486  0.00  0.00    +0.000 NA
ENDBRANCH  22  26
ENDBRANCH  16  17
ENDBRANCH   5  16
TORSDOF 5
ENDMDL
MODEL 3
REMARK VINA RESULT:      -7.3      4.210     10.542
REMARK  Name = 
REMARK  6 active torsions:
REMARK  status: ('A' for Active; 'I' for Inactive)
REMARK    1  A    between atoms: C_1  and  O_2
REMARK    2  A    between atoms: O_2  and  C_3
REMARK    3  A    between atoms: C_6  and  N_7
REMARK    4  A    between atoms: C_11  and  S_12
REMARK    5  A    between atoms: S_12  and  C_13
REMARK    6  A    between atoms: C_18  and  C_19
REMARK                            x       y       z     vdW  Elec       q    Type
REMARK                         _______ _______ _______ _____ _____    ______ ____
ROOT
ATOM      1  N   UNL     1       0.316  11.284  19.526  0.00  0.00    +0.000 N 
ATOM      2  C   UNL     1      -1.038  11.472  19.378  0.00  0.00    +0.000 C 
ATOM      3  O   UNL     1      -1.898  10.677  19.021  0.00  0.00    +0.000 OA
ATOM      4  C   UNL     1      -1.399  12.869  19.762  0.00  0.00    +0.000 C 
ATOM      5  C   UNL     1      -0.088  13.529  20.134  0.00  0.00    +0.000 C 
ATOM      6  C   UNL     1       0.950  12.449  19.904  0.00  0.00    +0.000 C 
ATOM      7  O   UNL     1       2.155  12.660  19.998  0.00  0.00    +0.000 OA
ENDROOT
BRANCH   1  11
ATOM      8  C   UNL     1       2.359   7.597  18.839  0.00  0.00    +0.000 A 
ATOM      9  C   UNL     1       1.802   7.875  20.083  0.00  0.00    +0.000 A 
ATOM     10  C   UNL     1       1.120   9.078  20.306  0.00  0.00    +0.000 A 
ATOM     11  C   UNL     1       0.983  10.041  19.295  0.00  0.00    +0.000 A 
ATOM     12  C   UNL     1       1.561   9.744  18.050  0.00  0.00    +0.000 A 
ATOM     13  C   UNL     1       2.248   8.541  17.825  0.00  0.00    +0.000 A 
BRANCH   8  15
ATOM     14  C   UNL     1       3.900   6.269  17.640  0.00  0.00    +0.000 C 
ATOM     15  O   UNL     1       3.015   6.402  18.746  0.00  0.00    +0.000 OA
ENDBRANCH   8  15
ENDBRANCH   1  11
BRANCH   5  16
ATOM     16  S   UNL     1      -0.002  14.069  21.884  0.00  0.00    +0.000 S 
BRANCH  16  17
ATOM     17  C   UNL     1      -1.670  13.740  22.456  0.00  0.00    +0.000 A 
ATOM     18  N   UNL     1      -2.549  14.773  22.355  0.00  0.00    +0.000 NA
ATOM     19  C   UNL     1      -3.816  14.515  22.725  0.00  0.00    +0.000 A 
ATOM     20  C   UNL     1      -4.272  13.284  23.169  0.00  0.00    +0.000 A 
ATOM     21  C   UNL     1      -3.382  12.236  23.276  0.00  0.00    +0.000 A 
ATOM     22  C   UNL     1      -2.042  12.470  22.932  0.00  0.00    +0.000 A 
ATOM     23  C   UNL     1      -5.735  13.321  23.459  0.00  0.00    +0.000 C 
ATOM     24  C   UNL     1      -5.963  14.833  23.605  0.00  0.00    +0.000 C 
ATOM     25  C   UNL     1      -4.931  15.523  22.700  0.00  0.00    +0.000 C 
BRANCH  22  26
ATOM     26  C   UNL     1      -1.097  11.408  23.105  0.00  0.00    +0.000 C 
ATOM     27  N   UNL     1      -0.352  10.523  23.201  0.00  0.00    +0.000 NA
ENDBRANCH  22  26
ENDBRANCH  16  17
ENDBRANCH   5  16
TORSDOF 5
ENDMDL
MODEL 4
REMARK VINA RESULT:      -7.2      3.118      8.793
REMARK  Name = 
REMARK  6 active torsions:
REMARK  status: ('A' for Active; 'I' for Inactive)
REMARK    1  A    between atoms: C_1  and  O_2
REMARK    2  A    between atoms: O_2  and  C_3
REMARK    3  A    between atoms: C_6  and  N_7
REMARK    4  A    between atoms: C_11  and  S_12
REMARK    5  A    between atoms: S_12  and  C_13
REMARK    6  A    between atoms: C_18  and  C_19
REMARK                            x       y       z     vdW  Elec       q    Type
REMARK                         _______ _______ _______ _____ _____    ______ ____
ROOT
ATOM      1  N   UNL     1       3.215   6.759  18.440  0.00  0.00    +0.000 N 
ATOM      2  C   UNL     1       2.893   6.213  19.660  0.00  0.00    +0.000 C 
ATOM      3  O   UNL     1       3.440   5.306  20.275  0.00  0.00    +0.000 OA
ATOM      4  C   UNL     1       1.714   6.926  20.237  0.00  0.00    +0.000 C 
ATOM      5  C   UNL     1       1.330   7.960  19.199  0.00  0.00    +0.000 C 
ATOM      6  C   UNL     1       2.318   7.738  18.072  0.00  0.00    +0.000 C 
ATOM      7  O   UNL     1       2.240   8.331  17.000  0.00  0.00    +0.000 OA
ENDROOT
BRANCH   1  11
ATOM      8  C   UNL     1       6.515   5.538  16.019  0.00  0.00    +0.000 A 
ATOM      9  C   UNL     1       6.603   6.679  16.810  0.00  0.00    +0.000 A 
ATOM     10  C   UNL     1       5.527   7.073  17.615  0.00  0.00    +0.000 A 
ATOM     11  C   UNL     1       4.329   6.343  17.646  0.00  0.00    +0.000 A 
ATOM     12  C   UNL     1       4.258   5.200  16.833  0.00  0.00    +0.000 A 
ATOM     13  C   UNL     1       5.334   4.805  16.022  0.00  0.00    +0.000 A 
BRANCH   8  15
ATOM     14  C   UNL     1       7.366   4.858  13.923  0.00  0.00    +0.000 C 
ATOM     15  O   UNL     1       7.620   5.264  15.263  0.00  0.00    +0.000 OA
ENDBRANCH   8  15
ENDBRANCH   1  11
BRANCH   5  16
ATOM     16  S   UNL     1       1.479   9.690  19.787  0.00  0.00    +0.000 S 
BRANCH  16  17
ATOM     17  C   UNL     1      -0.044  10.420  19.181  0.00  0.00    +0.000 A 
ATOM     18  N   UNL     1      -0.584   9.840  18.076  0.00  0.00    +0.000 NA
ATOM     19  C   UNL     1      -1.757  10.342  17.653  0.00  0.00    +0.000 A 
ATOM     20  C   UNL     1      -2.442  11.374  18.275  0.00  0.00    +0.000 A 
ATOM     21  C   UNL     1      -1.895  11.967  19.393  0.00  0.00    +0.000 A 
ATOM     22  C   UNL     1      -0.655  11.495  19.850  0.00  0.00    +0.000 A 
ATOM     23  C   UNL     1      -3.729  11.666  17.579  0.00  0.00    +0.000 C 
ATOM     24  C   UNL     1      -3.470  11.024  16.208  0.00  0.00    +0.000 C 
ATOM     25  C   UNL     1      -2.507   9.851  16.447  0.00  0.00    +0.000 C 
BRANCH  22  26
ATOM     26  C   UNL     1      -0.046  12.149  20.969  0.00  0.00    +0.000 C 
ATOM     27  N   UNL     1       0.476  12.632  21.886  0.00  0.00    +0.000 NA
ENDBRANCH  22  26
ENDBRANCH  16  17
ENDBRANCH   5  16
TORSDOF 5
ENDMDL
MODEL 5
REMARK VINA RESULT:      -7.1      4.069     11.042
REMARK  Name = 
REMARK  6 active torsions:
REMARK  status: ('A' for Active; 'I' for Inactive)
REMARK    1  A    between atoms: C_1  and  O_2
REMARK    2  A    between atoms: O_2  and  C_3
REMARK    3  A    between atoms: C_6  and  N_7
REMARK    4  A    between atoms: C_11  and  S_12
REMARK    5  A    between atoms: S_12  and  C_13
REMARK    6  A    between atoms: C_18  and  C_19
REMARK                            x       y       z     vdW  Elec       q    Type
REMARK                         _______ _______ _______ _____ _____    ______ ____
ROOT
ATOM      1  N   UNL     1       0.113  10.420  19.876  0.00  0.00    +0.000 N 
ATOM      2  C   UNL     1      -1.128  10.665  19.339  0.00  0.00    +0.000 C 
ATOM      3  O   UNL     1      -1.679  10.135  18.382  0.00  0.00    +0.000 OA
ATOM      4  C   UNL     1      -1.822  11.723  20.132  0.00  0.00    +0.000 C 
ATOM      5  C   UNL     1      -0.835  12.123  21.208  0.00  0.00    +0.000 C 
ATOM      6  C   UNL     1       0.385  11.268  20.928  0.00  0.00    +0.000 C 
ATOM      7  O   UNL     1       1.440  11.402  21.541  0.00  0.00    +0.000 OA
ENDROOT
BRANCH   1  11
ATOM      8  C   UNL     1       2.762   7.407  18.410  0.00  0.00    +0.000 A 
ATOM      9  C   UNL     1       2.420   8.496  17.614  0.00  0.00    +0.000 A 
ATOM     10  C   UNL     1       1.563   9.491  18.098  0.00  0.00    +0.000 A 
ATOM     11  C   UNL     1       1.015   9.423  19.388  0.00  0.00    +0.000 A 
ATOM     12  C   UNL     1       1.366   8.311  20.171  0.00  0.00    +0.000 A 
ATOM     13  C   UNL     1       2.222   7.310  19.687  0.00  0.00    +0.000 A 
BRANCH   8  15
ATOM     14  C   UNL     1       4.351   5.688  18.719  0.00  0.00    +0.000 C 
ATOM     15  O   UNL     1       3.590   6.491  17.825  0.00  0.00    +0.000 OA
ENDBRANCH   8  15
ENDBRANCH   1  11
BRANCH   5  16
ATOM     16  S   UNL     1      -1.419  11.781  22.912  0.00  0.00    +0.000 S 
BRANCH  16  17
ATOM     17  C   UNL     1      -2.797  12.919  23.067  0.00  0.00    +0.000 A 
ATOM     18  N   UNL     1      -4.032  12.394  22.841  0.00  0.00    +0.000 NA
ATOM     19  C   UNL     1      -5.073  13.226  23.016  0.00  0.00    +0.000 A 
ATOM     20  C   UNL     1      -4.967  14.546  23.423  0.00  0.00    +0.000 A 
ATOM     21  C   UNL     1      -3.717  15.083  23.649  0.00  0.00    +0.000 A 
ATOM     22  C   UNL     1      -2.600  14.259  23.447  0.00  0.00    +0.000 A 
ATOM     23  C   UNL     1      -6.311  15.180  23.559  0.00  0.00    +0.000 C 
ATOM     24  C   UNL     1      -7.168  14.229  22.709  0.00  0.00    +0.000 C 
ATOM     25  C   UNL     1      -6.511  12.843  22.804  0.00  0.00    +0.000 C 
BRANCH  22  26
ATOM     26  C   UNL     1      -1.295  14.825  23.611  0.00  0.00    +0.000 C 
ATOM     27  N   UNL     1      -0.223  15.262  23.696  0.00  0.00    +0.000 NA
ENDBRANCH  22  26
ENDBRANCH  16  17
ENDBRANCH   5  16
TORSDOF 5
ENDMDL
MODEL 6
REMARK VINA RESULT:      -7.1      4.082     11.033
REMARK  Name = 
REMARK  6 active torsions:
REMARK  status: ('A' for Active; 'I' for Inactive)
REMARK    1  A    between atoms: C_1  and  O_2
REMARK    2  A    between atoms: O_2  and  C_3
REMARK    3  A    between atoms: C_6  and  N_7
REMARK    4  A    between atoms: C_11  and  S_12
REMARK    5  A    between atoms: S_12  and  C_13
REMARK    6  A    between atoms: C_18  and  C_19
REMARK                            x       y       z     vdW  Elec       q    Type
REMARK                         _______ _______ _______ _____ _____    ______ ____
ROOT
ATOM      1  N   UNL     1       0.080  10.410  19.885  0.00  0.00    +0.000 N 
ATOM      2  C   UNL     1      -1.159  10.663  19.346  0.00  0.00    +0.000 C 
ATOM      3  O   UNL     1      -1.710  10.140  18.385  0.00  0.00    +0.000 OA
ATOM      4  C   UNL     1      -1.850  11.722  20.141  0.00  0.00    +0.000 C 
ATOM      5  C   UNL     1      -0.863  12.113  21.221  0.00  0.00    +0.000 C 
ATOM      6  C   UNL     1       0.353  11.253  20.941  0.00  0.00    +0.000 C 
ATOM      7  O   UNL     1       1.407  11.380  21.557  0.00  0.00    +0.000 OA
ENDROOT
BRANCH   1  11
ATOM      8  C   UNL     1       2.809   7.464  18.431  0.00  0.00    +0.000 A 
ATOM      9  C   UNL     1       2.243   7.340  19.695  0.00  0.00    +0.000 A 
ATOM     10  C   UNL     1       1.338   8.298  20.169  0.00  0.00    +0.000 A 
ATOM     11  C   UNL     1       0.979   9.412  19.395  0.00  0.00    +0.000 A 
ATOM     12  C   UNL     1       1.569   9.523  18.125  0.00  0.00    +0.000 A 
ATOM     13  C   UNL     1       2.479   8.566  17.650  0.00  0.00    +0.000 A 
BRANCH   8  15
ATOM     14  C   UNL     1       4.522   6.761  16.965  0.00  0.00    +0.000 C 
ATOM     15  O   UNL     1       3.691   6.480  18.085  0.00  0.00    +0.000 OA
ENDBRANCH   8  15
ENDBRANCH   1  11
BRANCH   5  16
ATOM     16  S   UNL     1      -1.453  11.767  22.923  0.00  0.00    +0.000 S 
BRANCH  16  17
ATOM     17  C   UNL     1      -2.827  12.911  23.078  0.00  0.00    +0.000 A 
ATOM     18  N   UNL     1      -4.063  12.390  22.851  0.00  0.00    +0.000 NA
ATOM     19  C   UNL     1      -5.101  13.226  23.026  0.00  0.00    +0.000 A 
ATOM     20  C   UNL     1      -4.990  14.546  23.436  0.00  0.00    +0.000 A 
ATOM     21  C   UNL     1      -3.739  15.077  23.663  0.00  0.00    +0.000 A 
ATOM     22  C   UNL     1      -2.624  14.249  23.461  0.00  0.00    +0.000 A 
ATOM     23  C   UNL     1      -6.332  15.185  23.571  0.00  0.00    +0.000 C 
ATOM     24  C   UNL     1      -7.192  14.239  22.720  0.00  0.00    +0.000 C 
ATOM     25  C   UNL     1      -6.541  12.850  22.813  0.00  0.00    +0.000 C 
BRANCH  22  26
ATOM     26  C   UNL     1      -1.317  14.810  23.627  0.00  0.00    +0.000 C 
ATOM     27  N   UNL     1      -0.242  15.240  23.715  0.00  0.00    +0.000 NA
ENDBRANCH  22  26
ENDBRANCH  16  17
ENDBRANCH   5  16
TORSDOF 5
ENDMDL
MODEL 7
REMARK VINA RESULT:      -7.1      2.829      4.492
REMARK  Name = 
REMARK  6 active torsions:
REMARK  status: ('A' for Active; 'I' for Inactive)
REMARK    1  A    between atoms: C_1  and  O_2
REMARK    2  A    between atoms: O_2  and  C_3
REMARK    3  A    between atoms: C_6  and  N_7
REMARK    4  A    between atoms: C_11  and  S_12
REMARK    5  A    between atoms: S_12  and  C_13
REMARK    6  A    between atoms: C_18  and  C_19
REMARK                            x       y       z     vdW  Elec       q    Type
REMARK                         _______ _______ _______ _____ _____    ______ ____
ROOT
ATOM      1  N   UNL     1       0.101  10.735  19.754  0.00  0.00    +0.000 N 
ATOM      2  C   UNL     1      -0.463  10.745  18.500  0.00  0.00    +0.000 C 
ATOM      3  O   UNL     1      -1.183  11.588  17.979  0.00  0.00    +0.000 OA
ATOM      4  C   UNL     1      -0.048   9.523  17.750  0.00  0.00    +0.000 C 
ATOM      5  C   UNL     1       0.818   8.741  18.714  0.00  0.00    +0.000 C 
ATOM      6  C   UNL     1       0.811   9.575  19.980  0.00  0.00    +0.000 C 
ATOM      7  O   UNL     1       1.325   9.192  21.026  0.00  0.00    +0.000 OA
ENDROOT
BRANCH   1  11
ATOM      8  C   UNL     1      -0.322  13.848  22.648  0.00  0.00    +0.000 A 
ATOM      9  C   UNL     1       0.602  13.964  21.615  0.00  0.00    +0.000 A 
ATOM     10  C   UNL     1       0.733  12.950  20.658  0.00  0.00    +0.000 A 
ATOM     11  C   UNL     1      -0.051  11.788  20.710  0.00  0.00    +0.000 A 
ATOM     12  C   UNL     1      -0.971  11.687  21.765  0.00  0.00    +0.000 A 
ATOM     13  C   UNL     1      -1.102  12.699  22.728  0.00  0.00    +0.000 A 
BRANCH   8  15
ATOM     14  C   UNL     1      -1.451  14.911  24.429  0.00  0.00    +0.000 C 
ATOM     15  O   UNL     1      -0.347  14.890  23.531  0.00  0.00    +0.000 OA
ENDBRANCH   8  15
ENDBRANCH   1  11
BRANCH   5  16
ATOM     16  S   UNL     1       2.550   8.533  18.152  0.00  0.00    +0.000 S 
BRANCH  16  17
ATOM     17  C   UNL     1       2.864   6.811  18.547  0.00  0.00    +0.000 A 
ATOM     18  N   UNL     1       2.142   6.295  19.579  0.00  0.00    +0.000 NA
ATOM     19  C   UNL     1       2.327   4.990  19.840  0.00  0.00    +0.000 A 
ATOM     20  C   UNL     1       3.171   4.155  19.125  0.00  0.00    +0.000 A 
ATOM     21  C   UNL     1       3.907   4.675  18.082  0.00  0.00    +0.000 A 
ATOM     22  C   UNL     1       3.770   6.041  17.795  0.00  0.00    +0.000 A 
ATOM     23  C   UNL     1       3.117   2.757  19.645  0.00  0.00    +0.000 C 
ATOM     24  C   UNL     1       2.528   2.990  21.044  0.00  0.00    +0.000 C 
ATOM     25  C   UNL     1       1.636   4.237  20.943  0.00  0.00    +0.000 C 
BRANCH  22  26
ATOM     26  C   UNL     1       4.580   6.607  16.759  0.00  0.00    +0.000 C 
ATOM     27  N   UNL     1       5.249   7.014  15.901  0.00  0.00    +0.000 NA
ENDBRANCH  22  26
ENDBRANCH  16  17
ENDBRANCH   5  16
TORSDOF 5
ENDMDL
MODEL 8
REMARK VINA RESULT:      -7.1      4.179     10.908
REMARK  Name = 
REMARK  6 active torsions:
REMARK  status: ('A' for Active; 'I' for Inactive)
REMARK    1  A    between atoms: C_1  and  O_2
REMARK    2  A    between atoms: O_2  and  C_3
REMARK    3  A    between atoms: C_6  and  N_7
REMARK    4  A    between atoms: C_11  and  S_12
REMARK    5  A    between atoms: S_12  and  C_13
REMARK    6  A    between atoms: C_18  and  C_19
REMARK                            x       y       z     vdW  Elec       q    Type
REMARK                         _______ _______ _______ _____ _____    ______ ____
ROOT
ATOM      1  N   UNL     1       0.217  10.309  19.823  0.00  0.00    +0.000 N 
ATOM      2  C   UNL     1      -0.966  10.640  19.206  0.00  0.00    +0.000 C 
ATOM      3  O   UNL     1      -1.482  10.157  18.205  0.00  0.00    +0.000 OA
ATOM      4  C   UNL     1      -1.644  11.732  19.965  0.00  0.00    +0.000 C 
ATOM      5  C   UNL     1      -0.710  12.055  21.113  0.00  0.00    +0.000 C 
ATOM      6  C   UNL     1       0.469  11.126  20.904  0.00  0.00    +0.000 C 
ATOM      7  O   UNL     1       1.485  11.184  21.590  0.00  0.00    +0.000 OA
ENDROOT
BRANCH   1  11
ATOM      8  C   UNL     1       2.856   7.215  18.517  0.00  0.00    +0.000 A 
ATOM      9  C   UNL     1       2.259   7.151  19.772  0.00  0.00    +0.000 A 
ATOM     10  C   UNL     1       1.383   8.158  20.197  0.00  0.00    +0.000 A 
ATOM     11  C   UNL     1       1.085   9.261  19.383  0.00  0.00    +0.000 A 
ATOM     12  C   UNL     1       1.706   9.310  18.124  0.00  0.00    +0.000 A 
ATOM     13  C   UNL     1       2.587   8.305  17.697  0.00  0.00    +0.000 A 
BRANCH   8  15
ATOM     14  C   UNL     1       4.189   5.445  19.334  0.00  0.00    +0.000 C 
ATOM     15  O   UNL     1       3.705   6.186  18.220  0.00  0.00    +0.000 OA
ENDBRANCH   8  15
ENDBRANCH   1  11
BRANCH   5  16
ATOM     16  S   UNL     1      -1.431  11.734  22.768  0.00  0.00    +0.000 S 
BRANCH  16  17
ATOM     17  C   UNL     1      -1.661  13.397  23.401  0.00  0.00    +0.000 A 
ATOM     18  N   UNL     1      -0.637  14.265  23.179  0.00  0.00    +0.000 NA
ATOM     19  C   UNL     1      -0.828  15.529  23.596  0.00  0.00    +0.000 A 
ATOM     20  C   UNL     1      -1.985  15.992  24.203  0.00  0.00    +0.000 A 
ATOM     21  C   UNL     1      -3.022  15.114  24.433  0.00  0.00    +0.000 A 
ATOM     22  C   UNL     1      -2.853  13.776  24.043  0.00  0.00    +0.000 A 
ATOM     23  C   UNL     1      -1.890  17.450  24.507  0.00  0.00    +0.000 C 
ATOM     24  C   UNL     1      -0.369  17.659  24.458  0.00  0.00    +0.000 C 
ATOM     25  C   UNL     1       0.183  16.632  23.456  0.00  0.00    +0.000 C 
BRANCH  22  26
ATOM     26  C   UNL     1      -3.896  12.841  24.340  0.00  0.00    +0.000 C 
ATOM     27  N   UNL     1      -4.719  12.076  24.630  0.00  0.00    +0.000 NA
ENDBRANCH  22  26
ENDBRANCH  16  17
ENDBRANCH   5  16
TORSDOF 5
ENDMDL
MODEL 9
REMARK VINA RESULT:      -7.1      4.163     10.954
REMARK  Name = 
REMARK  6 active torsions:
REMARK  status: ('A' for Active; 'I' for Inactive)
REMARK    1  A    between atoms: C_1  and  O_2
REMARK    2  A    between atoms: O_2  and  C_3
REMARK    3  A    between atoms: C_6  and  N_7
REMARK    4  A    between atoms: C_11  and  S_12
REMARK    5  A    between atoms: S_12  and  C_13
REMARK    6  A    between atoms: C_18  and  C_19
REMARK                            x       y       z     vdW  Elec       q    Type
REMARK                         _______ _______ _______ _____ _____    ______ ____
ROOT
ATOM      1  N   UNL     1       0.229  10.307  19.812  0.00  0.00    +0.000 N 
ATOM      2  C   UNL     1      -0.960  10.605  19.189  0.00  0.00    +0.000 C 
ATOM      3  O   UNL     1      -1.459  10.106  18.188  0.00  0.00    +0.000 OA
ATOM      4  C   UNL     1      -1.668  11.683  19.941  0.00  0.00    +0.000 C 
ATOM      5  C   UNL     1      -0.747  12.035  21.091  0.00  0.00    +0.000 C 
ATOM      6  C   UNL     1       0.456  11.134  20.891  0.00  0.00    +0.000 C 
ATOM      7  O   UNL     1       1.467  11.222  21.581  0.00  0.00    +0.000 OA
ENDROOT
BRANCH   1  11
ATOM      8  C   UNL     1       2.858   7.203  18.511  0.00  0.00    +0.000 A 
ATOM      9  C   UNL     1       2.577   8.284  17.683  0.00  0.00    +0.000 A 
ATOM     10  C   UNL     1       1.725   9.309  18.113  0.00  0.00    +0.000 A 
ATOM     11  C   UNL     1       1.125   9.280  19.380  0.00  0.00    +0.000 A 
ATOM     12  C   UNL     1       1.415   8.175  20.197  0.00  0.00    +0.000 A 
ATOM     13  C   UNL     1       2.265   7.144  19.767  0.00  0.00    +0.000 A 
BRANCH   8  15
ATOM     14  C   UNL     1       4.618   6.725  17.010  0.00  0.00    +0.000 C 
ATOM     15  O   UNL     1       3.687   6.256  17.978  0.00  0.00    +0.000 OA
ENDBRANCH   8  15
ENDBRANCH   1  11
BRANCH   5  16
ATOM     16  S   UNL     1      -1.467  11.703  22.744  0.00  0.00    +0.000 S 
BRANCH  16  17
ATOM     17  C   UNL     1      -1.674  13.361  23.398  0.00  0.00    +0.000 A 
ATOM     18  N   UNL     1      -0.638  14.217  23.188  0.00  0.00    +0.000 NA
ATOM     19  C   UNL     1      -0.812  15.478  23.621  0.00  0.00    +0.000 A 
ATOM     20  C   UNL     1      -1.964  15.950  24.232  0.00  0.00    +0.000 A 
ATOM     21  C   UNL     1      -3.013  15.083  24.449  0.00  0.00    +0.000 A 
ATOM     22  C   UNL     1      -2.862  13.749  24.043  0.00  0.00    +0.000 A 
ATOM     23  C   UNL     1      -1.849  17.403  24.554  0.00  0.00    +0.000 C 
ATOM     24  C   UNL     1      -0.325  17.590  24.510  0.00  0.00    +0.000 C 
ATOM     25  C   UNL     1       0.214  16.569  23.497  0.00  0.00    +0.000 C 
BRANCH  22  26
ATOM     26  C   UNL     1      -3.919  12.825  24.325  0.00  0.00    +0.000 C 
ATOM     27  N   UNL     1      -4.764  12.081  24.609  0.00  0.00    +0.000 NA
ENDBRANCH  22  26
ENDBRANCH  16  17
ENDBRANCH   5  16
TORSDOF 5
ENDMDL
