MODEL 1
REMARK VINA RESULT:      -8.4      0.000      0.000
REMARK  Name = 
REMARK  4 active torsions:
REMARK  status: ('A' for Active; 'I' for Inactive)
REMARK    1  A    between atoms: O_1  and  C_2
REMARK    2  A    between atoms: C_5  and  C_6
REMARK    3  A    between atoms: N_8  and  C_9
REMARK    4  A    between atoms: C_9  and  C_10
REMARK                            x       y       z     vdW  Elec       q    Type
REMARK                         _______ _______ _______ _____ _____    ______ ____
ROOT
ATOM      1  C   UNL     1       2.690   6.344  19.360  0.00  0.00    +0.000 A 
ATOM      2  C   UNL     1       3.951   6.126  18.826  0.00  0.00    +0.000 A 
ATOM      3  N   UNL     1       4.296   4.803  18.996  0.00  0.00    +0.000 N 
ATOM      4  C   UNL     1       3.286   4.181  19.681  0.00  0.00    +0.000 A 
ATOM      5  C   UNL     1       2.253   5.087  19.875  0.00  0.00    +0.000 A 
ATOM      6  C   UNL     1       0.974   4.720  20.567  0.00  0.00    +0.000 C 
ATOM      7  N   UNL     1       0.806   3.250  20.598  0.00  0.00    +0.000 NA
ATOM      8  C   UNL     1       2.031   2.598  21.111  0.00  0.00    +0.000 C 
ATOM      9  C   UNL     1       3.242   2.767  20.157  0.00  0.00    +0.000 C 
ATOM     10  H   UNL     1       0.672   2.951  19.633  0.00  0.00    +0.000 HD
ENDROOT
BRANCH   1  14
ATOM     11  C   UNL     1       0.813  10.175  19.420  0.00  0.00    +0.000 A 
ATOM     12  C   UNL     1       0.866   9.418  20.586  0.00  0.00    +0.000 A 
ATOM     13  C   UNL     1       1.491   8.166  20.566  0.00  0.00    +0.000 A 
ATOM     14  C   UNL     1       2.052   7.659  19.385  0.00  0.00    +0.000 A 
ATOM     15  C   UNL     1       1.973   8.440  18.221  0.00  0.00    +0.000 A 
ATOM     16  C   UNL     1       1.366   9.697  18.242  0.00  0.00    +0.000 A 
BRANCH  11  17
ATOM     17  O   UNL     1       0.215  11.399  19.392  0.00  0.00    +0.000 OA
ATOM     18  H   UNL     1      -0.740  11.274  19.283  0.00  0.00    +0.000 HD
ENDBRANCH  11  17
ENDBRANCH   1  14
BRANCH   3  19
ATOM     19  C   UNL     1       5.605   4.252  18.657  0.00  0.00    +0.000 C 
BRANCH  19  20
ATOM     20  C   UNL     1       5.937   4.337  17.187  0.00  0.00    +0.000 A 
ATOM     21  C   UNL     1       4.972   4.036  16.213  0.00  0.00    +0.000 A 
ATOM     22  C   UNL     1       5.251   4.209  14.852  0.00  0.00    +0.000 A 
ATOM     23  C   UNL     1       6.500   4.680  14.451  0.00  0.00    +0.000 A 
ATOM     24  C   UNL     1       7.475   4.957  15.407  0.00  0.00    +0.000 A 
ATOM     25  C   UNL     1       7.199   4.783  16.766  0.00  0.00    +0.000 A 
ENDBRANCH  19  20
ENDBRANCH   3  19
TORSDOF 4
ENDMDL
MODEL 2
REMARK VINA RESULT:      -8.4      0.036      1.006
REMARK  Name = 
REMARK  4 active torsions:
REMARK  status: ('A' for Active; 'I' for Inactive)
REMARK    1  A    between atoms: O_1  and  C_2
REMARK    2  A    between atoms: C_5  and  C_6
REMARK    3  A    between atoms: N_8  and  C_9
REMARK    4  A    between atoms: C_9  and  C_10
REMARK                            x       y       z     vdW  Elec       q    Type
REMARK                         _______ _______ _______ _____ _____    ______ ____
ROOT
ATOM      1  C   UNL     1       2.696   6.331  19.349  0.00  0.00    +0.000 A 
ATOM      2  C   UNL     1       3.959   6.121  18.817  0.00  0.00    +0.000 A 
ATOM      3  N   UNL     1       4.313   4.800  18.989  0.00  0.00    +0.000 N 
ATOM      4  C   UNL     1       3.306   4.173  19.672  0.00  0.00    +0.000 A 
ATOM      5  C   UNL     1       2.266   5.071  19.864  0.00  0.00    +0.000 A 
ATOM      6  C   UNL     1       0.988   4.697  20.555  0.00  0.00    +0.000 C 
ATOM      7  N   UNL     1       0.830   3.226  20.586  0.00  0.00    +0.000 NA
ATOM      8  C   UNL     1       2.059   2.583  21.102  0.00  0.00    +0.000 C 
ATOM      9  C   UNL     1       3.270   2.758  20.150  0.00  0.00    +0.000 C 
ATOM     10  H   UNL     1       0.699   2.925  19.621  0.00  0.00    +0.000 HD
ENDROOT
BRANCH   1  14
ATOM     11  C   UNL     1       0.825  10.165  19.433  0.00  0.00    +0.000 A 
ATOM     12  C   UNL     1       1.362   9.689  18.241  0.00  0.00    +0.000 A 
ATOM     13  C   UNL     1       1.967   8.427  18.214  0.00  0.00    +0.000 A 
ATOM     14  C   UNL     1       2.050   7.642  19.373  0.00  0.00    +0.000 A 
ATOM     15  C   UNL     1       1.509   8.152  20.563  0.00  0.00    +0.000 A 
ATOM     16  C   UNL     1       0.890   9.403  20.591  0.00  0.00    +0.000 A 
BRANCH  11  17
ATOM     17  O   UNL     1       0.226  11.386  19.507  0.00  0.00    +0.000 OA
ATOM     18  H   UNL     1      -0.722  11.256  19.663  0.00  0.00    +0.000 HD
ENDBRANCH  11  17
ENDBRANCH   1  14
BRANCH   3  19
ATOM     19  C   UNL     1       5.625   4.258  18.653  0.00  0.00    +0.000 C 
BRANCH  19  20
ATOM     20  C   UNL     1       5.954   4.333  17.180  0.00  0.00    +0.000 A 
ATOM     21  C   UNL     1       4.997   3.997  16.211  0.00  0.00    +0.000 A 
ATOM     22  C   UNL     1       5.271   4.161  14.849  0.00  0.00    +0.000 A 
ATOM     23  C   UNL     1       6.508   4.657  14.441  0.00  0.00    +0.000 A 
ATOM     24  C   UNL     1       7.477   4.969  15.392  0.00  0.00    +0.000 A 
ATOM     25  C   UNL     1       7.205   4.805  16.753  0.00  0.00    +0.000 A 
ENDBRANCH  19  20
ENDBRANCH   3  19
TORSDOF 4
ENDMDL
MODEL 3
REMARK VINA RESULT:      -8.4      0.093      1.009
REMARK  Name = 
REMARK  4 active torsions:
REMARK  status: ('A' for Active; 'I' for Inactive)
REMARK    1  A    between atoms: O_1  and  C_2
REMARK    2  A    between atoms: C_5  and  C_6
REMARK    3  A    between atoms: N_8  and  C_9
REMARK    4  A    between atoms: C_9  and  C_10
REMARK                            x       y       z     vdW  Elec       q    Type
REMARK                         _______ _______ _______ _____ _____    ______ ____
ROOT
ATOM      1  C   UNL     1       2.692   6.329  19.315  0.00  0.00    +0.000 A 
ATOM      2  C   UNL     1       3.934   6.106  18.742  0.00  0.00    +0.000 A 
ATOM      3  N   UNL     1       4.281   4.781  18.904  0.00  0.00    +0.000 N 
ATOM      4  C   UNL     1       3.292   4.165  19.623  0.00  0.00    +0.000 A 
ATOM      5  C   UNL     1       2.268   5.075  19.847  0.00  0.00    +0.000 A 
ATOM      6  C   UNL     1       1.010   4.714  20.582  0.00  0.00    +0.000 C 
ATOM      7  N   UNL     1       0.839   3.244  20.622  0.00  0.00    +0.000 NA
ATOM      8  C   UNL     1       2.078   2.590  21.097  0.00  0.00    +0.000 C 
ATOM      9  C   UNL     1       3.258   2.752  20.104  0.00  0.00    +0.000 C 
ATOM     10  H   UNL     1       0.673   2.944  19.662  0.00  0.00    +0.000 HD
ENDROOT
BRANCH   1  14
ATOM     11  C   UNL     1       0.831  10.167  19.426  0.00  0.00    +0.000 A 
ATOM     12  C   UNL     1       0.893   9.400  20.585  0.00  0.00    +0.000 A 
ATOM     13  C   UNL     1       1.512   8.146  20.549  0.00  0.00    +0.000 A 
ATOM     14  C   UNL     1       2.060   7.646  19.358  0.00  0.00    +0.000 A 
ATOM     15  C   UNL     1       1.973   8.437  18.201  0.00  0.00    +0.000 A 
ATOM     16  C   UNL     1       1.370   9.696  18.238  0.00  0.00    +0.000 A 
BRANCH  11  17
ATOM     17  O   UNL     1       0.238  11.393  19.414  0.00  0.00    +0.000 OA
ATOM     18  H   UNL     1      -0.472  11.387  18.753  0.00  0.00    +0.000 HD
ENDBRANCH  11  17
ENDBRANCH   1  14
BRANCH   3  19
ATOM     19  C   UNL     1       5.576   4.226  18.525  0.00  0.00    +0.000 C 
BRANCH  19  20
ATOM     20  C   UNL     1       5.914   4.417  17.066  0.00  0.00    +0.000 A 
ATOM     21  C   UNL     1       7.171   4.906  16.676  0.00  0.00    +0.000 A 
ATOM     22  C   UNL     1       7.518   4.989  15.323  0.00  0.00    +0.000 A 
ATOM     23  C   UNL     1       6.609   4.591  14.345  0.00  0.00    +0.000 A 
ATOM     24  C   UNL     1       5.348   4.129  14.717  0.00  0.00    +0.000 A 
ATOM     25  C   UNL     1       5.000   4.046  16.068  0.00  0.00    +0.000 A 
ENDBRANCH  19  20
ENDBRANCH   3  19
TORSDOF 4
ENDMDL
MODEL 4
REMARK VINA RESULT:      -8.4      0.094      1.425
REMARK  Name = 
REMARK  4 active torsions:
REMARK  status: ('A' for Active; 'I' for Inactive)
REMARK    1  A    between atoms: O_1  and  C_2
REMARK    2  A    between atoms: C_5  and  C_6
REMARK    3  A    between atoms: N_8  and  C_9
REMARK    4  A    between atoms: C_9  and  C_10
REMARK                            x       y       z     vdW  Elec       q    Type
REMARK                         _______ _______ _______ _____ _____    ______ ____
ROOT
ATOM      1  C   UNL     1       2.677   6.323  19.329  0.00  0.00    +0.000 A 
ATOM      2  C   UNL     1       3.923   6.104  18.761  0.00  0.00    +0.000 A 
ATOM      3  N   UNL     1       4.269   4.779  18.917  0.00  0.00    +0.000 N 
ATOM      4  C   UNL     1       3.277   4.158  19.626  0.00  0.00    +0.000 A 
ATOM      5  C   UNL     1       2.251   5.065  19.851  0.00  0.00    +0.000 A 
ATOM      6  C   UNL     1       0.990   4.699  20.576  0.00  0.00    +0.000 C 
ATOM      7  N   UNL     1       0.819   3.229  20.606  0.00  0.00    +0.000 NA
ATOM      8  C   UNL     1       2.056   2.573  21.084  0.00  0.00    +0.000 C 
ATOM      9  C   UNL     1       3.242   2.742  20.098  0.00  0.00    +0.000 C 
ATOM     10  H   UNL     1       0.658   2.934  19.644  0.00  0.00    +0.000 HD
ENDROOT
BRANCH   1  14
ATOM     11  C   UNL     1       0.843  10.173  19.483  0.00  0.00    +0.000 A 
ATOM     12  C   UNL     1       1.373   9.712  18.282  0.00  0.00    +0.000 A 
ATOM     13  C   UNL     1       1.966   8.446  18.232  0.00  0.00    +0.000 A 
ATOM     14  C   UNL     1       2.044   7.640  19.376  0.00  0.00    +0.000 A 
ATOM     15  C   UNL     1       1.510   8.134  20.577  0.00  0.00    +0.000 A 
ATOM     16  C   UNL     1       0.903   9.391  20.627  0.00  0.00    +0.000 A 
BRANCH  11  17
ATOM     17  O   UNL     1       0.256  11.398  19.579  0.00  0.00    +0.000 OA
ATOM     18  H   UNL     1      -0.311  11.408  20.366  0.00  0.00    +0.000 HD
ENDBRANCH  11  17
ENDBRANCH   1  14
BRANCH   3  19
ATOM     19  C   UNL     1       5.567   4.227  18.541  0.00  0.00    +0.000 C 
BRANCH  19  20
ATOM     20  C   UNL     1       5.909   4.419  17.082  0.00  0.00    +0.000 A 
ATOM     21  C   UNL     1       7.172   4.892  16.696  0.00  0.00    +0.000 A 
ATOM     22  C   UNL     1       7.521   4.976  15.343  0.00  0.00    +0.000 A 
ATOM     23  C   UNL     1       6.607   4.595  14.363  0.00  0.00    +0.000 A 
ATOM     24  C   UNL     1       5.340   4.149  14.732  0.00  0.00    +0.000 A 
ATOM     25  C   UNL     1       4.990   4.065  16.083  0.00  0.00    +0.000 A 
ENDBRANCH  19  20
ENDBRANCH   3  19
TORSDOF 4
ENDMDL
MODEL 5
REMARK VINA RESULT:      -8.3      1.451      2.038
REMARK  Name = 
REMARK  4 active torsions:
REMARK  status: ('A' for Active; 'I' for Inactive)
REMARK    1  A    between atoms: O_1  and  C_2
REMARK    2  A    between atoms: C_5  and  C_6
REMARK    3  A    between atoms: N_8  and  C_9
REMARK    4  A    between atoms: C_9  and  C_10
REMARK                            x       y       z     vdW  Elec       q    Type
REMARK                         _______ _______ _______ _____ _____    ______ ____
ROOT
ATOM      1  C   UNL     1       3.183   6.131  18.057  0.00  0.00    +0.000 A 
ATOM      2  C   UNL     1       4.470   6.141  17.541  0.00  0.00    +0.000 A 
ATOM      3  N   UNL     1       4.861   4.848  17.266  0.00  0.00    +0.000 N 
ATOM      4  C   UNL     1       3.853   4.005  17.648  0.00  0.00    +0.000 A 
ATOM      5  C   UNL     1       2.778   4.763  18.090  0.00  0.00    +0.000 A 
ATOM      6  C   UNL     1       1.490   4.150  18.554  0.00  0.00    +0.000 C 
ATOM      7  N   UNL     1       1.380   2.754  18.073  0.00  0.00    +0.000 NA
ATOM      8  C   UNL     1       2.610   1.997  18.391  0.00  0.00    +0.000 C 
ATOM      9  C   UNL     1       3.847   2.513  17.611  0.00  0.00    +0.000 C 
ATOM     10  H   UNL     1       1.292   2.801  17.058  0.00  0.00    +0.000 HD
ENDROOT
BRANCH   1  14
ATOM     11  C   UNL     1       1.152   9.660  19.335  0.00  0.00    +0.000 A 
ATOM     12  C   UNL     1       1.397   8.639  20.248  0.00  0.00    +0.000 A 
ATOM     13  C   UNL     1       2.071   7.487  19.829  0.00  0.00    +0.000 A 
ATOM     14  C   UNL     1       2.493   7.341  18.499  0.00  0.00    +0.000 A 
ATOM     15  C   UNL     1       2.223   8.382  17.597  0.00  0.00    +0.000 A 
ATOM     16  C   UNL     1       1.565   9.540  18.015  0.00  0.00    +0.000 A 
BRANCH  11  17
ATOM     17  O   UNL     1       0.500  10.799  19.697  0.00  0.00    +0.000 OA
ATOM     18  H   UNL     1      -0.084  10.596  20.445  0.00  0.00    +0.000 HD
ENDBRANCH  11  17
ENDBRANCH   1  14
BRANCH   3  19
ATOM     19  C   UNL     1       6.202   4.480  16.823  0.00  0.00    +0.000 C 
BRANCH  19  20
ATOM     20  C   UNL     1       6.362   4.466  15.321  0.00  0.00    +0.000 A 
ATOM     21  C   UNL     1       7.414   5.161  14.703  0.00  0.00    +0.000 A 
ATOM     22  C   UNL     1       7.619   5.067  13.322  0.00  0.00    +0.000 A 
ATOM     23  C   UNL     1       6.769   4.284  12.543  0.00  0.00    +0.000 A 
ATOM     24  C   UNL     1       5.705   3.611  13.140  0.00  0.00    +0.000 A 
ATOM     25  C   UNL     1       5.499   3.704  14.519  0.00  0.00    +0.000 A 
ENDBRANCH  19  20
ENDBRANCH   3  19
TORSDOF 4
ENDMDL
MODEL 6
REMARK VINA RESULT:      -8.3      1.422      2.209
REMARK  Name = 
REMARK  4 active torsions:
REMARK  status: ('A' for Active; 'I' for Inactive)
REMARK    1  A    between atoms: O_1  and  C_2
REMARK    2  A    between atoms: C_5  and  C_6
REMARK    3  A    between atoms: N_8  and  C_9
REMARK    4  A    between atoms: C_9  and  C_10
REMARK                            x       y       z     vdW  Elec       q    Type
REMARK                         _______ _______ _______ _____ _____    ______ ____
ROOT
ATOM      1  C   UNL     1       3.139   6.156  18.121  0.00  0.00    +0.000 A 
ATOM      2  C   UNL     1       4.432   6.172  17.622  0.00  0.00    +0.000 A 
ATOM      3  N   UNL     1       4.831   4.881  17.348  0.00  0.00    +0.000 N 
ATOM      4  C   UNL     1       3.821   4.033  17.716  0.00  0.00    +0.000 A 
ATOM      5  C   UNL     1       2.738   4.787  18.146  0.00  0.00    +0.000 A 
ATOM      6  C   UNL     1       1.446   4.168  18.593  0.00  0.00    +0.000 C 
ATOM      7  N   UNL     1       1.347   2.773  18.107  0.00  0.00    +0.000 NA
ATOM      8  C   UNL     1       2.576   2.020  18.438  0.00  0.00    +0.000 C 
ATOM      9  C   UNL     1       3.821   2.541  17.674  0.00  0.00    +0.000 C 
ATOM     10  H   UNL     1       1.272   2.822  17.091  0.00  0.00    +0.000 HD
ENDROOT
BRANCH   1  14
ATOM     11  C   UNL     1       1.114   9.684  19.411  0.00  0.00    +0.000 A 
ATOM     12  C   UNL     1       1.511   9.566  18.083  0.00  0.00    +0.000 A 
ATOM     13  C   UNL     1       2.166   8.405  17.660  0.00  0.00    +0.000 A 
ATOM     14  C   UNL     1       2.440   7.363  18.558  0.00  0.00    +0.000 A 
ATOM     15  C   UNL     1       2.037   7.513  19.894  0.00  0.00    +0.000 A 
ATOM     16  C   UNL     1       1.368   8.664  20.316  0.00  0.00    +0.000 A 
BRANCH  11  17
ATOM     17  O   UNL     1       0.473  10.795  19.868  0.00  0.00    +0.000 OA
ATOM     18  H   UNL     1       1.137  11.425  20.189  0.00  0.00    +0.000 HD
ENDBRANCH  11  17
ENDBRANCH   1  14
BRANCH   3  19
ATOM     19  C   UNL     1       6.178   4.518  16.920  0.00  0.00    +0.000 C 
BRANCH  19  20
ATOM     20  C   UNL     1       6.355   4.501  15.420  0.00  0.00    +0.000 A 
ATOM     21  C   UNL     1       7.426   5.175  14.814  0.00  0.00    +0.000 A 
ATOM     22  C   UNL     1       7.644   5.078  13.435  0.00  0.00    +0.000 A 
ATOM     23  C   UNL     1       6.789   4.309  12.647  0.00  0.00    +0.000 A 
ATOM     24  C   UNL     1       5.707   3.656  13.232  0.00  0.00    +0.000 A 
ATOM     25  C   UNL     1       5.487   3.754  14.609  0.00  0.00    +0.000 A 
ENDBRANCH  19  20
ENDBRANCH   3  19
TORSDOF 4
ENDMDL
MODEL 7
REMARK VINA RESULT:      -8.1      1.389      1.891
REMARK  Name = 
REMARK  4 active torsions:
REMARK  status: ('A' for Active; 'I' for Inactive)
REMARK    1  A    between atoms: O_1  and  C_2
REMARK    2  A    between atoms: C_5  and  C_6
REMARK    3  A    between atoms: N_8  and  C_9
REMARK    4  A    between atoms: C_9  and  C_10
REMARK                            x       y       z     vdW  Elec       q    Type
REMARK                         _______ _______ _______ _____ _____    ______ ____
ROOT
ATOM      1  C   UNL     1       3.127   6.142  18.201  0.00  0.00    +0.000 A 
ATOM      2  C   UNL     1       4.438   6.144  17.752  0.00  0.00    +0.000 A 
ATOM      3  N   UNL     1       4.835   4.848  17.498  0.00  0.00    +0.000 N 
ATOM      4  C   UNL     1       3.804   4.012  17.830  0.00  0.00    +0.000 A 
ATOM      5  C   UNL     1       2.712   4.776  18.216  0.00  0.00    +0.000 A 
ATOM      6  C   UNL     1       1.399   4.171  18.616  0.00  0.00    +0.000 C 
ATOM      7  N   UNL     1       1.305   2.775  18.131  0.00  0.00    +0.000 NA
ATOM      8  C   UNL     1       2.514   2.012  18.512  0.00  0.00    +0.000 C 
ATOM      9  C   UNL     1       3.792   2.519  17.794  0.00  0.00    +0.000 C 
ATOM     10  H   UNL     1       1.269   2.821  17.114  0.00  0.00    +0.000 HD
ENDROOT
BRANCH   1  14
ATOM     11  C   UNL     1       1.086   9.693  19.400  0.00  0.00    +0.000 A 
ATOM     12  C   UNL     1       1.508   9.555  18.082  0.00  0.00    +0.000 A 
ATOM     13  C   UNL     1       2.169   8.386  17.689  0.00  0.00    +0.000 A 
ATOM     14  C   UNL     1       2.422   7.357  18.607  0.00  0.00    +0.000 A 
ATOM     15  C   UNL     1       1.994   7.528  19.933  0.00  0.00    +0.000 A 
ATOM     16  C   UNL     1       1.320   8.686  20.325  0.00  0.00    +0.000 A 
BRANCH  11  17
ATOM     17  O   UNL     1       0.439  10.812  19.828  0.00  0.00    +0.000 OA
ATOM     18  H   UNL     1       0.394  10.792  20.797  0.00  0.00    +0.000 HD
ENDBRANCH  11  17
ENDBRANCH   1  14
BRANCH   3  19
ATOM     19  C   UNL     1       6.194   4.472  17.123  0.00  0.00    +0.000 C 
BRANCH  19  20
ATOM     20  C   UNL     1       6.413   4.395  15.631  0.00  0.00    +0.000 A 
ATOM     21  C   UNL     1       5.551   3.647  14.815  0.00  0.00    +0.000 A 
ATOM     22  C   UNL     1       5.696   3.656  13.423  0.00  0.00    +0.000 A 
ATOM     23  C   UNL     1       6.711   4.408  12.833  0.00  0.00    +0.000 A 
ATOM     24  C   UNL     1       7.590   5.134  13.634  0.00  0.00    +0.000 A 
ATOM     25  C   UNL     1       7.447   5.125  15.024  0.00  0.00    +0.000 A 
ENDBRANCH  19  20
ENDBRANCH   3  19
TORSDOF 4
ENDMDL
MODEL 8
REMARK VINA RESULT:      -8.1      1.338      1.572
REMARK  Name = 
REMARK  4 active torsions:
REMARK  status: ('A' for Active; 'I' for Inactive)
REMARK    1  A    between atoms: O_1  and  C_2
REMARK    2  A    between atoms: C_5  and  C_6
REMARK    3  A    between atoms: N_8  and  C_9
REMARK    4  A    between atoms: C_9  and  C_10
REMARK                            x       y       z     vdW  Elec       q    Type
REMARK                         _______ _______ _______ _____ _____    ______ ____
ROOT
ATOM      1  C   UNL     1       3.183   6.087  18.242  0.00  0.00    +0.000 A 
ATOM      2  C   UNL     1       4.485   6.079  17.765  0.00  0.00    +0.000 A 
ATOM      3  N   UNL     1       4.881   4.777  17.541  0.00  0.00    +0.000 N 
ATOM      4  C   UNL     1       3.859   3.948  17.919  0.00  0.00    +0.000 A 
ATOM      5  C   UNL     1       2.773   4.721  18.305  0.00  0.00    +0.000 A 
ATOM      6  C   UNL     1       1.471   4.124  18.749  0.00  0.00    +0.000 C 
ATOM      7  N   UNL     1       1.371   2.715  18.308  0.00  0.00    +0.000 NA
ATOM      8  C   UNL     1       2.590   1.966  18.685  0.00  0.00    +0.000 C 
ATOM      9  C   UNL     1       3.851   2.455  17.927  0.00  0.00    +0.000 C 
ATOM     10  H   UNL     1       1.314   2.731  17.290  0.00  0.00    +0.000 HD
ENDROOT
BRANCH   1  14
ATOM     11  C   UNL     1       1.124   9.656  19.351  0.00  0.00    +0.000 A 
ATOM     12  C   UNL     1       1.365   8.676  20.309  0.00  0.00    +0.000 A 
ATOM     13  C   UNL     1       2.048   7.511  19.945  0.00  0.00    +0.000 A 
ATOM     14  C   UNL     1       2.484   7.311  18.627  0.00  0.00    +0.000 A 
ATOM     15  C   UNL     1       2.217   8.312  17.679  0.00  0.00    +0.000 A 
ATOM     16  C   UNL     1       1.550   9.483  18.042  0.00  0.00    +0.000 A 
BRANCH  11  17
ATOM     17  O   UNL     1       0.463  10.806  19.659  0.00  0.00    +0.000 OA
ATOM     18  H   UNL     1      -0.013  11.110  18.870  0.00  0.00    +0.000 HD
ENDBRANCH  11  17
ENDBRANCH   1  14
BRANCH   3  19
ATOM     19  C   UNL     1       6.233   4.394  17.149  0.00  0.00    +0.000 C 
BRANCH  19  20
ATOM     20  C   UNL     1       6.443   4.352  15.654  0.00  0.00    +0.000 A 
ATOM     21  C   UNL     1       5.568   3.633  14.825  0.00  0.00    +0.000 A 
ATOM     22  C   UNL     1       5.706   3.676  13.433  0.00  0.00    +0.000 A 
ATOM     23  C   UNL     1       6.725   4.432  12.856  0.00  0.00    +0.000 A 
ATOM     24  C   UNL     1       7.617   5.128  13.669  0.00  0.00    +0.000 A 
ATOM     25  C   UNL     1       7.481   5.086  15.060  0.00  0.00    +0.000 A 
ENDBRANCH  19  20
ENDBRANCH   3  19
TORSDOF 4
ENDMDL
MODEL 9
REMARK VINA RESULT:      -8.0      2.698      6.207
REMARK  Name = 
REMARK  4 active torsions:
REMARK  status: ('A' for Active; 'I' for Inactive)
REMARK    1  A    between atoms: O_1  and  C_2
REMARK    2  A    between atoms: C_5  and  C_6
REMARK    3  A    between atoms: N_8  and  C_9
REMARK    4  A    between atoms: C_9  and  C_10
REMARK                            x       y       z     vdW  Elec       q    Type
REMARK                         _______ _______ _______ _____ _____    ______ ____
ROOT
ATOM      1  C   UNL     1       3.973   4.774  18.216  0.00  0.00    +0.000 A 
ATOM      2  C   UNL     1       3.727   5.771  19.147  0.00  0.00    +0.000 A 
ATOM      3  N   UNL     1       2.631   5.426  19.908  0.00  0.00    +0.000 N 
ATOM      4  C   UNL     1       2.141   4.238  19.437  0.00  0.00    +0.000 A 
ATOM      5  C   UNL     1       2.975   3.776  18.429  0.00  0.00    +0.000 A 
ATOM      6  C   UNL     1       2.743   2.476  17.716  0.00  0.00    +0.000 C 
ATOM      7  N   UNL     1       1.833   1.612  18.501  0.00  0.00    +0.000 NA
ATOM      8  C   UNL     1       0.619   2.361  18.897  0.00  0.00    +0.000 C 
ATOM      9  C   UNL     1       0.923   3.506  19.897  0.00  0.00    +0.000 C 
ATOM     10  H   UNL     1       2.334   1.355  19.350  0.00  0.00    +0.000 HD
ENDROOT
BRANCH   1  14
ATOM     11  C   UNL     1       7.083   5.042  15.307  0.00  0.00    +0.000 A 
ATOM     12  C   UNL     1       7.398   4.712  16.621  0.00  0.00    +0.000 A 
ATOM     13  C   UNL     1       6.376   4.616  17.571  0.00  0.00    +0.000 A 
ATOM     14  C   UNL     1       5.040   4.859  17.221  0.00  0.00    +0.000 A 
ATOM     15  C   UNL     1       4.752   5.201  15.890  0.00  0.00    +0.000 A 
ATOM     16  C   UNL     1       5.768   5.282  14.935  0.00  0.00    +0.000 A 
BRANCH  11  17
ATOM     17  O   UNL     1       8.045   5.148  14.348  0.00  0.00    +0.000 OA
ATOM     18  H   UNL     1       7.900   4.453  13.687  0.00  0.00    +0.000 HD
ENDBRANCH  11  17
ENDBRANCH   1  14
BRANCH   3  19
ATOM     19  C   UNL     1       2.022   6.302  20.904  0.00  0.00    +0.000 C 
BRANCH  19  20
ATOM     20  C   UNL     1       1.563   7.628  20.346  0.00  0.00    +0.000 A 
ATOM     21  C   UNL     1       0.845   8.533  21.143  0.00  0.00    +0.000 A 
ATOM     22  C   UNL     1       0.505   9.801  20.656  0.00  0.00    +0.000 A 
ATOM     23  C   UNL     1       0.875  10.174  19.365  0.00  0.00    +0.000 A 
ATOM     24  C   UNL     1       1.565   9.275  18.555  0.00  0.00    +0.000 A 
ATOM     25  C   UNL     1       1.904   8.008  19.039  0.00  0.00    +0.000 A 
ENDBRANCH  19  20
ENDBRANCH   3  19
TORSDOF 4
ENDMDL
