MODEL 1
REMARK VINA RESULT:      -8.1      0.000      0.000
REMARK  Name = 
REMARK  6 active torsions:
REMARK  status: ('A' for Active; 'I' for Inactive)
REMARK    1  A    between atoms: C_1  and  C_2
REMARK    2  A    between atoms: C_2  and  C_3
REMARK    3  A    between atoms: C_2  and  C_4
REMARK    4  A    between atoms: C_9  and  N_10
REMARK    5  A    between atoms: N_10  and  C_11
REMARK    6  A    between atoms: C_11  and  C_12
REMARK                            x       y       z     vdW  Elec       q    Type
REMARK                         _______ _______ _______ _____ _____    ______ ____
ROOT
ATOM      1  N   UNL     1       6.237   3.826  18.474  0.00  0.00    +0.000 N 
ATOM      2  H   UNL     1       7.005   3.163  18.523  0.00  0.00    +0.000 HD
ENDROOT
BRANCH   1   8
ATOM      3  C   UNL     1       6.272   5.974  17.179  0.00  0.00    +0.000 A 
ATOM      4  C   UNL     1       6.885   7.248  17.009  0.00  0.00    +0.000 A 
ATOM      5  C   UNL     1       7.881   7.722  17.853  0.00  0.00    +0.000 A 
ATOM      6  C   UNL     1       8.271   6.951  18.926  0.00  0.00    +0.000 A 
ATOM      7  C   UNL     1       7.679   5.704  19.123  0.00  0.00    +0.000 A 
ATOM      8  C   UNL     1       6.735   5.141  18.229  0.00  0.00    +0.000 A 
BRANCH   3  10
ATOM      9  C   UNL     1       4.741   6.927  15.423  0.00  0.00    +0.000 C 
ATOM     10  C   UNL     1       5.221   5.653  16.120  0.00  0.00    +0.000 C 
ATOM     11  C   UNL     1       5.540   4.539  15.125  0.00  0.00    +0.000 C 
ENDBRANCH   3  10
ENDBRANCH   1   8
BRANCH   1  12
ATOM     12  C   UNL     1       5.352   3.724  19.654  0.00  0.00    +0.000 C 
BRANCH  12  13
ATOM     13  C   UNL     1       3.839   3.590  19.376  0.00  0.00    +0.000 C 
ATOM     14  C   UNL     1       3.097   2.777  20.459  0.00  0.00    +0.000 C 
ATOM     15  C   UNL     1       1.581   2.763  20.177  0.00  0.00    +0.000 C 
ATOM     16  C   UNL     1       1.038   4.203  20.178  0.00  0.00    +0.000 C 
ATOM     17  C   UNL     1       1.740   5.027  19.090  0.00  0.00    +0.000 C 
ATOM     18  C   UNL     1       1.492   4.389  17.715  0.00  0.00    +0.000 C 
ATOM     19  C   UNL     1       2.038   2.949  17.705  0.00  0.00    +0.000 C 
ATOM     20  C   UNL     1       1.326   2.135  18.797  0.00  0.00    +0.000 C 
ATOM     21  C   UNL     1       3.551   2.964  17.988  0.00  0.00    +0.000 C 
ATOM     22  C   UNL     1       3.249   5.039  19.371  0.00  0.00    +0.000 C 
ENDBRANCH  12  13
ENDBRANCH   1  12
TORSDOF 4
ENDMDL
MODEL 2
REMARK VINA RESULT:      -8.1      0.096      1.648
REMARK  Name = 
REMARK  6 active torsions:
REMARK  status: ('A' for Active; 'I' for Inactive)
REMARK    1  A    between atoms: C_1  and  C_2
REMARK    2  A    between atoms: C_2  and  C_3
REMARK    3  A    between atoms: C_2  and  C_4
REMARK    4  A    between atoms: C_9  and  N_10
REMARK    5  A    between atoms: N_10  and  C_11
REMARK    6  A    between atoms: C_11  and  C_12
REMARK                            x       y       z     vdW  Elec       q    Type
REMARK                         _______ _______ _______ _____ _____    ______ ____
ROOT
ATOM      1  N   UNL     1       6.333   3.856  18.435  0.00  0.00    +0.000 N 
ATOM      2  H   UNL     1       7.118   3.218  18.515  0.00  0.00    +0.000 HD
ENDROOT
BRANCH   1   8
ATOM      3  C   UNL     1       6.309   6.018  17.164  0.00  0.00    +0.000 A 
ATOM      4  C   UNL     1       6.892   7.308  17.003  0.00  0.00    +0.000 A 
ATOM      5  C   UNL     1       7.883   7.795  17.844  0.00  0.00    +0.000 A 
ATOM      6  C   UNL     1       8.299   7.021  18.906  0.00  0.00    +0.000 A 
ATOM      7  C   UNL     1       7.737   5.759  19.093  0.00  0.00    +0.000 A 
ATOM      8  C   UNL     1       6.799   5.184  18.200  0.00  0.00    +0.000 A 
BRANCH   3  10
ATOM      9  C   UNL     1       4.718   6.958  15.455  0.00  0.00    +0.000 C 
ATOM     10  C   UNL     1       5.257   5.685  16.109  0.00  0.00    +0.000 C 
ATOM     11  C   UNL     1       5.606   4.612  15.079  0.00  0.00    +0.000 C 
ENDBRANCH   3  10
ENDBRANCH   1   8
BRANCH   1  12
ATOM     12  C   UNL     1       5.409   3.733  19.584  0.00  0.00    +0.000 C 
BRANCH  12  13
ATOM     13  C   UNL     1       3.899   3.717  19.259  0.00  0.00    +0.000 C 
ATOM     14  C   UNL     1       3.582   3.056  17.900  0.00  0.00    +0.000 C 
ATOM     15  C   UNL     1       2.058   2.982  17.678  0.00  0.00    +0.000 C 
ATOM     16  C   UNL     1       1.410   2.149  18.799  0.00  0.00    +0.000 C 
ATOM     17  C   UNL     1       1.687   2.800  20.161  0.00  0.00    +0.000 C 
ATOM     18  C   UNL     1       1.107   4.222  20.182  0.00  0.00    +0.000 C 
ATOM     19  C   UNL     1       1.755   5.064  19.068  0.00  0.00    +0.000 C 
ATOM     20  C   UNL     1       1.470   4.402  17.710  0.00  0.00    +0.000 C 
ATOM     21  C   UNL     1       3.278   5.136  19.288  0.00  0.00    +0.000 C 
ATOM     22  C   UNL     1       3.203   2.875  20.378  0.00  0.00    +0.000 C 
ENDBRANCH  12  13
ENDBRANCH   1  12
TORSDOF 4
ENDMDL
MODEL 3
REMARK VINA RESULT:      -8.1      0.055      1.644
REMARK  Name = 
REMARK  6 active torsions:
REMARK  status: ('A' for Active; 'I' for Inactive)
REMARK    1  A    between atoms: C_1  and  C_2
REMARK    2  A    between atoms: C_2  and  C_3
REMARK    3  A    between atoms: C_2  and  C_4
REMARK    4  A    between atoms: C_9  and  N_10
REMARK    5  A    between atoms: N_10  and  C_11
REMARK    6  A    between atoms: C_11  and  C_12
REMARK                            x       y       z     vdW  Elec       q    Type
REMARK                         _______ _______ _______ _____ _____    ______ ____
ROOT
ATOM      1  N   UNL     1       6.200   3.801  18.444  0.00  0.00    +0.000 N 
ATOM      2  H   UNL     1       6.960   3.128  18.440  0.00  0.00    +0.000 HD
ENDROOT
BRANCH   1   8
ATOM      3  C   UNL     1       6.244   5.968  17.181  0.00  0.00    +0.000 A 
ATOM      4  C   UNL     1       6.865   7.241  17.028  0.00  0.00    +0.000 A 
ATOM      5  C   UNL     1       7.866   7.696  17.875  0.00  0.00    +0.000 A 
ATOM      6  C   UNL     1       8.255   6.906  18.935  0.00  0.00    +0.000 A 
ATOM      7  C   UNL     1       7.656   5.661  19.116  0.00  0.00    +0.000 A 
ATOM      8  C   UNL     1       6.706   5.116  18.216  0.00  0.00    +0.000 A 
BRANCH   3  10
ATOM      9  C   UNL     1       4.719   6.955  15.439  0.00  0.00    +0.000 C 
ATOM     10  C   UNL     1       5.188   5.669  16.120  0.00  0.00    +0.000 C 
ATOM     11  C   UNL     1       5.494   4.563  15.112  0.00  0.00    +0.000 C 
ENDBRANCH   3  10
ENDBRANCH   1   8
BRANCH   1  12
ATOM     12  C   UNL     1       5.364   3.676  19.658  0.00  0.00    +0.000 C 
BRANCH  12  13
ATOM     13  C   UNL     1       3.834   3.680  19.448  0.00  0.00    +0.000 C 
ATOM     14  C   UNL     1       3.232   5.102  19.433  0.00  0.00    +0.000 C 
ATOM     15  C   UNL     1       1.723   5.044  19.124  0.00  0.00    +0.000 C 
ATOM     16  C   UNL     1       1.500   4.396  17.745  0.00  0.00    +0.000 C 
ATOM     17  C   UNL     1       2.064   2.969  17.742  0.00  0.00    +0.000 C 
ATOM     18  C   UNL     1       1.363   2.131  18.820  0.00  0.00    +0.000 C 
ATOM     19  C   UNL     1       1.587   2.770  20.202  0.00  0.00    +0.000 C 
ATOM     20  C   UNL     1       1.015   4.197  20.194  0.00  0.00    +0.000 C 
ATOM     21  C   UNL     1       3.094   2.829  20.511  0.00  0.00    +0.000 C 
ATOM     22  C   UNL     1       3.566   3.028  18.052  0.00  0.00    +0.000 C 
ENDBRANCH  12  13
ENDBRANCH   1  12
TORSDOF 4
ENDMDL
MODEL 4
REMARK VINA RESULT:      -8.0      1.255      3.038
REMARK  Name = 
REMARK  6 active torsions:
REMARK  status: ('A' for Active; 'I' for Inactive)
REMARK    1  A    between atoms: C_1  and  C_2
REMARK    2  A    between atoms: C_2  and  C_3
REMARK    3  A    between atoms: C_2  and  C_4
REMARK    4  A    between atoms: C_9  and  N_10
REMARK    5  A    between atoms: N_10  and  C_11
REMARK    6  A    between atoms: C_11  and  C_12
REMARK                            x       y       z     vdW  Elec       q    Type
REMARK                         _______ _______ _______ _____ _____    ______ ____
ROOT
ATOM      1  N   UNL     1       4.008   6.414  17.348  0.00  0.00    +0.000 N 
ATOM      2  H   UNL     1       3.116   6.242  16.894  0.00  0.00    +0.000 HD
ENDROOT
BRANCH   1   8
ATOM      3  C   UNL     1       6.434   5.929  16.936  0.00  0.00    +0.000 A 
ATOM      4  C   UNL     1       7.390   5.265  16.114  0.00  0.00    +0.000 A 
ATOM      5  C   UNL     1       7.029   4.435  15.062  0.00  0.00    +0.000 A 
ATOM      6  C   UNL     1       5.692   4.205  14.819  0.00  0.00    +0.000 A 
ATOM      7  C   UNL     1       4.735   4.833  15.616  0.00  0.00    +0.000 A 
ATOM      8  C   UNL     1       5.059   5.766  16.632  0.00  0.00    +0.000 A 
BRANCH   3  10
ATOM      9  C   UNL     1       7.861   5.969  19.009  0.00  0.00    +0.000 C 
ATOM     10  C   UNL     1       7.059   6.810  18.014  0.00  0.00    +0.000 C 
ATOM     11  C   UNL     1       7.828   8.048  17.556  0.00  0.00    +0.000 C 
ENDBRANCH   3  10
ENDBRANCH   1   8
BRANCH   1  12
ATOM     12  C   UNL     1       3.962   6.081  18.788  0.00  0.00    +0.000 C 
BRANCH  12  13
ATOM     13  C   UNL     1       3.216   4.786  19.175  0.00  0.00    +0.000 C 
ATOM     14  C   UNL     1       4.162   3.582  19.378  0.00  0.00    +0.000 C 
ATOM     15  C   UNL     1       3.371   2.349  19.857  0.00  0.00    +0.000 C 
ATOM     16  C   UNL     1       2.675   2.664  21.193  0.00  0.00    +0.000 C 
ATOM     17  C   UNL     1       1.706   3.840  21.013  0.00  0.00    +0.000 C 
ATOM     18  C   UNL     1       0.648   3.483  19.958  0.00  0.00    +0.000 C 
ATOM     19  C   UNL     1       1.336   3.172  18.617  0.00  0.00    +0.000 C 
ATOM     20  C   UNL     1       2.302   1.992  18.810  0.00  0.00    +0.000 C 
ATOM     21  C   UNL     1       2.128   4.404  18.140  0.00  0.00    +0.000 C 
ATOM     22  C   UNL     1       2.494   5.066  20.534  0.00  0.00    +0.000 C 
ENDBRANCH  12  13
ENDBRANCH   1  12
TORSDOF 4
ENDMDL
MODEL 5
REMARK VINA RESULT:      -8.0      1.255      3.369
REMARK  Name = 
REMARK  6 active torsions:
REMARK  status: ('A' for Active; 'I' for Inactive)
REMARK    1  A    between atoms: C_1  and  C_2
REMARK    2  A    between atoms: C_2  and  C_3
REMARK    3  A    between atoms: C_2  and  C_4
REMARK    4  A    between atoms: C_9  and  N_10
REMARK    5  A    between atoms: N_10  and  C_11
REMARK    6  A    between atoms: C_11  and  C_12
REMARK                            x       y       z     vdW  Elec       q    Type
REMARK                         _______ _______ _______ _____ _____    ______ ____
ROOT
ATOM      1  N   UNL     1       3.982   6.319  17.354  0.00  0.00    +0.000 N 
ATOM      2  H   UNL     1       3.088   6.104  16.924  0.00  0.00    +0.000 HD
ENDROOT
BRANCH   1   8
ATOM      3  C   UNL     1       6.416   5.909  16.907  0.00  0.00    +0.000 A 
ATOM      4  C   UNL     1       7.380   5.288  16.063  0.00  0.00    +0.000 A 
ATOM      5  C   UNL     1       7.031   4.466  15.000  0.00  0.00    +0.000 A 
ATOM      6  C   UNL     1       5.698   4.204  14.768  0.00  0.00    +0.000 A 
ATOM      7  C   UNL     1       4.734   4.790  15.586  0.00  0.00    +0.000 A 
ATOM      8  C   UNL     1       5.043   5.714  16.615  0.00  0.00    +0.000 A 
BRANCH   3  10
ATOM      9  C   UNL     1       7.821   5.946  18.995  0.00  0.00    +0.000 C 
ATOM     10  C   UNL     1       7.028   6.789  17.995  0.00  0.00    +0.000 C 
ATOM     11  C   UNL     1       7.801   8.028  17.548  0.00  0.00    +0.000 C 
ENDBRANCH   3  10
ENDBRANCH   1   8
BRANCH   1  12
ATOM     12  C   UNL     1       3.987   5.992  18.797  0.00  0.00    +0.000 C 
BRANCH  12  13
ATOM     13  C   UNL     1       3.128   4.786  19.236  0.00  0.00    +0.000 C 
ATOM     14  C   UNL     1       2.097   4.360  18.168  0.00  0.00    +0.000 C 
ATOM     15  C   UNL     1       1.340   3.096  18.623  0.00  0.00    +0.000 C 
ATOM     16  C   UNL     1       2.338   1.943  18.838  0.00  0.00    +0.000 C 
ATOM     17  C   UNL     1       3.358   2.330  19.917  0.00  0.00    +0.000 C 
ATOM     18  C   UNL     1       2.631   2.628  21.236  0.00  0.00    +0.000 C 
ATOM     19  C   UNL     1       1.636   3.785  21.030  0.00  0.00    +0.000 C 
ATOM     20  C   UNL     1       0.618   3.384  19.949  0.00  0.00    +0.000 C 
ATOM     21  C   UNL     1       2.391   5.046  20.574  0.00  0.00    +0.000 C 
ATOM     22  C   UNL     1       4.108   3.589  19.464  0.00  0.00    +0.000 C 
ENDBRANCH  12  13
ENDBRANCH   1  12
TORSDOF 4
ENDMDL
MODEL 6
REMARK VINA RESULT:      -8.0      1.194      3.139
REMARK  Name = 
REMARK  6 active torsions:
REMARK  status: ('A' for Active; 'I' for Inactive)
REMARK    1  A    between atoms: C_1  and  C_2
REMARK    2  A    between atoms: C_2  and  C_3
REMARK    3  A    between atoms: C_2  and  C_4
REMARK    4  A    between atoms: C_9  and  N_10
REMARK    5  A    between atoms: N_10  and  C_11
REMARK    6  A    between atoms: C_11  and  C_12
REMARK                            x       y       z     vdW  Elec       q    Type
REMARK                         _______ _______ _______ _____ _____    ______ ____
ROOT
ATOM      1  N   UNL     1       4.646   6.264  18.003  0.00  0.00    +0.000 N 
ATOM      2  H   UNL     1       4.806   7.266  18.041  0.00  0.00    +0.000 HD
ENDROOT
BRANCH   1   8
ATOM      3  C   UNL     1       6.823   5.705  16.889  0.00  0.00    +0.000 A 
ATOM      4  C   UNL     1       7.462   5.133  15.752  0.00  0.00    +0.000 A 
ATOM      5  C   UNL     1       6.760   4.519  14.723  0.00  0.00    +0.000 A 
ATOM      6  C   UNL     1       5.389   4.419  14.817  0.00  0.00    +0.000 A 
ATOM      7  C   UNL     1       4.738   4.960  15.925  0.00  0.00    +0.000 A 
ATOM      8  C   UNL     1       5.406   5.683  16.944  0.00  0.00    +0.000 A 
BRANCH   3  10
ATOM      9  C   UNL     1       7.730   7.873  17.789  0.00  0.00    +0.000 C 
ATOM     10  C   UNL     1       7.791   6.347  17.878  0.00  0.00    +0.000 C 
ATOM     11  C   UNL     1       7.754   5.854  19.324  0.00  0.00    +0.000 C 
ENDBRANCH   3  10
ENDBRANCH   1   8
BRANCH   1  12
ATOM     12  C   UNL     1       3.204   5.941  17.960  0.00  0.00    +0.000 C 
BRANCH  12  13
ATOM     13  C   UNL     1       2.741   4.724  18.790  0.00  0.00    +0.000 C 
ATOM     14  C   UNL     1       1.896   5.119  20.020  0.00  0.00    +0.000 C 
ATOM     15  C   UNL     1       1.384   3.861  20.750  0.00  0.00    +0.000 C 
ATOM     16  C   UNL     1       0.512   3.026  19.795  0.00  0.00    +0.000 C 
ATOM     17  C   UNL     1       1.337   2.595  18.575  0.00  0.00    +0.000 C 
ATOM     18  C   UNL     1       2.540   1.757  19.032  0.00  0.00    +0.000 C 
ATOM     19  C   UNL     1       3.421   2.588  19.983  0.00  0.00    +0.000 C 
ATOM     20  C   UNL     1       2.584   3.011  21.201  0.00  0.00    +0.000 C 
ATOM     21  C   UNL     1       3.930   3.846  19.255  0.00  0.00    +0.000 C 
ATOM     22  C   UNL     1       1.847   3.848  17.852  0.00  0.00    +0.000 C 
ENDBRANCH  12  13
ENDBRANCH   1  12
TORSDOF 4
ENDMDL
MODEL 7
REMARK VINA RESULT:      -7.8      1.205      3.013
REMARK  Name = 
REMARK  6 active torsions:
REMARK  status: ('A' for Active; 'I' for Inactive)
REMARK    1  A    between atoms: C_1  and  C_2
REMARK    2  A    between atoms: C_2  and  C_3
REMARK    3  A    between atoms: C_2  and  C_4
REMARK    4  A    between atoms: C_9  and  N_10
REMARK    5  A    between atoms: N_10  and  C_11
REMARK    6  A    between atoms: C_11  and  C_12
REMARK                            x       y       z     vdW  Elec       q    Type
REMARK                         _______ _______ _______ _____ _____    ______ ____
ROOT
ATOM      1  N   UNL     1       4.601   6.410  17.866  0.00  0.00    +0.000 N 
ATOM      2  H   UNL     1       4.717   7.416  17.797  0.00  0.00    +0.000 HD
ENDROOT
BRANCH   1   8
ATOM      3  C   UNL     1       6.798   5.649  16.924  0.00  0.00    +0.000 A 
ATOM      4  C   UNL     1       7.469   5.012  15.842  0.00  0.00    +0.000 A 
ATOM      5  C   UNL     1       6.796   4.452  14.764  0.00  0.00    +0.000 A 
ATOM      6  C   UNL     1       5.418   4.475  14.753  0.00  0.00    +0.000 A 
ATOM      7  C   UNL     1       4.735   5.082  15.805  0.00  0.00    +0.000 A 
ATOM      8  C   UNL     1       5.385   5.754  16.870  0.00  0.00    +0.000 A 
BRANCH   3  10
ATOM      9  C   UNL     1       7.800   7.740  17.904  0.00  0.00    +0.000 C 
ATOM     10  C   UNL     1       7.741   6.214  17.984  0.00  0.00    +0.000 C 
ATOM     11  C   UNL     1       7.568   5.719  19.418  0.00  0.00    +0.000 C 
ENDBRANCH   3  10
ENDBRANCH   1   8
BRANCH   1  12
ATOM     12  C   UNL     1       3.173   6.023  17.864  0.00  0.00    +0.000 C 
BRANCH  12  13
ATOM     13  C   UNL     1       2.812   4.706  18.585  0.00  0.00    +0.000 C 
ATOM     14  C   UNL     1       4.015   4.070  19.316  0.00  0.00    +0.000 C 
ATOM     15  C   UNL     1       3.571   2.815  20.094  0.00  0.00    +0.000 C 
ATOM     16  C   UNL     1       2.503   3.200  21.135  0.00  0.00    +0.000 C 
ATOM     17  C   UNL     1       1.284   3.809  20.431  0.00  0.00    +0.000 C 
ATOM     18  C   UNL     1       0.691   2.792  19.445  0.00  0.00    +0.000 C 
ATOM     19  C   UNL     1       1.751   2.407  18.397  0.00  0.00    +0.000 C 
ATOM     20  C   UNL     1       2.967   1.796  19.114  0.00  0.00    +0.000 C 
ATOM     21  C   UNL     1       2.197   3.660  17.622  0.00  0.00    +0.000 C 
ATOM     22  C   UNL     1       1.728   5.057  19.656  0.00  0.00    +0.000 C 
ENDBRANCH  12  13
ENDBRANCH   1  12
TORSDOF 4
ENDMDL
MODEL 8
REMARK VINA RESULT:      -7.2      3.741      5.860
REMARK  Name = 
REMARK  6 active torsions:
REMARK  status: ('A' for Active; 'I' for Inactive)
REMARK    1  A    between atoms: C_1  and  C_2
REMARK    2  A    between atoms: C_2  and  C_3
REMARK    3  A    between atoms: C_2  and  C_4
REMARK    4  A    between atoms: C_9  and  N_10
REMARK    5  A    between atoms: N_10  and  C_11
REMARK    6  A    between atoms: C_11  and  C_12
REMARK                            x       y       z     vdW  Elec       q    Type
REMARK                         _______ _______ _______ _____ _____    ______ ____
ROOT
ATOM      1  N   UNL     1       2.200   7.422  20.292  0.00  0.00    +0.000 N 
ATOM      2  H   UNL     1       1.689   6.867  20.971  0.00  0.00    +0.000 HD
ENDROOT
BRANCH   1   8
ATOM      3  C   UNL     1       0.610   9.313  20.729  0.00  0.00    +0.000 A 
ATOM      4  C   UNL     1      -0.179  10.355  20.164  0.00  0.00    +0.000 A 
ATOM      5  C   UNL     1      -0.168  10.658  18.809  0.00  0.00    +0.000 A 
ATOM      6  C   UNL     1       0.669   9.950  17.974  0.00  0.00    +0.000 A 
ATOM      7  C   UNL     1       1.462   8.932  18.502  0.00  0.00    +0.000 A 
ATOM      8  C   UNL     1       1.403   8.524  19.858  0.00  0.00    +0.000 A 
BRANCH   3  10
ATOM      9  C   UNL     1       1.740   9.336  22.978  0.00  0.00    +0.000 C 
ATOM     10  C   UNL     1       0.418   9.144  22.234  0.00  0.00    +0.000 C 
ATOM     11  C   UNL     1      -0.728   9.912  22.889  0.00  0.00    +0.000 C 
ENDBRANCH   3  10
ENDBRANCH   1   8
BRANCH   1  12
ATOM     12  C   UNL     1       2.731   6.589  19.191  0.00  0.00    +0.000 C 
BRANCH  12  13
ATOM     13  C   UNL     1       2.525   5.063  19.318  0.00  0.00    +0.000 C 
ATOM     14  C   UNL     1       3.826   4.307  19.666  0.00  0.00    +0.000 C 
ATOM     15  C   UNL     1       3.537   2.807  19.874  0.00  0.00    +0.000 C 
ATOM     16  C   UNL     1       2.533   2.626  21.027  0.00  0.00    +0.000 C 
ATOM     17  C   UNL     1       1.220   3.345  20.694  0.00  0.00    +0.000 C 
ATOM     18  C   UNL     1       0.624   2.765  19.403  0.00  0.00    +0.000 C 
ATOM     19  C   UNL     1       1.620   2.948  18.243  0.00  0.00    +0.000 C 
ATOM     20  C   UNL     1       2.931   2.222  18.589  0.00  0.00    +0.000 C 
ATOM     21  C   UNL     1       1.910   4.446  18.037  0.00  0.00    +0.000 C 
ATOM     22  C   UNL     1       1.508   4.837  20.485  0.00  0.00    +0.000 C 
ENDBRANCH  12  13
ENDBRANCH   1  12
TORSDOF 4
ENDMDL
MODEL 9
REMARK VINA RESULT:      -7.2      3.383      5.479
REMARK  Name = 
REMARK  6 active torsions:
REMARK  status: ('A' for Active; 'I' for Inactive)
REMARK    1  A    between atoms: C_1  and  C_2
REMARK    2  A    between atoms: C_2  and  C_3
REMARK    3  A    between atoms: C_2  and  C_4
REMARK    4  A    between atoms: C_9  and  N_10
REMARK    5  A    between atoms: N_10  and  C_11
REMARK    6  A    between atoms: C_11  and  C_12
REMARK                            x       y       z     vdW  Elec       q    Type
REMARK                         _______ _______ _______ _____ _____    ______ ____
ROOT
ATOM      1  N   UNL     1       2.219   6.850  20.693  0.00  0.00    +0.000 N 
ATOM      2  H   UNL     1       2.163   7.134  21.667  0.00  0.00    +0.000 HD
ENDROOT
BRANCH   1   8
ATOM      3  C   UNL     1       1.124   9.066  20.268  0.00  0.00    +0.000 A 
ATOM      4  C   UNL     1       0.802  10.066  19.307  0.00  0.00    +0.000 A 
ATOM      5  C   UNL     1       1.229  10.006  17.987  0.00  0.00    +0.000 A 
ATOM      6  C   UNL     1       2.031   8.958  17.591  0.00  0.00    +0.000 A 
ATOM      7  C   UNL     1       2.372   7.971  18.514  0.00  0.00    +0.000 A 
ATOM      8  C   UNL     1       1.874   7.941  19.841  0.00  0.00    +0.000 A 
BRANCH   3  10
ATOM      9  C   UNL     1       0.166  10.804  21.816  0.00  0.00    +0.000 C 
ATOM     10  C   UNL     1       0.527   9.327  21.648  0.00  0.00    +0.000 C 
ATOM     11  C   UNL     1      -0.595   8.403  22.118  0.00  0.00    +0.000 C 
ENDBRANCH   3  10
ENDBRANCH   1   8
BRANCH   1  12
ATOM     12  C   UNL     1       1.446   5.615  20.439  0.00  0.00    +0.000 C 
BRANCH  12  13
ATOM     13  C   UNL     1       2.151   4.514  19.616  0.00  0.00    +0.000 C 
ATOM     14  C   UNL     1       1.796   4.565  18.114  0.00  0.00    +0.000 C 
ATOM     15  C   UNL     1       2.603   3.509  17.333  0.00  0.00    +0.000 C 
ATOM     16  C   UNL     1       4.110   3.780  17.497  0.00  0.00    +0.000 C 
ATOM     17  C   UNL     1       4.495   3.708  18.980  0.00  0.00    +0.000 C 
ATOM     18  C   UNL     1       4.165   2.314  19.535  0.00  0.00    +0.000 C 
ATOM     19  C   UNL     1       2.658   2.038  19.380  0.00  0.00    +0.000 C 
ATOM     20  C   UNL     1       2.285   2.111  17.890  0.00  0.00    +0.000 C 
ATOM     21  C   UNL     1       1.852   3.094  20.158  0.00  0.00    +0.000 C 
ATOM     22  C   UNL     1       3.690   4.758  19.756  0.00  0.00    +0.000 C 
ENDBRANCH  12  13
ENDBRANCH   1  12
TORSDOF 4
ENDMDL
