MODEL 1
REMARK VINA RESULT:      -7.8      0.000      0.000
REMARK  Name = 
REMARK  6 active torsions:
REMARK  status: ('A' for Active; 'I' for Inactive)
REMARK    1  A    between atoms: C_1  and  C_2
REMARK    2  A    between atoms: C_7  and  C_8
REMARK    3  A    between atoms: C_10  and  C_11
REMARK    4  A    between atoms: C_17  and  N_18
REMARK    5  A    between atoms: N_19  and  C_20
REMARK    6  A    between atoms: C_32  and  C_33
REMARK                            x       y       z     vdW  Elec       q    Type
REMARK                         _______ _______ _______ _____ _____    ______ ____
ROOT
ATOM      1  C   UNL     1       4.661   3.993  17.960  0.00  0.00    +0.000 C 
ATOM      2  C   UNL     1       3.993   5.327  18.162  0.00  0.00    +0.000 A 
ATOM      3  C   UNL     1       3.134   5.500  19.266  0.00  0.00    +0.000 A 
ATOM      4  C   UNL     1       2.517   6.719  19.430  0.00  0.00    +0.000 A 
ATOM      5  N   UNL     1       1.687   7.166  20.472  0.00  0.00    +0.000 N 
ATOM      6  C   UNL     1       1.333   8.473  20.163  0.00  0.00    +0.000 A 
ATOM      7  C   UNL     1       0.480   9.314  20.769  0.00  0.00    +0.000 A 
ATOM      8  C   UNL     1       0.293  10.678  20.239  0.00  0.00    +0.000 A 
ATOM      9  C   UNL     1       0.954  11.094  19.123  0.00  0.00    +0.000 A 
ATOM     10  C   UNL     1       1.930  10.130  18.442  0.00  0.00    +0.000 A 
ATOM     11  O   UNL     1       2.592  10.471  17.461  0.00  0.00    +0.000 OA
ATOM     12  N   UNL     1       2.010   8.883  19.018  0.00  0.00    +0.000 N 
ATOM     13  C   UNL     1       2.771   7.784  18.548  0.00  0.00    +0.000 A 
ATOM     14  C   UNL     1       3.606   7.649  17.458  0.00  0.00    +0.000 A 
ATOM     15  C   UNL     1       4.228   6.404  17.256  0.00  0.00    +0.000 A 
ATOM     16  C   UNL     1       5.150   6.238  16.076  0.00  0.00    +0.000 C 
ATOM     17  H   UNL     1       1.121   6.559  21.037  0.00  0.00    +0.000 HD
ENDROOT
BRANCH   8  18
ATOM     18  C   UNL     1      -0.605  11.645  20.922  0.00  0.00    +0.000 A 
ATOM     19  C   UNL     1      -0.165  12.371  22.037  0.00  0.00    +0.000 A 
ATOM     20  C   UNL     1      -1.025  13.267  22.677  0.00  0.00    +0.000 A 
ATOM     21  C   UNL     1      -2.323  13.453  22.203  0.00  0.00    +0.000 A 
ATOM     22  C   UNL     1      -2.757  12.759  21.075  0.00  0.00    +0.000 A 
ATOM     23  C   UNL     1      -1.901  11.862  20.432  0.00  0.00    +0.000 A 
ENDBRANCH   8  18
BRANCH   7  24
ATOM     24  C   UNL     1      -0.229   8.882  21.932  0.00  0.00    +0.000 C 
ATOM     25  N   UNL     1      -0.807   8.489  22.856  0.00  0.00    +0.000 NA
ENDBRANCH   7  24
BRANCH   9  26
ATOM     26  N   UNL     1       0.834  12.370  18.590  0.00  0.00    +0.000 NA
ATOM     27  N   UNL     1       1.636  13.195  19.074  0.00  0.00    +0.000 NA
BRANCH  27  28
ATOM     28  C   UNL     1       1.452  14.537  18.689  0.00  0.00    +0.000 A 
ATOM     29  C   UNL     1       2.460  15.396  18.229  0.00  0.00    +0.000 A 
ATOM     30  C   UNL     1       2.187  16.748  17.984  0.00  0.00    +0.000 A 
ATOM     31  C   UNL     1       0.904  17.242  18.190  0.00  0.00    +0.000 A 
ATOM     32  F   UNL     1       0.657  18.544  17.999  0.00  0.00    +0.000 F 
ATOM     33  C   UNL     1      -0.122  16.404  18.601  0.00  0.00    +0.000 A 
ATOM     34  C   UNL     1       0.154  15.058  18.841  0.00  0.00    +0.000 A 
ENDBRANCH  27  28
ENDBRANCH   9  26
TORSDOF 4
ENDMDL
MODEL 2
REMARK VINA RESULT:      -7.7      0.273      1.215
REMARK  Name = 
REMARK  6 active torsions:
REMARK  status: ('A' for Active; 'I' for Inactive)
REMARK    1  A    between atoms: C_1  and  C_2
REMARK    2  A    between atoms: C_7  and  C_8
REMARK    3  A    between atoms: C_10  and  C_11
REMARK    4  A    between atoms: C_17  and  N_18
REMARK    5  A    between atoms: N_19  and  C_20
REMARK    6  A    between atoms: C_32  and  C_33
REMARK                            x       y       z     vdW  Elec       q    Type
REMARK                         _______ _______ _______ _____ _____    ______ ____
ROOT
ATOM      1  C   UNL     1       4.532   4.166  17.852  0.00  0.00    +0.000 C 
ATOM      2  C   UNL     1       3.876   5.502  18.080  0.00  0.00    +0.000 A 
ATOM      3  C   UNL     1       3.023   5.662  19.192  0.00  0.00    +0.000 A 
ATOM      4  C   UNL     1       2.417   6.883  19.380  0.00  0.00    +0.000 A 
ATOM      5  N   UNL     1       1.596   7.318  20.433  0.00  0.00    +0.000 N 
ATOM      6  C   UNL     1       1.252   8.634  20.149  0.00  0.00    +0.000 A 
ATOM      7  C   UNL     1       0.408   9.471  20.773  0.00  0.00    +0.000 A 
ATOM      8  C   UNL     1       0.230  10.845  20.269  0.00  0.00    +0.000 A 
ATOM      9  C   UNL     1       0.889  11.275  19.157  0.00  0.00    +0.000 A 
ATOM     10  C   UNL     1       1.854  10.316  18.455  0.00  0.00    +0.000 A 
ATOM     11  O   UNL     1       2.514  10.669  17.477  0.00  0.00    +0.000 OA
ATOM     12  N   UNL     1       1.926   9.058  19.008  0.00  0.00    +0.000 N 
ATOM     13  C   UNL     1       2.676   7.961  18.515  0.00  0.00    +0.000 A 
ATOM     14  C   UNL     1       3.504   7.839  17.419  0.00  0.00    +0.000 A 
ATOM     15  C   UNL     1       4.116   6.593  17.192  0.00  0.00    +0.000 A 
ATOM     16  C   UNL     1       5.031   6.440  16.005  0.00  0.00    +0.000 C 
ATOM     17  H   UNL     1       1.028   6.706  20.990  0.00  0.00    +0.000 HD
ENDROOT
BRANCH   8  18
ATOM     18  C   UNL     1      -0.657  11.807  20.973  0.00  0.00    +0.000 A 
ATOM     19  C   UNL     1      -1.951  12.071  20.502  0.00  0.00    +0.000 A 
ATOM     20  C   UNL     1      -2.768  12.989  21.168  0.00  0.00    +0.000 A 
ATOM     21  C   UNL     1      -2.305  13.640  22.311  0.00  0.00    +0.000 A 
ATOM     22  C   UNL     1      -1.032  13.358  22.803  0.00  0.00    +0.000 A 
ATOM     23  C   UNL     1      -0.212  12.442  22.141  0.00  0.00    +0.000 A 
ENDBRANCH   8  18
BRANCH   7  24
ATOM     24  C   UNL     1      -0.299   9.024  21.933  0.00  0.00    +0.000 C 
ATOM     25  N   UNL     1      -0.831   8.653  22.894  0.00  0.00    +0.000 NA
ENDBRANCH   7  24
BRANCH   9  26
ATOM     26  N   UNL     1       0.777  12.561  18.648  0.00  0.00    +0.000 NA
ATOM     27  N   UNL     1       1.559  13.380  19.172  0.00  0.00    +0.000 NA
BRANCH  27  28
ATOM     28  C   UNL     1       1.378  14.730  18.810  0.00  0.00    +0.000 A 
ATOM     29  C   UNL     1       0.161  15.425  18.849  0.00  0.00    +0.000 A 
ATOM     30  C   UNL     1       0.073  16.733  18.356  0.00  0.00    +0.000 A 
ATOM     31  C   UNL     1       1.203  17.353  17.832  0.00  0.00    +0.000 A 
ATOM     32  F   UNL     1       1.105  18.586  17.320  0.00  0.00    +0.000 F 
ATOM     33  C   UNL     1       2.429  16.704  17.825  0.00  0.00    +0.000 A 
ATOM     34  C   UNL     1       2.512  15.401  18.319  0.00  0.00    +0.000 A 
ENDBRANCH  27  28
ENDBRANCH   9  26
TORSDOF 4
ENDMDL
MODEL 3
REMARK VINA RESULT:      -7.2      0.964      1.344
REMARK  Name = 
REMARK  6 active torsions:
REMARK  status: ('A' for Active; 'I' for Inactive)
REMARK    1  A    between atoms: C_1  and  C_2
REMARK    2  A    between atoms: C_7  and  C_8
REMARK    3  A    between atoms: C_10  and  C_11
REMARK    4  A    between atoms: C_17  and  N_18
REMARK    5  A    between atoms: N_19  and  C_20
REMARK    6  A    between atoms: C_32  and  C_33
REMARK                            x       y       z     vdW  Elec       q    Type
REMARK                         _______ _______ _______ _____ _____    ______ ____
ROOT
ATOM      1  C   UNL     1       3.406   3.642  19.122  0.00  0.00    +0.000 C 
ATOM      2  C   UNL     1       3.001   5.093  19.126  0.00  0.00    +0.000 A 
ATOM      3  C   UNL     1       2.216   5.579  20.190  0.00  0.00    +0.000 A 
ATOM      4  C   UNL     1       1.840   6.903  20.173  0.00  0.00    +0.000 A 
ATOM      5  N   UNL     1       1.133   7.642  21.137  0.00  0.00    +0.000 N 
ATOM      6  C   UNL     1       1.021   8.935  20.640  0.00  0.00    +0.000 A 
ATOM      7  C   UNL     1       0.353   9.998  21.115  0.00  0.00    +0.000 A 
ATOM      8  C   UNL     1       0.410  11.283  20.392  0.00  0.00    +0.000 A 
ATOM      9  C   UNL     1       1.110  11.404  19.230  0.00  0.00    +0.000 A 
ATOM     10  C   UNL     1       1.874  10.188  18.700  0.00  0.00    +0.000 A 
ATOM     11  O   UNL     1       2.564  10.254  17.682  0.00  0.00    +0.000 OA
ATOM     12  N   UNL     1       1.735   9.042  19.450  0.00  0.00    +0.000 N 
ATOM     13  C   UNL     1       2.267   7.765  19.147  0.00  0.00    +0.000 A 
ATOM     14  C   UNL     1       3.036   7.321  18.091  0.00  0.00    +0.000 A 
ATOM     15  C   UNL     1       3.412   5.966  18.074  0.00  0.00    +0.000 A 
ATOM     16  C   UNL     1       4.258   5.464  16.933  0.00  0.00    +0.000 C 
ATOM     17  H   UNL     1       0.478   7.239  21.782  0.00  0.00    +0.000 HD
ENDROOT
BRANCH   8  18
ATOM     18  C   UNL     1      -0.276  12.489  20.925  0.00  0.00    +0.000 A 
ATOM     19  C   UNL     1      -1.611  12.762  20.595  0.00  0.00    +0.000 A 
ATOM     20  C   UNL     1      -2.238  13.907  21.092  0.00  0.00    +0.000 A 
ATOM     21  C   UNL     1      -1.544  14.779  21.930  0.00  0.00    +0.000 A 
ATOM     22  C   UNL     1      -0.227  14.497  22.289  0.00  0.00    +0.000 A 
ATOM     23  C   UNL     1       0.405  13.354  21.793  0.00  0.00    +0.000 A 
ENDBRANCH   8  18
BRANCH   7  24
ATOM     24  C   UNL     1      -0.396   9.877  22.326  0.00  0.00    +0.000 C 
ATOM     25  N   UNL     1      -1.035   9.752  23.285  0.00  0.00    +0.000 NA
ENDBRANCH   7  24
BRANCH   9  26
ATOM     26  N   UNL     1       1.217  12.590  18.518  0.00  0.00    +0.000 NA
ATOM     27  N   UNL     1       1.999  13.416  19.030  0.00  0.00    +0.000 NA
BRANCH  27  28
ATOM     28  C   UNL     1       2.023  14.696  18.441  0.00  0.00    +0.000 A 
ATOM     29  C   UNL     1       3.120  15.264  17.779  0.00  0.00    +0.000 A 
ATOM     30  C   UNL     1       3.072  16.591  17.332  0.00  0.00    +0.000 A 
ATOM     31  C   UNL     1       1.924  17.349  17.537  0.00  0.00    +0.000 A 
ATOM     32  F   UNL     1       1.898  18.630  17.149  0.00  0.00    +0.000 F 
ATOM     33  C   UNL     1       0.809  16.796  18.148  0.00  0.00    +0.000 A 
ATOM     34  C   UNL     1       0.860  15.473  18.589  0.00  0.00    +0.000 A 
ENDBRANCH  27  28
ENDBRANCH   9  26
TORSDOF 4
ENDMDL
MODEL 4
REMARK VINA RESULT:      -6.9      3.827      9.224
REMARK  Name = 
REMARK  6 active torsions:
REMARK  status: ('A' for Active; 'I' for Inactive)
REMARK    1  A    between atoms: C_1  and  C_2
REMARK    2  A    between atoms: C_7  and  C_8
REMARK    3  A    between atoms: C_10  and  C_11
REMARK    4  A    between atoms: C_17  and  N_18
REMARK    5  A    between atoms: N_19  and  C_20
REMARK    6  A    between atoms: C_32  and  C_33
REMARK                            x       y       z     vdW  Elec       q    Type
REMARK                         _______ _______ _______ _____ _____    ______ ____
ROOT
ATOM      1  C   UNL     1      -0.346  11.995  21.868  0.00  0.00    +0.000 C 
ATOM      2  C   UNL     1       0.306  10.847  21.144  0.00  0.00    +0.000 A 
ATOM      3  C   UNL     1       0.358   9.586  21.772  0.00  0.00    +0.000 A 
ATOM      4  C   UNL     1       0.972   8.549  21.106  0.00  0.00    +0.000 A 
ATOM      5  N   UNL     1       1.088   7.199  21.474  0.00  0.00    +0.000 N 
ATOM      6  C   UNL     1       1.792   6.570  20.453  0.00  0.00    +0.000 A 
ATOM      7  C   UNL     1       2.258   5.315  20.358  0.00  0.00    +0.000 A 
ATOM      8  C   UNL     1       2.972   4.888  19.139  0.00  0.00    +0.000 A 
ATOM      9  C   UNL     1       3.191   5.757  18.114  0.00  0.00    +0.000 A 
ATOM     10  C   UNL     1       2.650   7.184  18.228  0.00  0.00    +0.000 A 
ATOM     11  O   UNL     1       2.775   7.996  17.311  0.00  0.00    +0.000 OA
ATOM     12  N   UNL     1       2.015   7.471  19.415  0.00  0.00    +0.000 N 
ATOM     13  C   UNL     1       1.492   8.726  19.812  0.00  0.00    +0.000 A 
ATOM     14  C   UNL     1       1.458   9.947  19.169  0.00  0.00    +0.000 A 
ATOM     15  C   UNL     1       0.858  11.028  19.840  0.00  0.00    +0.000 A 
ATOM     16  C   UNL     1       0.803  12.367  19.152  0.00  0.00    +0.000 C 
ATOM     17  H   UNL     1       1.085   6.874  22.424  0.00  0.00    +0.000 HD
ENDROOT
BRANCH   8  18
ATOM     18  C   UNL     1       3.451   3.490  18.987  0.00  0.00    +0.000 A 
ATOM     19  C   UNL     1       4.447   2.974  19.828  0.00  0.00    +0.000 A 
ATOM     20  C   UNL     1       4.897   1.662  19.663  0.00  0.00    +0.000 A 
ATOM     21  C   UNL     1       4.350   0.852  18.669  0.00  0.00    +0.000 A 
ATOM     22  C   UNL     1       3.336   1.347  17.850  0.00  0.00    +0.000 A 
ATOM     23  C   UNL     1       2.884   2.659  18.010  0.00  0.00    +0.000 A 
ENDBRANCH   8  18
BRANCH   7  24
ATOM     24  C   UNL     1       2.045   4.400  21.435  0.00  0.00    +0.000 C 
ATOM     25  N   UNL     1       1.909   3.632  22.293  0.00  0.00    +0.000 NA
ENDBRANCH   7  24
BRANCH   9  26
ATOM     26  N   UNL     1       3.837   5.408  16.937  0.00  0.00    +0.000 NA
ATOM     27  N   UNL     1       5.054   5.175  17.080  0.00  0.00    +0.000 NA
BRANCH  27  28
ATOM     28  C   UNL     1       5.792   4.974  15.896  0.00  0.00    +0.000 A 
ATOM     29  C   UNL     1       7.028   5.565  15.600  0.00  0.00    +0.000 A 
ATOM     30  C   UNL     1       7.618   5.386  14.342  0.00  0.00    +0.000 A 
ATOM     31  C   UNL     1       6.979   4.609  13.382  0.00  0.00    +0.000 A 
ATOM     32  F   UNL     1       7.524   4.477  12.166  0.00  0.00    +0.000 F 
ATOM     33  C   UNL     1       5.778   3.975  13.666  0.00  0.00    +0.000 A 
ATOM     34  C   UNL     1       5.195   4.155  14.921  0.00  0.00    +0.000 A 
ENDBRANCH  27  28
ENDBRANCH   9  26
TORSDOF 4
ENDMDL
MODEL 5
REMARK VINA RESULT:      -6.8      1.228      1.725
REMARK  Name = 
REMARK  6 active torsions:
REMARK  status: ('A' for Active; 'I' for Inactive)
REMARK    1  A    between atoms: C_1  and  C_2
REMARK    2  A    between atoms: C_7  and  C_8
REMARK    3  A    between atoms: C_10  and  C_11
REMARK    4  A    between atoms: C_17  and  N_18
REMARK    5  A    between atoms: N_19  and  C_20
REMARK    6  A    between atoms: C_32  and  C_33
REMARK                            x       y       z     vdW  Elec       q    Type
REMARK                         _______ _______ _______ _____ _____    ______ ____
ROOT
ATOM      1  C   UNL     1       2.918   4.023  19.593  0.00  0.00    +0.000 C 
ATOM      2  C   UNL     1       2.549   5.483  19.556  0.00  0.00    +0.000 A 
ATOM      3  C   UNL     1       1.787   6.021  20.612  0.00  0.00    +0.000 A 
ATOM      4  C   UNL     1       1.443   7.353  20.558  0.00  0.00    +0.000 A 
ATOM      5  N   UNL     1       0.764   8.138  21.505  0.00  0.00    +0.000 N 
ATOM      6  C   UNL     1       0.678   9.417  20.969  0.00  0.00    +0.000 A 
ATOM      7  C   UNL     1       0.042  10.511  21.417  0.00  0.00    +0.000 A 
ATOM      8  C   UNL     1       0.122  11.771  20.654  0.00  0.00    +0.000 A 
ATOM      9  C   UNL     1       0.813  11.839  19.482  0.00  0.00    +0.000 A 
ATOM     10  C   UNL     1       1.542  10.588  18.983  0.00  0.00    +0.000 A 
ATOM     11  O   UNL     1       2.222  10.607  17.957  0.00  0.00    +0.000 OA
ATOM     12  N   UNL     1       1.382   9.471  19.770  0.00  0.00    +0.000 N 
ATOM     13  C   UNL     1       1.880   8.172  19.501  0.00  0.00    +0.000 A 
ATOM     14  C   UNL     1       2.627   7.677  18.452  0.00  0.00    +0.000 A 
ATOM     15  C   UNL     1       2.969   6.313  18.473  0.00  0.00    +0.000 A 
ATOM     16  C   UNL     1       3.791   5.755  17.341  0.00  0.00    +0.000 C 
ATOM     17  H   UNL     1       0.106   7.771  22.168  0.00  0.00    +0.000 HD
ENDROOT
BRANCH   8  18
ATOM     18  C   UNL     1      -0.528  13.009  21.156  0.00  0.00    +0.000 A 
ATOM     19  C   UNL     1       0.118  13.837  22.084  0.00  0.00    +0.000 A 
ATOM     20  C   UNL     1      -0.513  14.990  22.557  0.00  0.00    +0.000 A 
ATOM     21  C   UNL     1      -1.785  15.332  22.099  0.00  0.00    +0.000 A 
ATOM     22  C   UNL     1      -2.420  14.532  21.151  0.00  0.00    +0.000 A 
ATOM     23  C   UNL     1      -1.794  13.377  20.677  0.00  0.00    +0.000 A 
ENDBRANCH   8  18
BRANCH   7  24
ATOM     24  C   UNL     1      -0.697  10.446  22.639  0.00  0.00    +0.000 C 
ATOM     25  N   UNL     1      -1.257  10.380  23.652  0.00  0.00    +0.000 NA
ENDBRANCH   7  24
BRANCH   9  26
ATOM     26  N   UNL     1       0.941  12.999  18.733  0.00  0.00    +0.000 NA
ATOM     27  N   UNL     1       1.748  13.822  19.212  0.00  0.00    +0.000 NA
BRANCH  27  28
ATOM     28  C   UNL     1       1.797  15.082  18.583  0.00  0.00    +0.000 A 
ATOM     29  C   UNL     1       0.784  16.051  18.626  0.00  0.00    +0.000 A 
ATOM     30  C   UNL     1       0.890  17.224  17.867  0.00  0.00    +0.000 A 
ATOM     31  C   UNL     1       2.011  17.435  17.072  0.00  0.00    +0.000 A 
ATOM     32  F   UNL     1       2.088  18.535  16.313  0.00  0.00    +0.000 F 
ATOM     33  C   UNL     1       3.048  16.514  17.048  0.00  0.00    +0.000 A 
ATOM     34  C   UNL     1       2.940  15.348  17.807  0.00  0.00    +0.000 A 
ENDBRANCH  27  28
ENDBRANCH   9  26
TORSDOF 4
ENDMDL
MODEL 6
REMARK VINA RESULT:      -6.8      2.600      4.785
REMARK  Name = 
REMARK  6 active torsions:
REMARK  status: ('A' for Active; 'I' for Inactive)
REMARK    1  A    between atoms: C_1  and  C_2
REMARK    2  A    between atoms: C_7  and  C_8
REMARK    3  A    between atoms: C_10  and  C_11
REMARK    4  A    between atoms: C_17  and  N_18
REMARK    5  A    between atoms: N_19  and  C_20
REMARK    6  A    between atoms: C_32  and  C_33
REMARK                            x       y       z     vdW  Elec       q    Type
REMARK                         _______ _______ _______ _____ _____    ______ ____
ROOT
ATOM      1  C   UNL     1       3.091   3.623  18.564  0.00  0.00    +0.000 C 
ATOM      2  C   UNL     1       2.598   4.952  19.074  0.00  0.00    +0.000 A 
ATOM      3  C   UNL     1       2.828   6.108  18.301  0.00  0.00    +0.000 A 
ATOM      4  C   UNL     1       2.386   7.317  18.786  0.00  0.00    +0.000 A 
ATOM      5  N   UNL     1       2.423   8.587  18.185  0.00  0.00    +0.000 N 
ATOM      6  C   UNL     1       1.844   9.469  19.089  0.00  0.00    +0.000 A 
ATOM      7  C   UNL     1       1.725  10.806  19.051  0.00  0.00    +0.000 A 
ATOM      8  C   UNL     1       1.041  11.513  20.150  0.00  0.00    +0.000 A 
ATOM      9  C   UNL     1       0.548  10.834  21.222  0.00  0.00    +0.000 A 
ATOM     10  C   UNL     1       0.682   9.309  21.254  0.00  0.00    +0.000 A 
ATOM     11  O   UNL     1       0.210   8.640  22.174  0.00  0.00    +0.000 OA
ATOM     12  N   UNL     1       1.350   8.763  20.182  0.00  0.00    +0.000 N 
ATOM     13  C   UNL     1       1.679   7.397  19.999  0.00  0.00    +0.000 A 
ATOM     14  C   UNL     1       1.437   6.286  20.779  0.00  0.00    +0.000 A 
ATOM     15  C   UNL     1       1.901   5.041  20.316  0.00  0.00    +0.000 A 
ATOM     16  C   UNL     1       1.639   3.814  21.150  0.00  0.00    +0.000 C 
ATOM     17  H   UNL     1       3.104   8.863  17.501  0.00  0.00    +0.000 HD
ENDROOT
BRANCH   8  18
ATOM     18  C   UNL     1       0.850  12.986  20.106  0.00  0.00    +0.000 A 
ATOM     19  C   UNL     1       1.725  13.846  20.784  0.00  0.00    +0.000 A 
ATOM     20  C   UNL     1       1.524  15.228  20.745  0.00  0.00    +0.000 A 
ATOM     21  C   UNL     1       0.458  15.762  20.021  0.00  0.00    +0.000 A 
ATOM     22  C   UNL     1      -0.397  14.915  19.318  0.00  0.00    +0.000 A 
ATOM     23  C   UNL     1      -0.201  13.533  19.355  0.00  0.00    +0.000 A 
ENDBRANCH   8  18
BRANCH   7  24
ATOM     24  C   UNL     1       2.252  11.529  17.936  0.00  0.00    +0.000 C 
ATOM     25  N   UNL     1       2.703  12.143  17.062  0.00  0.00    +0.000 NA
ENDBRANCH   7  24
BRANCH   9  26
ATOM     26  N   UNL     1      -0.121  11.442  22.274  0.00  0.00    +0.000 NA
ATOM     27  N   UNL     1      -1.285  11.794  21.994  0.00  0.00    +0.000 NA
BRANCH  27  28
ATOM     28  C   UNL     1      -1.954  12.559  22.970  0.00  0.00    +0.000 A 
ATOM     29  C   UNL     1      -3.216  12.267  23.507  0.00  0.00    +0.000 A 
ATOM     30  C   UNL     1      -3.838  13.161  24.388  0.00  0.00    +0.000 A 
ATOM     31  C   UNL     1      -3.198  14.343  24.741  0.00  0.00    +0.000 A 
ATOM     32  F   UNL     1      -3.814  15.216  25.547  0.00  0.00    +0.000 F 
ATOM     33  C   UNL     1      -1.929  14.634  24.261  0.00  0.00    +0.000 A 
ATOM     34  C   UNL     1      -1.312  13.740  23.385  0.00  0.00    +0.000 A 
ENDBRANCH  27  28
ENDBRANCH   9  26
TORSDOF 4
ENDMDL
MODEL 7
REMARK VINA RESULT:      -6.2      2.719      4.894
REMARK  Name = 
REMARK  6 active torsions:
REMARK  status: ('A' for Active; 'I' for Inactive)
REMARK    1  A    between atoms: C_1  and  C_2
REMARK    2  A    between atoms: C_7  and  C_8
REMARK    3  A    between atoms: C_10  and  C_11
REMARK    4  A    between atoms: C_17  and  N_18
REMARK    5  A    between atoms: N_19  and  C_20
REMARK    6  A    between atoms: C_32  and  C_33
REMARK                            x       y       z     vdW  Elec       q    Type
REMARK                         _______ _______ _______ _____ _____    ______ ____
ROOT
ATOM      1  C   UNL     1       3.405   4.178  18.527  0.00  0.00    +0.000 C 
ATOM      2  C   UNL     1       2.736   5.440  19.004  0.00  0.00    +0.000 A 
ATOM      3  C   UNL     1       3.062   6.663  18.383  0.00  0.00    +0.000 A 
ATOM      4  C   UNL     1       2.455   7.810  18.841  0.00  0.00    +0.000 A 
ATOM      5  N   UNL     1       2.549   9.124  18.351  0.00  0.00    +0.000 N 
ATOM      6  C   UNL     1       1.735   9.906  19.162  0.00  0.00    +0.000 A 
ATOM      7  C   UNL     1       1.550  11.236  19.191  0.00  0.00    +0.000 A 
ATOM      8  C   UNL     1       0.603  11.824  20.156  0.00  0.00    +0.000 A 
ATOM      9  C   UNL     1      -0.072  11.041  21.043  0.00  0.00    +0.000 A 
ATOM     10  C   UNL     1       0.140   9.526  20.998  0.00  0.00    +0.000 A 
ATOM     11  O   UNL     1      -0.483   8.767  21.742  0.00  0.00    +0.000 OA
ATOM     12  N   UNL     1       1.057   9.095  20.067  0.00  0.00    +0.000 N 
ATOM     13  C   UNL     1       1.496   7.763  19.869  0.00  0.00    +0.000 A 
ATOM     14  C   UNL     1       1.154   6.584  20.497  0.00  0.00    +0.000 A 
ATOM     15  C   UNL     1       1.780   5.401  20.064  0.00  0.00    +0.000 A 
ATOM     16  C   UNL     1       1.414   4.101  20.732  0.00  0.00    +0.000 C 
ATOM     17  H   UNL     1       3.345   9.482  17.857  0.00  0.00    +0.000 HD
ENDROOT
BRANCH   8  18
ATOM     18  C   UNL     1       0.341  13.287  20.173  0.00  0.00    +0.000 A 
ATOM     19  C   UNL     1       0.962  14.119  21.114  0.00  0.00    +0.000 A 
ATOM     20  C   UNL     1       0.695  15.490  21.126  0.00  0.00    +0.000 A 
ATOM     21  C   UNL     1      -0.183  16.042  20.193  0.00  0.00    +0.000 A 
ATOM     22  C   UNL     1      -0.780  15.226  19.233  0.00  0.00    +0.000 A 
ATOM     23  C   UNL     1      -0.516  13.854  19.219  0.00  0.00    +0.000 A 
ENDBRANCH   8  18
BRANCH   7  24
ATOM     24  C   UNL     1       2.265  12.067  18.274  0.00  0.00    +0.000 C 
ATOM     25  N   UNL     1       2.878  12.748  17.564  0.00  0.00    +0.000 NA
ENDBRANCH   7  24
BRANCH   9  26
ATOM     26  N   UNL     1      -0.990  11.535  21.959  0.00  0.00    +0.000 NA
ATOM     27  N   UNL     1      -2.091  11.838  21.456  0.00  0.00    +0.000 NA
BRANCH  27  28
ATOM     28  C   UNL     1      -3.003  12.494  22.306  0.00  0.00    +0.000 A 
ATOM     29  C   UNL     1      -3.178  12.225  23.671  0.00  0.00    +0.000 A 
ATOM     30  C   UNL     1      -4.196  12.858  24.396  0.00  0.00    +0.000 A 
ATOM     31  C   UNL     1      -5.035  13.767  23.761  0.00  0.00    +0.000 A 
ATOM     32  F   UNL     1      -6.035  14.336  24.445  0.00  0.00    +0.000 F 
ATOM     33  C   UNL     1      -4.853  14.086  22.423  0.00  0.00    +0.000 A 
ATOM     34  C   UNL     1      -3.836  13.454  21.706  0.00  0.00    +0.000 A 
ENDBRANCH  27  28
ENDBRANCH   9  26
TORSDOF 4
ENDMDL
MODEL 8
REMARK VINA RESULT:      -6.2      3.898      9.310
REMARK  Name = 
REMARK  6 active torsions:
REMARK  status: ('A' for Active; 'I' for Inactive)
REMARK    1  A    between atoms: C_1  and  C_2
REMARK    2  A    between atoms: C_7  and  C_8
REMARK    3  A    between atoms: C_10  and  C_11
REMARK    4  A    between atoms: C_17  and  N_18
REMARK    5  A    between atoms: N_19  and  C_20
REMARK    6  A    between atoms: C_32  and  C_33
REMARK                            x       y       z     vdW  Elec       q    Type
REMARK                         _______ _______ _______ _____ _____    ______ ____
ROOT
ATOM      1  C   UNL     1       0.243  12.403  21.176  0.00  0.00    +0.000 C 
ATOM      2  C   UNL     1       0.796  11.158  20.533  0.00  0.00    +0.000 A 
ATOM      3  C   UNL     1       0.810   9.958  21.272  0.00  0.00    +0.000 A 
ATOM      4  C   UNL     1       1.333   8.831  20.677  0.00  0.00    +0.000 A 
ATOM      5  N   UNL     1       1.394   7.514  21.163  0.00  0.00    +0.000 N 
ATOM      6  C   UNL     1       2.011   6.757  20.174  0.00  0.00    +0.000 A 
ATOM      7  C   UNL     1       2.404   5.473  20.174  0.00  0.00    +0.000 A 
ATOM      8  C   UNL     1       3.033   4.898  18.970  0.00  0.00    +0.000 A 
ATOM      9  C   UNL     1       3.248   5.658  17.860  0.00  0.00    +0.000 A 
ATOM     10  C   UNL     1       2.791   7.119  17.867  0.00  0.00    +0.000 A 
ATOM     11  O   UNL     1       2.914   7.836  16.874  0.00  0.00    +0.000 OA
ATOM     12  N   UNL     1       2.232   7.546  19.049  0.00  0.00    +0.000 N 
ATOM     13  C   UNL     1       1.798   8.861  19.351  0.00  0.00    +0.000 A 
ATOM     14  C   UNL     1       1.798  10.019  18.601  0.00  0.00    +0.000 A 
ATOM     15  C   UNL     1       1.291  11.189  19.195  0.00  0.00    +0.000 A 
ATOM     16  C   UNL     1       1.275  12.462  18.390  0.00  0.00    +0.000 C 
ATOM     17  H   UNL     1       1.420   7.277  22.138  0.00  0.00    +0.000 HD
ENDROOT
BRANCH   8  18
ATOM     18  C   UNL     1       3.427   3.466  18.926  0.00  0.00    +0.000 A 
ATOM     19  C   UNL     1       2.786   2.569  18.061  0.00  0.00    +0.000 A 
ATOM     20  C   UNL     1       3.159   1.223  18.040  0.00  0.00    +0.000 A 
ATOM     21  C   UNL     1       4.180   0.765  18.873  0.00  0.00    +0.000 A 
ATOM     22  C   UNL     1       4.844   1.658  19.712  0.00  0.00    +0.000 A 
ATOM     23  C   UNL     1       4.474   3.004  19.737  0.00  0.00    +0.000 A 
ENDBRANCH   8  18
BRANCH   7  24
ATOM     24  C   UNL     1       2.195   4.672  21.340  0.00  0.00    +0.000 C 
ATOM     25  N   UNL     1       2.047   3.987  22.262  0.00  0.00    +0.000 NA
ENDBRANCH   7  24
BRANCH   9  26
ATOM     26  N   UNL     1       3.815   5.167  16.693  0.00  0.00    +0.000 NA
ATOM     27  N   UNL     1       5.021   5.460  16.557  0.00  0.00    +0.000 NA
BRANCH  27  28
ATOM     28  C   UNL     1       5.604   5.127  15.318  0.00  0.00    +0.000 A 
ATOM     29  C   UNL     1       5.034   4.287  14.351  0.00  0.00    +0.000 A 
ATOM     30  C   UNL     1       5.755   3.932  13.204  0.00  0.00    +0.000 A 
ATOM     31  C   UNL     1       7.042   4.423  13.015  0.00  0.00    +0.000 A 
ATOM     32  F   UNL     1       7.745   4.046  11.940  0.00  0.00    +0.000 F 
ATOM     33  C   UNL     1       7.611   5.293  13.934  0.00  0.00    +0.000 A 
ATOM     34  C   UNL     1       6.888   5.646  15.075  0.00  0.00    +0.000 A 
ENDBRANCH  27  28
ENDBRANCH   9  26
TORSDOF 4
ENDMDL
MODEL 9
REMARK VINA RESULT:      -5.9      3.522      8.726
REMARK  Name = 
REMARK  6 active torsions:
REMARK  status: ('A' for Active; 'I' for Inactive)
REMARK    1  A    between atoms: C_1  and  C_2
REMARK    2  A    between atoms: C_7  and  C_8
REMARK    3  A    between atoms: C_10  and  C_11
REMARK    4  A    between atoms: C_17  and  N_18
REMARK    5  A    between atoms: N_19  and  C_20
REMARK    6  A    between atoms: C_32  and  C_33
REMARK                            x       y       z     vdW  Elec       q    Type
REMARK                         _______ _______ _______ _____ _____    ______ ____
ROOT
ATOM      1  C   UNL     1      -7.718  14.652  21.188  0.00  0.00    +0.000 C 
ATOM      2  C   UNL     1      -6.274  14.275  20.984  0.00  0.00    +0.000 A 
ATOM      3  C   UNL     1      -5.312  15.299  20.868  0.00  0.00    +0.000 A 
ATOM      4  C   UNL     1      -3.998  14.941  20.665  0.00  0.00    +0.000 A 
ATOM      5  N   UNL     1      -2.854  15.753  20.593  0.00  0.00    +0.000 N 
ATOM      6  C   UNL     1      -1.777  14.900  20.383  0.00  0.00    +0.000 A 
ATOM      7  C   UNL     1      -0.484  15.169  20.140  0.00  0.00    +0.000 A 
ATOM      8  C   UNL     1       0.475  14.062  19.966  0.00  0.00    +0.000 A 
ATOM      9  C   UNL     1       0.066  12.764  20.022  0.00  0.00    +0.000 A 
ATOM     10  C   UNL     1      -1.408  12.467  20.306  0.00  0.00    +0.000 A 
ATOM     11  O   UNL     1      -1.822  11.313  20.417  0.00  0.00    +0.000 OA
ATOM     12  N   UNL     1      -2.209  13.578  20.435  0.00  0.00    +0.000 N 
ATOM     13  C   UNL     1      -3.614  13.589  20.622  0.00  0.00    +0.000 A 
ATOM     14  C   UNL     1      -4.530  12.563  20.733  0.00  0.00    +0.000 A 
ATOM     15  C   UNL     1      -5.882  12.905  20.915  0.00  0.00    +0.000 A 
ATOM     16  C   UNL     1      -6.897  11.799  21.046  0.00  0.00    +0.000 C 
ATOM     17  H   UNL     1      -2.865  16.712  20.297  0.00  0.00    +0.000 HD
ENDROOT
BRANCH   8  18
ATOM     18  C   UNL     1       1.920  14.332  19.750  0.00  0.00    +0.000 A 
ATOM     19  C   UNL     1       2.436  14.498  18.457  0.00  0.00    +0.000 A 
ATOM     20  C   UNL     1       3.799  14.738  18.268  0.00  0.00    +0.000 A 
ATOM     21  C   UNL     1       4.654  14.826  19.366  0.00  0.00    +0.000 A 
ATOM     22  C   UNL     1       4.143  14.695  20.657  0.00  0.00    +0.000 A 
ATOM     23  C   UNL     1       2.781  14.454  20.850  0.00  0.00    +0.000 A 
ENDBRANCH   8  18
BRANCH   7  24
ATOM     24  C   UNL     1      -0.048  16.528  20.066  0.00  0.00    +0.000 C 
ATOM     25  N   UNL     1       0.267  17.640  19.980  0.00  0.00    +0.000 NA
ENDBRANCH   7  24
BRANCH   9  26
ATOM     26  N   UNL     1       0.925  11.682  19.886  0.00  0.00    +0.000 NA
ATOM     27  N   UNL     1       0.475  10.768  19.167  0.00  0.00    +0.000 NA
BRANCH  27  28
ATOM     28  C   UNL     1       1.232   9.580  19.125  0.00  0.00    +0.000 A 
ATOM     29  C   UNL     1       1.949   9.113  18.015  0.00  0.00    +0.000 A 
ATOM     30  C   UNL     1       2.573   7.859  18.048  0.00  0.00    +0.000 A 
ATOM     31  C   UNL     1       2.489   7.074  19.193  0.00  0.00    +0.000 A 
ATOM     32  F   UNL     1       3.048   5.858  19.205  0.00  0.00    +0.000 F 
ATOM     33  C   UNL     1       1.825   7.533  20.321  0.00  0.00    +0.000 A 
ATOM     34  C   UNL     1       1.207   8.784  20.284  0.00  0.00    +0.000 A 
ENDBRANCH  27  28
ENDBRANCH   9  26
TORSDOF 4
ENDMDL
