MODEL 1
REMARK VINA RESULT:      -7.6      0.000      0.000
REMARK  Name = 
REMARK  6 active torsions:
REMARK  status: ('A' for Active; 'I' for Inactive)
REMARK    1  A    between atoms: C_1  and  O_2
REMARK    2  A    between atoms: O_2  and  C_3
REMARK    3  A    between atoms: C_7  and  C_8
REMARK    4  A    between atoms: C_8  and  N_9
REMARK    5  A    between atoms: C_16  and  C_17
REMARK    6  A    between atoms: C_17  and  N_18
REMARK                            x       y       z     vdW  Elec       q    Type
REMARK                         _______ _______ _______ _____ _____    ______ ____
ROOT
ATOM      1  N   UNL     1       5.490   3.426  19.338  0.00  0.00    +0.000 N 
ATOM      2  C   UNL     1       5.563   3.910  18.059  0.00  0.00    +0.000 C 
ATOM      3  O   UNL     1       4.805   3.535  17.169  0.00  0.00    +0.000 OA
ATOM      4  N   UNL     1       6.548   4.850  17.847  0.00  0.00    +0.000 N 
ATOM      5  C   UNL     1       7.535   5.338  18.795  0.00  0.00    +0.000 C 
ATOM      6  C   UNL     1       7.625   6.810  18.453  0.00  0.00    +0.000 C 
ATOM      7  C   UNL     1       7.567   6.796  16.930  0.00  0.00    +0.000 C 
ATOM      8  C   UNL     1       6.622   5.624  16.589  0.00  0.00    +0.000 C 
ATOM      9  H   UNL     1       5.762   4.065  20.065  0.00  0.00    +0.000 HD
ENDROOT
BRANCH   1  10
ATOM     10  C   UNL     1       4.466   2.483  19.741  0.00  0.00    +0.000 C 
BRANCH  10  15
ATOM     11  C   UNL     1       1.853   5.188  20.488  0.00  0.00    +0.000 A 
ATOM     12  C   UNL     1       0.677   4.446  20.359  0.00  0.00    +0.000 A 
ATOM     13  C   UNL     1       0.723   3.087  20.053  0.00  0.00    +0.000 A 
ATOM     14  C   UNL     1       1.953   2.461  19.867  0.00  0.00    +0.000 A 
ATOM     15  C   UNL     1       3.150   3.185  19.983  0.00  0.00    +0.000 A 
ATOM     16  C   UNL     1       3.087   4.557  20.298  0.00  0.00    +0.000 A 
BRANCH  11  18
ATOM     17  C   UNL     1       2.089   7.474  19.855  0.00  0.00    +0.000 C 
ATOM     18  O   UNL     1       1.652   6.506  20.797  0.00  0.00    +0.000 OA
ENDBRANCH  11  18
ENDBRANCH  10  15
ENDBRANCH   1  10
BRANCH   8  19
ATOM     19  C   UNL     1       7.135   4.796  15.374  0.00  0.00    +0.000 C 
BRANCH  19  20
ATOM     20  N   UNL     1       6.578   5.184  14.055  0.00  0.00    +0.000 NA
ATOM     21  C   UNL     1       5.500   4.298  13.590  0.00  0.00    +0.000 C 
ATOM     22  C   UNL     1       6.161   3.279  12.683  0.00  0.00    +0.000 C 
ATOM     23  C   UNL     1       7.211   4.105  11.975  0.00  0.00    +0.000 C 
ATOM     24  C   UNL     1       7.624   5.146  13.008  0.00  0.00    +0.000 C 
ENDBRANCH  19  20
ENDBRANCH   8  19
TORSDOF 5
ENDMDL
MODEL 2
REMARK VINA RESULT:      -7.3      2.000      7.546
REMARK  Name = 
REMARK  6 active torsions:
REMARK  status: ('A' for Active; 'I' for Inactive)
REMARK    1  A    between atoms: C_1  and  O_2
REMARK    2  A    between atoms: O_2  and  C_3
REMARK    3  A    between atoms: C_7  and  C_8
REMARK    4  A    between atoms: C_8  and  N_9
REMARK    5  A    between atoms: C_16  and  C_17
REMARK    6  A    between atoms: C_17  and  N_18
REMARK                            x       y       z     vdW  Elec       q    Type
REMARK                         _______ _______ _______ _____ _____    ______ ____
ROOT
ATOM      1  N   UNL     1       5.854   5.700  16.357  0.00  0.00    +0.000 N 
ATOM      2  C   UNL     1       5.009   5.055  17.222  0.00  0.00    +0.000 C 
ATOM      3  O   UNL     1       5.228   3.919  17.632  0.00  0.00    +0.000 OA
ATOM      4  N   UNL     1       3.898   5.779  17.599  0.00  0.00    +0.000 N 
ATOM      5  C   UNL     1       3.501   7.102  17.150  0.00  0.00    +0.000 C 
ATOM      6  C   UNL     1       2.945   7.728  18.412  0.00  0.00    +0.000 C 
ATOM      7  C   UNL     1       2.178   6.571  19.041  0.00  0.00    +0.000 C 
ATOM      8  C   UNL     1       3.006   5.318  18.685  0.00  0.00    +0.000 C 
ATOM      9  H   UNL     1       5.892   6.700  16.446  0.00  0.00    +0.000 HD
ENDROOT
BRANCH   1  10
ATOM     10  C   UNL     1       7.099   5.102  15.920  0.00  0.00    +0.000 C 
BRANCH  10  15
ATOM     11  C   UNL     1       6.135   3.514  12.565  0.00  0.00    +0.000 A 
ATOM     12  C   UNL     1       6.958   4.237  11.698  0.00  0.00    +0.000 A 
ATOM     13  C   UNL     1       7.825   5.212  12.187  0.00  0.00    +0.000 A 
ATOM     14  C   UNL     1       7.871   5.474  13.553  0.00  0.00    +0.000 A 
ATOM     15  C   UNL     1       7.050   4.768  14.447  0.00  0.00    +0.000 A 
ATOM     16  C   UNL     1       6.182   3.782  13.938  0.00  0.00    +0.000 A 
BRANCH  11  18
ATOM     17  C   UNL     1       5.990   1.496  11.305  0.00  0.00    +0.000 C 
ATOM     18  O   UNL     1       5.344   2.587  11.944  0.00  0.00    +0.000 OA
ENDBRANCH  11  18
ENDBRANCH  10  15
ENDBRANCH   1  10
BRANCH   8  19
ATOM     19  C   UNL     1       2.101   4.116  18.283  0.00  0.00    +0.000 C 
BRANCH  19  20
ATOM     20  N   UNL     1       2.289   2.879  19.079  0.00  0.00    +0.000 NA
ATOM     21  C   UNL     1       1.049   2.385  19.697  0.00  0.00    +0.000 C 
ATOM     22  C   UNL     1       1.038   2.940  21.108  0.00  0.00    +0.000 C 
ATOM     23  C   UNL     1       2.497   2.872  21.497  0.00  0.00    +0.000 C 
ATOM     24  C   UNL     1       3.243   3.105  20.189  0.00  0.00    +0.000 C 
ENDBRANCH  19  20
ENDBRANCH   8  19
TORSDOF 5
ENDMDL
MODEL 3
REMARK VINA RESULT:      -7.0      0.672      1.050
REMARK  Name = 
REMARK  6 active torsions:
REMARK  status: ('A' for Active; 'I' for Inactive)
REMARK    1  A    between atoms: C_1  and  O_2
REMARK    2  A    between atoms: O_2  and  C_3
REMARK    3  A    between atoms: C_7  and  C_8
REMARK    4  A    between atoms: C_8  and  N_9
REMARK    5  A    between atoms: C_16  and  C_17
REMARK    6  A    between atoms: C_17  and  N_18
REMARK                            x       y       z     vdW  Elec       q    Type
REMARK                         _______ _______ _______ _____ _____    ______ ____
ROOT
ATOM      1  N   UNL     1       5.411   3.280  18.909  0.00  0.00    +0.000 N 
ATOM      2  C   UNL     1       5.123   4.169  17.907  0.00  0.00    +0.000 C 
ATOM      3  O   UNL     1       4.047   4.170  17.318  0.00  0.00    +0.000 OA
ATOM      4  N   UNL     1       6.131   5.062  17.613  0.00  0.00    +0.000 N 
ATOM      5  C   UNL     1       7.460   5.132  18.197  0.00  0.00    +0.000 C 
ATOM      6  C   UNL     1       7.701   6.623  18.294  0.00  0.00    +0.000 C 
ATOM      7  C   UNL     1       7.114   7.137  16.986  0.00  0.00    +0.000 C 
ATOM      8  C   UNL     1       5.906   6.215  16.714  0.00  0.00    +0.000 C 
ATOM      9  H   UNL     1       6.035   3.613  19.624  0.00  0.00    +0.000 HD
ENDROOT
BRANCH   1  10
ATOM     10  C   UNL     1       4.433   2.322  19.384  0.00  0.00    +0.000 C 
BRANCH  10  15
ATOM     11  C   UNL     1       1.892   4.922  20.604  0.00  0.00    +0.000 A 
ATOM     12  C   UNL     1       0.696   4.253  20.332  0.00  0.00    +0.000 A 
ATOM     13  C   UNL     1       0.706   2.974  19.779  0.00  0.00    +0.000 A 
ATOM     14  C   UNL     1       1.919   2.355  19.489  0.00  0.00    +0.000 A 
ATOM     15  C   UNL     1       3.136   3.008  19.745  0.00  0.00    +0.000 A 
ATOM     16  C   UNL     1       3.110   4.299  20.308  0.00  0.00    +0.000 A 
BRANCH  11  18
ATOM     17  C   UNL     1       1.856   7.284  20.286  0.00  0.00    +0.000 C 
ATOM     18  O   UNL     1       1.726   6.165  21.151  0.00  0.00    +0.000 OA
ENDBRANCH  11  18
ENDBRANCH  10  15
ENDBRANCH   1  10
BRANCH   8  19
ATOM     19  C   UNL     1       5.797   5.825  15.211  0.00  0.00    +0.000 C 
BRANCH  19  20
ATOM     20  N   UNL     1       6.649   4.689  14.781  0.00  0.00    +0.000 NA
ATOM     21  C   UNL     1       7.721   5.078  13.853  0.00  0.00    +0.000 C 
ATOM     22  C   UNL     1       7.181   4.817  12.461  0.00  0.00    +0.000 C 
ATOM     23  C   UNL     1       6.377   3.551  12.654  0.00  0.00    +0.000 C 
ATOM     24  C   UNL     1       5.846   3.662  14.078  0.00  0.00    +0.000 C 
ENDBRANCH  19  20
ENDBRANCH   8  19
TORSDOF 5
ENDMDL
MODEL 4
REMARK VINA RESULT:      -6.9      2.744      5.109
REMARK  Name = 
REMARK  6 active torsions:
REMARK  status: ('A' for Active; 'I' for Inactive)
REMARK    1  A    between atoms: C_1  and  O_2
REMARK    2  A    between atoms: O_2  and  C_3
REMARK    3  A    between atoms: C_7  and  C_8
REMARK    4  A    between atoms: C_8  and  N_9
REMARK    5  A    between atoms: C_16  and  C_17
REMARK    6  A    between atoms: C_17  and  N_18
REMARK                            x       y       z     vdW  Elec       q    Type
REMARK                         _______ _______ _______ _____ _____    ______ ____
ROOT
ATOM      1  N   UNL     1       1.903   5.981  20.059  0.00  0.00    +0.000 N 
ATOM      2  C   UNL     1       2.939   5.412  19.367  0.00  0.00    +0.000 C 
ATOM      3  O   UNL     1       4.047   5.935  19.293  0.00  0.00    +0.000 OA
ATOM      4  N   UNL     1       2.645   4.209  18.762  0.00  0.00    +0.000 N 
ATOM      5  C   UNL     1       1.369   3.515  18.731  0.00  0.00    +0.000 C 
ATOM      6  C   UNL     1       1.778   2.063  18.864  0.00  0.00    +0.000 C 
ATOM      7  C   UNL     1       3.021   1.991  17.985  0.00  0.00    +0.000 C 
ATOM      8  C   UNL     1       3.701   3.365  18.162  0.00  0.00    +0.000 C 
ATOM      9  H   UNL     1       1.247   5.340  20.471  0.00  0.00    +0.000 HD
ENDROOT
BRANCH   1  10
ATOM     10  C   UNL     1       2.068   7.211  20.808  0.00  0.00    +0.000 C 
BRANCH  10  15
ATOM     11  C   UNL     1      -0.120  10.273  20.074  0.00  0.00    +0.000 A 
ATOM     12  C   UNL     1       0.250  10.538  18.753  0.00  0.00    +0.000 A 
ATOM     13  C   UNL     1       1.180   9.732  18.100  0.00  0.00    +0.000 A 
ATOM     14  C   UNL     1       1.751   8.652  18.770  0.00  0.00    +0.000 A 
ATOM     15  C   UNL     1       1.403   8.368  20.099  0.00  0.00    +0.000 A 
ATOM     16  C   UNL     1       0.458   9.189  20.745  0.00  0.00    +0.000 A 
BRANCH  11  18
ATOM     17  C   UNL     1      -1.267  12.352  19.869  0.00  0.00    +0.000 C 
ATOM     18  O   UNL     1      -1.046  11.143  20.581  0.00  0.00    +0.000 OA
ENDBRANCH  11  18
ENDBRANCH  10  15
ENDBRANCH   1  10
BRANCH   8  19
ATOM     19  C   UNL     1       4.255   3.919  16.817  0.00  0.00    +0.000 C 
BRANCH  19  20
ATOM     20  N   UNL     1       5.694   3.664  16.564  0.00  0.00    +0.000 NA
ATOM     21  C   UNL     1       6.588   4.578  17.292  0.00  0.00    +0.000 C 
ATOM     22  C   UNL     1       6.918   5.696  16.322  0.00  0.00    +0.000 C 
ATOM     23  C   UNL     1       7.022   4.965  15.003  0.00  0.00    +0.000 C 
ATOM     24  C   UNL     1       6.016   3.827  15.129  0.00  0.00    +0.000 C 
ENDBRANCH  19  20
ENDBRANCH   8  19
TORSDOF 5
ENDMDL
MODEL 5
REMARK VINA RESULT:      -6.9      2.774      5.635
REMARK  Name = 
REMARK  6 active torsions:
REMARK  status: ('A' for Active; 'I' for Inactive)
REMARK    1  A    between atoms: C_1  and  O_2
REMARK    2  A    between atoms: O_2  and  C_3
REMARK    3  A    between atoms: C_7  and  C_8
REMARK    4  A    between atoms: C_8  and  N_9
REMARK    5  A    between atoms: C_16  and  C_17
REMARK    6  A    between atoms: C_17  and  N_18
REMARK                            x       y       z     vdW  Elec       q    Type
REMARK                         _______ _______ _______ _____ _____    ______ ____
ROOT
ATOM      1  N   UNL     1       3.061   7.989  17.665  0.00  0.00    +0.000 N 
ATOM      2  C   UNL     1       3.230   6.649  17.893  0.00  0.00    +0.000 C 
ATOM      3  O   UNL     1       2.286   5.889  18.086  0.00  0.00    +0.000 OA
ATOM      4  N   UNL     1       4.539   6.217  17.886  0.00  0.00    +0.000 N 
ATOM      5  C   UNL     1       5.741   7.017  17.722  0.00  0.00    +0.000 C 
ATOM      6  C   UNL     1       6.623   6.121  16.878  0.00  0.00    +0.000 C 
ATOM      7  C   UNL     1       6.365   4.745  17.482  0.00  0.00    +0.000 C 
ATOM      8  C   UNL     1       4.880   4.778  17.902  0.00  0.00    +0.000 C 
ATOM      9  H   UNL     1       3.747   8.422  17.072  0.00  0.00    +0.000 HD
ENDROOT
BRANCH   1  10
ATOM     10  C   UNL     1       1.744   8.587  17.571  0.00  0.00    +0.000 C 
BRANCH  10  15
ATOM     11  C   UNL     1       0.994   9.469  21.227  0.00  0.00    +0.000 A 
ATOM     12  C   UNL     1       0.859  10.856  21.130  0.00  0.00    +0.000 A 
ATOM     13  C   UNL     1       0.991  11.499  19.901  0.00  0.00    +0.000 A 
ATOM     14  C   UNL     1       1.264  10.755  18.756  0.00  0.00    +0.000 A 
ATOM     15  C   UNL     1       1.412   9.360  18.827  0.00  0.00    +0.000 A 
ATOM     16  C   UNL     1       1.272   8.724  20.075  0.00  0.00    +0.000 A 
BRANCH  11  18
ATOM     17  C   UNL     1      -0.128   9.615  23.325  0.00  0.00    +0.000 C 
ATOM     18  O   UNL     1       0.832   8.979  22.494  0.00  0.00    +0.000 OA
ENDBRANCH  11  18
ENDBRANCH  10  15
ENDBRANCH   1  10
BRANCH   8  19
ATOM     19  C   UNL     1       4.650   4.095  19.282  0.00  0.00    +0.000 C 
BRANCH  19  20
ATOM     20  N   UNL     1       4.129   2.707  19.230  0.00  0.00    +0.000 NA
ATOM     21  C   UNL     1       3.598   2.330  17.912  0.00  0.00    +0.000 C 
ATOM     22  C   UNL     1       2.103   2.575  17.982  0.00  0.00    +0.000 C 
ATOM     23  C   UNL     1       1.770   2.165  19.398  0.00  0.00    +0.000 C 
ATOM     24  C   UNL     1       3.019   2.523  20.193  0.00  0.00    +0.000 C 
ENDBRANCH  19  20
ENDBRANCH   8  19
TORSDOF 5
ENDMDL
MODEL 6
REMARK VINA RESULT:      -6.9      4.545      7.969
REMARK  Name = 
REMARK  6 active torsions:
REMARK  status: ('A' for Active; 'I' for Inactive)
REMARK    1  A    between atoms: C_1  and  O_2
REMARK    2  A    between atoms: O_2  and  C_3
REMARK    3  A    between atoms: C_7  and  C_8
REMARK    4  A    between atoms: C_8  and  N_9
REMARK    5  A    between atoms: C_16  and  C_17
REMARK    6  A    between atoms: C_17  and  N_18
REMARK                            x       y       z     vdW  Elec       q    Type
REMARK                         _______ _______ _______ _____ _____    ______ ____
ROOT
ATOM      1  N   UNL     1       2.606   7.275  18.866  0.00  0.00    +0.000 N 
ATOM      2  C   UNL     1       2.002   8.461  18.541  0.00  0.00    +0.000 C 
ATOM      3  O   UNL     1       2.049   8.936  17.410  0.00  0.00    +0.000 OA
ATOM      4  N   UNL     1       1.336   9.079  19.577  0.00  0.00    +0.000 N 
ATOM      5  C   UNL     1       1.249   8.651  20.963  0.00  0.00    +0.000 C 
ATOM      6  C   UNL     1      -0.177   9.001  21.330  0.00  0.00    +0.000 C 
ATOM      7  C   UNL     1      -0.370  10.349  20.646  0.00  0.00    +0.000 C 
ATOM      8  C   UNL     1       0.458  10.247  19.347  0.00  0.00    +0.000 C 
ATOM      9  H   UNL     1       2.157   6.739  19.587  0.00  0.00    +0.000 HD
ENDROOT
BRANCH   1  10
ATOM     10  C   UNL     1       3.287   6.469  17.873  0.00  0.00    +0.000 C 
BRANCH  10  15
ATOM     11  C   UNL     1       1.967   3.167  19.308  0.00  0.00    +0.000 A 
ATOM     12  C   UNL     1       2.687   2.250  18.537  0.00  0.00    +0.000 A 
ATOM     13  C   UNL     1       3.598   2.688  17.579  0.00  0.00    +0.000 A 
ATOM     14  C   UNL     1       3.793   4.053  17.382  0.00  0.00    +0.000 A 
ATOM     15  C   UNL     1       3.078   4.996  18.137  0.00  0.00    +0.000 A 
ATOM     16  C   UNL     1       2.163   4.538  19.105  0.00  0.00    +0.000 A 
BRANCH  11  18
ATOM     17  C   UNL     1       1.496   2.617  21.579  0.00  0.00    +0.000 C 
ATOM     18  O   UNL     1       1.115   2.591  20.211  0.00  0.00    +0.000 OA
ENDBRANCH  11  18
ENDBRANCH  10  15
ENDBRANCH   1  10
BRANCH   8  19
ATOM     19  C   UNL     1       1.233  11.563  19.045  0.00  0.00    +0.000 C 
BRANCH  19  20
ATOM     20  N   UNL     1       0.965  12.690  19.972  0.00  0.00    +0.000 NA
ATOM     21  C   UNL     1       0.209  13.790  19.354  0.00  0.00    +0.000 C 
ATOM     22  C   UNL     1       1.245  14.799  18.895  0.00  0.00    +0.000 C 
ATOM     23  C   UNL     1       2.277  14.731  19.998  0.00  0.00    +0.000 C 
ATOM     24  C   UNL     1       2.230  13.281  20.464  0.00  0.00    +0.000 C 
ENDBRANCH  19  20
ENDBRANCH   8  19
TORSDOF 5
ENDMDL
MODEL 7
REMARK VINA RESULT:      -6.9      3.295      5.463
REMARK  Name = 
REMARK  6 active torsions:
REMARK  status: ('A' for Active; 'I' for Inactive)
REMARK    1  A    between atoms: C_1  and  O_2
REMARK    2  A    between atoms: O_2  and  C_3
REMARK    3  A    between atoms: C_7  and  C_8
REMARK    4  A    between atoms: C_8  and  N_9
REMARK    5  A    between atoms: C_16  and  C_17
REMARK    6  A    between atoms: C_17  and  N_18
REMARK                            x       y       z     vdW  Elec       q    Type
REMARK                         _______ _______ _______ _____ _____    ______ ____
ROOT
ATOM      1  N   UNL     1       2.012   7.791  18.481  0.00  0.00    +0.000 N 
ATOM      2  C   UNL     1       3.039   6.976  18.084  0.00  0.00    +0.000 C 
ATOM      3  O   UNL     1       3.934   7.361  17.337  0.00  0.00    +0.000 OA
ATOM      4  N   UNL     1       2.994   5.694  18.587  0.00  0.00    +0.000 N 
ATOM      5  C   UNL     1       1.970   5.103  19.432  0.00  0.00    +0.000 C 
ATOM      6  C   UNL     1       2.779   4.239  20.378  0.00  0.00    +0.000 C 
ATOM      7  C   UNL     1       3.835   3.643  19.455  0.00  0.00    +0.000 C 
ATOM      8  C   UNL     1       4.131   4.760  18.431  0.00  0.00    +0.000 C 
ATOM      9  H   UNL     1       1.633   7.604  19.393  0.00  0.00    +0.000 HD
ENDROOT
BRANCH   1  10
ATOM     10  C   UNL     1       1.951   9.186  18.095  0.00  0.00    +0.000 C 
BRANCH  10  15
ATOM     11  C   UNL     1       0.016  11.018  20.853  0.00  0.00    +0.000 A 
ATOM     12  C   UNL     1      -1.175  11.302  20.180  0.00  0.00    +0.000 A 
ATOM     13  C   UNL     1      -1.361  10.894  18.860  0.00  0.00    +0.000 A 
ATOM     14  C   UNL     1      -0.349  10.201  18.201  0.00  0.00    +0.000 A 
ATOM     15  C   UNL     1       0.861   9.909  18.851  0.00  0.00    +0.000 A 
ATOM     16  C   UNL     1       1.032  10.323  20.187  0.00  0.00    +0.000 A 
BRANCH  11  18
ATOM     17  C   UNL     1      -1.166  11.469  22.873  0.00  0.00    +0.000 C 
ATOM     18  O   UNL     1       0.052  11.473  22.142  0.00  0.00    +0.000 OA
ENDBRANCH  11  18
ENDBRANCH  10  15
ENDBRANCH   1  10
BRANCH   8  19
ATOM     19  C   UNL     1       4.287   4.200  16.987  0.00  0.00    +0.000 C 
BRANCH  19  20
ATOM     20  N   UNL     1       5.662   3.798  16.602  0.00  0.00    +0.000 NA
ATOM     21  C   UNL     1       6.710   4.611  17.237  0.00  0.00    +0.000 C 
ATOM     22  C   UNL     1       7.061   5.692  16.233  0.00  0.00    +0.000 C 
ATOM     23  C   UNL     1       6.965   4.958  14.915  0.00  0.00    +0.000 C 
ATOM     24  C   UNL     1       5.863   3.931  15.141  0.00  0.00    +0.000 C 
ENDBRANCH  19  20
ENDBRANCH   8  19
TORSDOF 5
ENDMDL
MODEL 8
REMARK VINA RESULT:      -6.9      3.399      5.512
REMARK  Name = 
REMARK  6 active torsions:
REMARK  status: ('A' for Active; 'I' for Inactive)
REMARK    1  A    between atoms: C_1  and  O_2
REMARK    2  A    between atoms: O_2  and  C_3
REMARK    3  A    between atoms: C_7  and  C_8
REMARK    4  A    between atoms: C_8  and  N_9
REMARK    5  A    between atoms: C_16  and  C_17
REMARK    6  A    between atoms: C_17  and  N_18
REMARK                            x       y       z     vdW  Elec       q    Type
REMARK                         _______ _______ _______ _____ _____    ______ ____
ROOT
ATOM      1  N   UNL     1       2.172   7.672  18.357  0.00  0.00    +0.000 N 
ATOM      2  C   UNL     1       3.185   6.827  17.985  0.00  0.00    +0.000 C 
ATOM      3  O   UNL     1       4.101   7.182  17.250  0.00  0.00    +0.000 OA
ATOM      4  N   UNL     1       3.099   5.552  18.502  0.00  0.00    +0.000 N 
ATOM      5  C   UNL     1       2.047   4.996  19.336  0.00  0.00    +0.000 C 
ATOM      6  C   UNL     1       2.818   4.124  20.305  0.00  0.00    +0.000 C 
ATOM      7  C   UNL     1       3.875   3.492  19.407  0.00  0.00    +0.000 C 
ATOM      8  C   UNL     1       4.215   4.589  18.376  0.00  0.00    +0.000 C 
ATOM      9  H   UNL     1       1.773   7.505  19.264  0.00  0.00    +0.000 HD
ENDROOT
BRANCH   1  10
ATOM     10  C   UNL     1       2.153   9.064  17.955  0.00  0.00    +0.000 C 
BRANCH  10  15
ATOM     11  C   UNL     1      -1.414  10.439  18.249  0.00  0.00    +0.000 A 
ATOM     12  C   UNL     1      -1.361  11.010  19.524  0.00  0.00    +0.000 A 
ATOM     13  C   UNL     1      -0.187  10.967  20.273  0.00  0.00    +0.000 A 
ATOM     14  C   UNL     1       0.945  10.347  19.751  0.00  0.00    +0.000 A 
ATOM     15  C   UNL     1       0.917   9.760  18.476  0.00  0.00    +0.000 A 
ATOM     16  C   UNL     1      -0.276   9.814  17.729  0.00  0.00    +0.000 A 
BRANCH  11  18
ATOM     17  C   UNL     1      -2.767   9.994  16.338  0.00  0.00    +0.000 C 
ATOM     18  O   UNL     1      -2.629  10.564  17.632  0.00  0.00    +0.000 OA
ENDBRANCH  11  18
ENDBRANCH  10  15
ENDBRANCH   1  10
BRANCH   8  19
ATOM     19  C   UNL     1       4.381   4.009  16.940  0.00  0.00    +0.000 C 
BRANCH  19  20
ATOM     20  N   UNL     1       5.772   3.692  16.535  0.00  0.00    +0.000 NA
ATOM     21  C   UNL     1       6.778   4.557  17.170  0.00  0.00    +0.000 C 
ATOM     22  C   UNL     1       7.054   5.670  16.177  0.00  0.00    +0.000 C 
ATOM     23  C   UNL     1       6.985   4.949  14.850  0.00  0.00    +0.000 C 
ATOM     24  C   UNL     1       5.948   3.856  15.074  0.00  0.00    +0.000 C 
ENDBRANCH  19  20
ENDBRANCH   8  19
TORSDOF 5
ENDMDL
MODEL 9
REMARK VINA RESULT:      -6.9      4.666      8.113
REMARK  Name = 
REMARK  6 active torsions:
REMARK  status: ('A' for Active; 'I' for Inactive)
REMARK    1  A    between atoms: C_1  and  O_2
REMARK    2  A    between atoms: O_2  and  C_3
REMARK    3  A    between atoms: C_7  and  C_8
REMARK    4  A    between atoms: C_8  and  N_9
REMARK    5  A    between atoms: C_16  and  C_17
REMARK    6  A    between atoms: C_17  and  N_18
REMARK                            x       y       z     vdW  Elec       q    Type
REMARK                         _______ _______ _______ _____ _____    ______ ____
ROOT
ATOM      1  N   UNL     1       2.360   7.547  19.208  0.00  0.00    +0.000 N 
ATOM      2  C   UNL     1       1.734   8.757  19.063  0.00  0.00    +0.000 C 
ATOM      3  O   UNL     1       1.702   9.358  17.993  0.00  0.00    +0.000 OA
ATOM      4  N   UNL     1       1.142   9.247  20.207  0.00  0.00    +0.000 N 
ATOM      5  C   UNL     1       1.152   8.663  21.537  0.00  0.00    +0.000 C 
ATOM      6  C   UNL     1      -0.246   8.956  22.040  0.00  0.00    +0.000 C 
ATOM      7  C   UNL     1      -0.487  10.372  21.529  0.00  0.00    +0.000 C 
ATOM      8  C   UNL     1       0.248  10.426  20.173  0.00  0.00    +0.000 C 
ATOM      9  H   UNL     1       1.963   6.928  19.892  0.00  0.00    +0.000 HD
ENDROOT
BRANCH   1  10
ATOM     10  C   UNL     1       2.971   6.865  18.084  0.00  0.00    +0.000 C 
BRANCH  10  15
ATOM     11  C   UNL     1       1.813   3.401  19.250  0.00  0.00    +0.000 A 
ATOM     12  C   UNL     1       2.505   2.587  18.350  0.00  0.00    +0.000 A 
ATOM     13  C   UNL     1       3.347   3.144  17.390  0.00  0.00    +0.000 A 
ATOM     14  C   UNL     1       3.500   4.527  17.321  0.00  0.00    +0.000 A 
ATOM     15  C   UNL     1       2.811   5.368  18.209  0.00  0.00    +0.000 A 
ATOM     16  C   UNL     1       1.966   4.790  19.177  0.00  0.00    +0.000 A 
BRANCH  11  18
ATOM     17  C   UNL     1       1.439   2.701  21.498  0.00  0.00    +0.000 C 
ATOM     18  O   UNL     1       1.031   2.714  20.138  0.00  0.00    +0.000 OA
ENDBRANCH  11  18
ENDBRANCH  10  15
ENDBRANCH   1  10
BRANCH   8  19
ATOM     19  C   UNL     1       0.999  11.774  19.971  0.00  0.00    +0.000 C 
BRANCH  19  20
ATOM     20  N   UNL     1       0.642  12.528  18.744  0.00  0.00    +0.000 NA
ATOM     21  C   UNL     1       1.708  13.428  18.278  0.00  0.00    +0.000 C 
ATOM     22  C   UNL     1       1.383  14.792  18.856  0.00  0.00    +0.000 C 
ATOM     23  C   UNL     1      -0.126  14.830  18.774  0.00  0.00    +0.000 C 
ATOM     24  C   UNL     1      -0.547  13.380  18.975  0.00  0.00    +0.000 C 
ENDBRANCH  19  20
ENDBRANCH   8  19
TORSDOF 5
ENDMDL
