MODEL 1
REMARK VINA RESULT:      -7.2      0.000      0.000
REMARK  Name = 
REMARK  6 active torsions:
REMARK  status: ('A' for Active; 'I' for Inactive)
REMARK    1  A    between atoms: C_1  and  O_2
REMARK    2  A    between atoms: O_2  and  C_3
REMARK    3  A    between atoms: C_5  and  C_6
REMARK    4  A    between atoms: C_12  and  C_13
REMARK    5  A    between atoms: C_19  and  S_20
REMARK    6  A    between atoms: S_20  and  N_23
REMARK                            x       y       z     vdW  Elec       q    Type
REMARK                         _______ _______ _______ _____ _____    ______ ____
ROOT
ATOM      1  C   UNL     1      -5.568  12.098  18.188  0.00  0.00    +0.000 A 
ATOM      2  C   UNL     1      -5.936  12.760  17.016  0.00  0.00    +0.000 A 
ATOM      3  C   UNL     1      -7.061  13.585  16.971  0.00  0.00    +0.000 A 
ATOM      4  C   UNL     1      -7.731  13.892  18.149  0.00  0.00    +0.000 A 
ATOM      5  C   UNL     1      -7.416  13.196  19.329  0.00  0.00    +0.000 A 
ATOM      6  C   UNL     1      -7.916  13.533  20.611  0.00  0.00    +0.000 A 
ATOM      7  C   UNL     1      -7.709  12.664  21.692  0.00  0.00    +0.000 A 
ATOM      8  C   UNL     1      -7.550  11.335  21.351  0.00  0.00    +0.000 A 
ATOM      9  C   UNL     1      -6.812  11.089  20.199  0.00  0.00    +0.000 A 
ATOM     10  C   UNL     1      -6.538  12.105  19.242  0.00  0.00    +0.000 A 
ENDROOT
BRANCH   1  16
ATOM     11  C   UNL     1      -3.232  12.192  19.353  0.00  0.00    +0.000 A 
ATOM     12  C   UNL     1      -1.910  11.714  19.497  0.00  0.00    +0.000 A 
ATOM     13  C   UNL     1      -1.428  10.639  18.751  0.00  0.00    +0.000 A 
ATOM     14  C   UNL     1      -2.301  10.023  17.862  0.00  0.00    +0.000 A 
ATOM     15  C   UNL     1      -3.604  10.512  17.685  0.00  0.00    +0.000 A 
ATOM     16  C   UNL     1      -4.122  11.622  18.384  0.00  0.00    +0.000 A 
BRANCH  13  17
ATOM     17  C   UNL     1      -0.006  10.162  18.895  0.00  0.00    +0.000 C 
ATOM     18  F   UNL     1       0.879  11.166  19.159  0.00  0.00    +0.000 F 
ATOM     19  F   UNL     1       0.151   9.255  19.897  0.00  0.00    +0.000 F 
ATOM     20  F   UNL     1       0.453   9.557  17.764  0.00  0.00    +0.000 F 
ENDBRANCH  13  17
BRANCH  11  22
ATOM     21  C   UNL     1      -2.733  14.100  20.733  0.00  0.00    +0.000 C 
ATOM     22  O   UNL     1      -3.696  13.211  20.160  0.00  0.00    +0.000 OA
ENDBRANCH  11  22
ENDBRANCH   1  16
BRANCH   7  23
ATOM     23  S   UNL     1      -6.321  13.130  22.860  0.00  0.00    +0.000 S 
ATOM     24  O   UNL     1      -6.921  13.322  24.170  0.00  0.00    +0.000 OA
ATOM     25  O   UNL     1      -5.255  12.177  22.644  0.00  0.00    +0.000 OA
BRANCH  23  26
ATOM     26  N   UNL     1      -5.754  14.605  22.265  0.00  0.00    +0.000 N 
ATOM     27  C   UNL     1      -5.363  15.463  23.336  0.00  0.00    +0.000 A 
ATOM     28  N   UNL     1      -4.144  15.379  23.806  0.00  0.00    +0.000 NA
ATOM     29  C   UNL     1      -3.900  16.456  24.640  0.00  0.00    +0.000 A 
ATOM     30  C   UNL     1      -4.919  17.383  24.722  0.00  0.00    +0.000 A 
ATOM     31  S   UNL     1      -6.280  16.816  23.836  0.00  0.00    +0.000 S 
ATOM     32  H   UNL     1      -4.856  14.320  21.864  0.00  0.00    +0.000 HD
ENDBRANCH  23  26
ENDBRANCH   7  23
TORSDOF 5
ENDMDL
MODEL 2
REMARK VINA RESULT:      -7.1      9.116     12.924
REMARK  Name = 
REMARK  6 active torsions:
REMARK  status: ('A' for Active; 'I' for Inactive)
REMARK    1  A    between atoms: C_1  and  O_2
REMARK    2  A    between atoms: O_2  and  C_3
REMARK    3  A    between atoms: C_5  and  C_6
REMARK    4  A    between atoms: C_12  and  C_13
REMARK    5  A    between atoms: C_19  and  S_20
REMARK    6  A    between atoms: S_20  and  N_23
REMARK                            x       y       z     vdW  Elec       q    Type
REMARK                         _______ _______ _______ _____ _____    ______ ____
ROOT
ATOM      1  C   UNL     1       1.912   5.586  19.835  0.00  0.00    +0.000 A 
ATOM      2  C   UNL     1       1.668   5.147  21.137  0.00  0.00    +0.000 A 
ATOM      3  C   UNL     1       2.146   3.917  21.589  0.00  0.00    +0.000 A 
ATOM      4  C   UNL     1       3.023   3.189  20.793  0.00  0.00    +0.000 A 
ATOM      5  C   UNL     1       3.239   3.580  19.461  0.00  0.00    +0.000 A 
ATOM      6  C   UNL     1       4.223   3.015  18.613  0.00  0.00    +0.000 A 
ATOM      7  C   UNL     1       4.230   3.326  17.246  0.00  0.00    +0.000 A 
ATOM      8  C   UNL     1       3.003   3.679  16.721  0.00  0.00    +0.000 A 
ATOM      9  C   UNL     1       2.198   4.465  17.539  0.00  0.00    +0.000 A 
ATOM     10  C   UNL     1       2.441   4.607  18.932  0.00  0.00    +0.000 A 
ENDROOT
BRANCH   1  16
ATOM     11  C   UNL     1       1.197   8.047  20.342  0.00  0.00    +0.000 A 
ATOM     12  C   UNL     1       1.162   9.414  19.989  0.00  0.00    +0.000 A 
ATOM     13  C   UNL     1       1.793   9.897  18.842  0.00  0.00    +0.000 A 
ATOM     14  C   UNL     1       2.488   8.989  18.054  0.00  0.00    +0.000 A 
ATOM     15  C   UNL     1       2.498   7.623  18.375  0.00  0.00    +0.000 A 
ATOM     16  C   UNL     1       1.839   7.082  19.498  0.00  0.00    +0.000 A 
BRANCH  13  17
ATOM     17  C   UNL     1       1.719  11.354  18.464  0.00  0.00    +0.000 C 
ATOM     18  F   UNL     1       0.473  11.753  18.082  0.00  0.00    +0.000 F 
ATOM     19  F   UNL     1       2.081  12.184  19.479  0.00  0.00    +0.000 F 
ATOM     20  F   UNL     1       2.539  11.658  17.419  0.00  0.00    +0.000 F 
ENDBRANCH  13  17
BRANCH  11  22
ATOM     21  C   UNL     1      -0.331   8.477  22.151  0.00  0.00    +0.000 C 
ATOM     22  O   UNL     1       0.622   7.618  21.521  0.00  0.00    +0.000 OA
ENDBRANCH  11  22
ENDBRANCH   1  16
BRANCH   7  23
ATOM     23  S   UNL     1       5.480   4.612  16.707  0.00  0.00    +0.000 S 
ATOM     24  O   UNL     1       4.782   5.536  15.830  0.00  0.00    +0.000 OA
ATOM     25  O   UNL     1       6.157   5.064  17.903  0.00  0.00    +0.000 OA
BRANCH  23  26
ATOM     26  N   UNL     1       6.625   3.736  15.827  0.00  0.00    +0.000 N 
ATOM     27  C   UNL     1       6.834   4.326  14.545  0.00  0.00    +0.000 A 
ATOM     28  N   UNL     1       7.721   5.282  14.422  0.00  0.00    +0.000 NA
ATOM     29  C   UNL     1       7.947   5.523  13.077  0.00  0.00    +0.000 A 
ATOM     30  C   UNL     1       7.284   4.685  12.206  0.00  0.00    +0.000 A 
ATOM     31  S   UNL     1       6.232   3.653  13.094  0.00  0.00    +0.000 S 
ATOM     32  H   UNL     1       7.483   3.979  16.331  0.00  0.00    +0.000 HD
ENDBRANCH  23  26
ENDBRANCH   7  23
TORSDOF 5
ENDMDL
MODEL 3
REMARK VINA RESULT:      -7.0      4.694      7.126
REMARK  Name = 
REMARK  6 active torsions:
REMARK  status: ('A' for Active; 'I' for Inactive)
REMARK    1  A    between atoms: C_1  and  O_2
REMARK    2  A    between atoms: O_2  and  C_3
REMARK    3  A    between atoms: C_5  and  C_6
REMARK    4  A    between atoms: C_12  and  C_13
REMARK    5  A    between atoms: C_19  and  S_20
REMARK    6  A    between atoms: S_20  and  N_23
REMARK                            x       y       z     vdW  Elec       q    Type
REMARK                         _______ _______ _______ _____ _____    ______ ____
ROOT
ATOM      1  C   UNL     1      -0.934  11.713  19.794  0.00  0.00    +0.000 A 
ATOM      2  C   UNL     1      -0.797  10.409  19.317  0.00  0.00    +0.000 A 
ATOM      3  C   UNL     1       0.345  10.006  18.623  0.00  0.00    +0.000 A 
ATOM      4  C   UNL     1       1.438  10.861  18.551  0.00  0.00    +0.000 A 
ATOM      5  C   UNL     1       1.307  12.194  18.973  0.00  0.00    +0.000 A 
ATOM      6  C   UNL     1       2.386  13.103  19.096  0.00  0.00    +0.000 A 
ATOM      7  C   UNL     1       2.133  14.462  19.328  0.00  0.00    +0.000 A 
ATOM      8  C   UNL     1       0.911  14.916  18.869  0.00  0.00    +0.000 A 
ATOM      9  C   UNL     1      -0.158  14.042  19.031  0.00  0.00    +0.000 A 
ATOM     10  C   UNL     1       0.026  12.660  19.312  0.00  0.00    +0.000 A 
ENDROOT
BRANCH   1  16
ATOM     11  C   UNL     1      -1.581  11.795  22.324  0.00  0.00    +0.000 A 
ATOM     12  C   UNL     1      -2.508  12.095  23.346  0.00  0.00    +0.000 A 
ATOM     13  C   UNL     1      -3.750  12.668  23.072  0.00  0.00    +0.000 A 
ATOM     14  C   UNL     1      -4.050  12.962  21.748  0.00  0.00    +0.000 A 
ATOM     15  C   UNL     1      -3.151  12.634  20.721  0.00  0.00    +0.000 A 
ATOM     16  C   UNL     1      -1.904  12.015  20.945  0.00  0.00    +0.000 A 
BRANCH  13  17
ATOM     17  C   UNL     1      -4.739  12.952  24.172  0.00  0.00    +0.000 C 
ATOM     18  F   UNL     1      -4.493  12.256  25.318  0.00  0.00    +0.000 F 
ATOM     19  F   UNL     1      -4.769  14.264  24.533  0.00  0.00    +0.000 F 
ATOM     20  F   UNL     1      -6.015  12.632  23.815  0.00  0.00    +0.000 F 
ENDBRANCH  13  17
BRANCH  11  22
ATOM     21  C   UNL     1      -0.248   9.935  23.072  0.00  0.00    +0.000 C 
ATOM     22  O   UNL     1      -0.333  11.295  22.640  0.00  0.00    +0.000 OA
ENDBRANCH  11  22
ENDBRANCH   1  16
BRANCH   7  23
ATOM     23  S   UNL     1       2.336  15.040  21.097  0.00  0.00    +0.000 S 
ATOM     24  O   UNL     1       1.935  13.934  21.950  0.00  0.00    +0.000 OA
ATOM     25  O   UNL     1       3.649  15.638  21.194  0.00  0.00    +0.000 OA
BRANCH  23  26
ATOM     26  N   UNL     1       1.234  16.312  21.249  0.00  0.00    +0.000 N 
ATOM     27  C   UNL     1       0.363  16.094  22.357  0.00  0.00    +0.000 A 
ATOM     28  N   UNL     1       0.733  16.499  23.546  0.00  0.00    +0.000 NA
ATOM     29  C   UNL     1      -0.347  16.428  24.409  0.00  0.00    +0.000 A 
ATOM     30  C   UNL     1      -1.541  16.046  23.833  0.00  0.00    +0.000 A 
ATOM     31  S   UNL     1      -1.272  15.625  22.187  0.00  0.00    +0.000 S 
ATOM     32  H   UNL     1       1.847  17.059  21.586  0.00  0.00    +0.000 HD
ENDBRANCH  23  26
ENDBRANCH   7  23
TORSDOF 5
ENDMDL
MODEL 4
REMARK VINA RESULT:      -7.0      1.387      2.024
REMARK  Name = 
REMARK  6 active torsions:
REMARK  status: ('A' for Active; 'I' for Inactive)
REMARK    1  A    between atoms: C_1  and  O_2
REMARK    2  A    between atoms: O_2  and  C_3
REMARK    3  A    between atoms: C_5  and  C_6
REMARK    4  A    between atoms: C_12  and  C_13
REMARK    5  A    between atoms: C_19  and  S_20
REMARK    6  A    between atoms: S_20  and  N_23
REMARK                            x       y       z     vdW  Elec       q    Type
REMARK                         _______ _______ _______ _____ _____    ______ ____
ROOT
ATOM      1  C   UNL     1      -5.601  12.175  18.061  0.00  0.00    +0.000 A 
ATOM      2  C   UNL     1      -6.007  12.790  16.876  0.00  0.00    +0.000 A 
ATOM      3  C   UNL     1      -7.117  13.634  16.839  0.00  0.00    +0.000 A 
ATOM      4  C   UNL     1      -7.731  14.008  18.028  0.00  0.00    +0.000 A 
ATOM      5  C   UNL     1      -7.379  13.362  19.225  0.00  0.00    +0.000 A 
ATOM      6  C   UNL     1      -7.818  13.767  20.510  0.00  0.00    +0.000 A 
ATOM      7  C   UNL     1      -7.580  12.945  21.621  0.00  0.00    +0.000 A 
ATOM      8  C   UNL     1      -7.461  11.599  21.336  0.00  0.00    +0.000 A 
ATOM      9  C   UNL     1      -6.776  11.286  20.167  0.00  0.00    +0.000 A 
ATOM     10  C   UNL     1      -6.525  12.250  19.153  0.00  0.00    +0.000 A 
ENDROOT
BRANCH   1  16
ATOM     11  C   UNL     1      -3.504  10.839  17.258  0.00  0.00    +0.000 A 
ATOM     12  C   UNL     1      -2.171  10.416  17.448  0.00  0.00    +0.000 A 
ATOM     13  C   UNL     1      -1.410  10.836  18.540  0.00  0.00    +0.000 A 
ATOM     14  C   UNL     1      -2.000  11.715  19.440  0.00  0.00    +0.000 A 
ATOM     15  C   UNL     1      -3.336  12.113  19.281  0.00  0.00    +0.000 A 
ATOM     16  C   UNL     1      -4.157  11.681  18.218  0.00  0.00    +0.000 A 
BRANCH  13  17
ATOM     17  C   UNL     1       0.001  10.349  18.744  0.00  0.00    +0.000 C 
ATOM     18  F   UNL     1       0.920  11.355  18.793  0.00  0.00    +0.000 F 
ATOM     19  F   UNL     1       0.158   9.645  19.897  0.00  0.00    +0.000 F 
ATOM     20  F   UNL     1       0.413   9.524  17.740  0.00  0.00    +0.000 F 
ENDBRANCH  13  17
BRANCH  11  22
ATOM     21  C   UNL     1      -3.493  10.424  14.887  0.00  0.00    +0.000 C 
ATOM     22  O   UNL     1      -4.201  10.460  16.128  0.00  0.00    +0.000 OA
ENDBRANCH  11  22
ENDBRANCH   1  16
BRANCH   7  23
ATOM     23  S   UNL     1      -6.137  13.437  22.707  0.00  0.00    +0.000 S 
ATOM     24  O   UNL     1      -6.661  14.331  23.724  0.00  0.00    +0.000 OA
ATOM     25  O   UNL     1      -5.439  12.218  23.052  0.00  0.00    +0.000 OA
BRANCH  23  26
ATOM     26  N   UNL     1      -5.106  14.284  21.671  0.00  0.00    +0.000 N 
ATOM     27  C   UNL     1      -4.101  14.972  22.413  0.00  0.00    +0.000 A 
ATOM     28  N   UNL     1      -2.995  14.342  22.721  0.00  0.00    +0.000 NA
ATOM     29  C   UNL     1      -2.068  15.253  23.199  0.00  0.00    +0.000 A 
ATOM     30  C   UNL     1      -2.466  16.574  23.168  0.00  0.00    +0.000 A 
ATOM     31  S   UNL     1      -4.106  16.664  22.656  0.00  0.00    +0.000 S 
ATOM     32  H   UNL     1      -4.585  13.514  21.244  0.00  0.00    +0.000 HD
ENDBRANCH  23  26
ENDBRANCH   7  23
TORSDOF 5
ENDMDL
MODEL 5
REMARK VINA RESULT:      -7.0      6.230      8.279
REMARK  Name = 
REMARK  6 active torsions:
REMARK  status: ('A' for Active; 'I' for Inactive)
REMARK    1  A    between atoms: C_1  and  O_2
REMARK    2  A    between atoms: O_2  and  C_3
REMARK    3  A    between atoms: C_5  and  C_6
REMARK    4  A    between atoms: C_12  and  C_13
REMARK    5  A    between atoms: C_19  and  S_20
REMARK    6  A    between atoms: S_20  and  N_23
REMARK                            x       y       z     vdW  Elec       q    Type
REMARK                         _______ _______ _______ _____ _____    ______ ____
ROOT
ATOM      1  C   UNL     1      -0.057  10.463  19.201  0.00  0.00    +0.000 A 
ATOM      2  C   UNL     1      -1.377  10.256  18.797  0.00  0.00    +0.000 A 
ATOM      3  C   UNL     1      -2.223  11.327  18.505  0.00  0.00    +0.000 A 
ATOM      4  C   UNL     1      -1.702  12.615  18.450  0.00  0.00    +0.000 A 
ATOM      5  C   UNL     1      -0.395  12.856  18.906  0.00  0.00    +0.000 A 
ATOM      6  C   UNL     1       0.291  14.085  18.749  0.00  0.00    +0.000 A 
ATOM      7  C   UNL     1       1.509  14.295  19.411  0.00  0.00    +0.000 A 
ATOM      8  C   UNL     1       1.675  13.567  20.573  0.00  0.00    +0.000 A 
ATOM      9  C   UNL     1       1.194  12.263  20.544  0.00  0.00    +0.000 A 
ATOM     10  C   UNL     1       0.288  11.810  19.547  0.00  0.00    +0.000 A 
ENDROOT
BRANCH   1  16
ATOM     11  C   UNL     1       1.255   8.369  20.048  0.00  0.00    +0.000 A 
ATOM     12  C   UNL     1       2.220   7.358  19.844  0.00  0.00    +0.000 A 
ATOM     13  C   UNL     1       2.912   7.230  18.640  0.00  0.00    +0.000 A 
ATOM     14  C   UNL     1       2.607   8.122  17.619  0.00  0.00    +0.000 A 
ATOM     15  C   UNL     1       1.676   9.151  17.823  0.00  0.00    +0.000 A 
ATOM     16  C   UNL     1       0.984   9.348  19.036  0.00  0.00    +0.000 A 
BRANCH  13  17
ATOM     17  C   UNL     1       3.962   6.166  18.451  0.00  0.00    +0.000 C 
ATOM     18  F   UNL     1       4.443   5.663  19.623  0.00  0.00    +0.000 F 
ATOM     19  F   UNL     1       3.510   5.095  17.744  0.00  0.00    +0.000 F 
ATOM     20  F   UNL     1       5.051   6.629  17.776  0.00  0.00    +0.000 F 
ENDBRANCH  13  17
BRANCH  11  22
ATOM     21  C   UNL     1       1.140   9.078  22.345  0.00  0.00    +0.000 C 
ATOM     22  O   UNL     1       0.539   8.420  21.228  0.00  0.00    +0.000 OA
ENDBRANCH  11  22
ENDBRANCH   1  16
BRANCH   7  23
ATOM     23  S   UNL     1       3.051  14.084  18.371  0.00  0.00    +0.000 S 
ATOM     24  O   UNL     1       3.010  12.737  17.827  0.00  0.00    +0.000 OA
ATOM     25  O   UNL     1       3.142  15.247  17.516  0.00  0.00    +0.000 OA
BRANCH  23  26
ATOM     26  N   UNL     1       4.320  14.220  19.477  0.00  0.00    +0.000 N 
ATOM     27  C   UNL     1       5.041  15.434  19.270  0.00  0.00    +0.000 A 
ATOM     28  N   UNL     1       4.631  16.526  19.866  0.00  0.00    +0.000 NA
ATOM     29  C   UNL     1       5.603  17.504  19.744  0.00  0.00    +0.000 A 
ATOM     30  C   UNL     1       6.770  17.106  19.124  0.00  0.00    +0.000 A 
ATOM     31  S   UNL     1       6.590  15.494  18.550  0.00  0.00    +0.000 S 
ATOM     32  H   UNL     1       3.805  14.407  20.342  0.00  0.00    +0.000 HD
ENDBRANCH  23  26
ENDBRANCH   7  23
TORSDOF 5
ENDMDL
MODEL 6
REMARK VINA RESULT:      -6.9      8.774     12.103
REMARK  Name = 
REMARK  6 active torsions:
REMARK  status: ('A' for Active; 'I' for Inactive)
REMARK    1  A    between atoms: C_1  and  O_2
REMARK    2  A    between atoms: O_2  and  C_3
REMARK    3  A    between atoms: C_5  and  C_6
REMARK    4  A    between atoms: C_12  and  C_13
REMARK    5  A    between atoms: C_19  and  S_20
REMARK    6  A    between atoms: S_20  and  N_23
REMARK                            x       y       z     vdW  Elec       q    Type
REMARK                         _______ _______ _______ _____ _____    ______ ____
ROOT
ATOM      1  C   UNL     1       1.870   5.523  19.826  0.00  0.00    +0.000 A 
ATOM      2  C   UNL     1       1.647   5.079  21.130  0.00  0.00    +0.000 A 
ATOM      3  C   UNL     1       2.128   3.844  21.568  0.00  0.00    +0.000 A 
ATOM      4  C   UNL     1       2.988   3.118  20.754  0.00  0.00    +0.000 A 
ATOM      5  C   UNL     1       3.183   3.514  19.420  0.00  0.00    +0.000 A 
ATOM      6  C   UNL     1       4.151   2.951  18.553  0.00  0.00    +0.000 A 
ATOM      7  C   UNL     1       4.136   3.269  17.187  0.00  0.00    +0.000 A 
ATOM      8  C   UNL     1       2.901   3.629  16.685  0.00  0.00    +0.000 A 
ATOM      9  C   UNL     1       2.113   4.413  17.520  0.00  0.00    +0.000 A 
ATOM     10  C   UNL     1       2.380   4.547  18.910  0.00  0.00    +0.000 A 
ENDROOT
BRANCH   1  16
ATOM     11  C   UNL     1       1.157   7.982  20.349  0.00  0.00    +0.000 A 
ATOM     12  C   UNL     1       1.122   9.351  20.004  0.00  0.00    +0.000 A 
ATOM     13  C   UNL     1       1.750   9.840  18.859  0.00  0.00    +0.000 A 
ATOM     14  C   UNL     1       2.443   8.936  18.063  0.00  0.00    +0.000 A 
ATOM     15  C   UNL     1       2.453   7.568  18.377  0.00  0.00    +0.000 A 
ATOM     16  C   UNL     1       1.797   7.021  19.499  0.00  0.00    +0.000 A 
BRANCH  13  17
ATOM     17  C   UNL     1       1.676  11.299  18.490  0.00  0.00    +0.000 C 
ATOM     18  F   UNL     1       1.987  12.136  19.520  0.00  0.00    +0.000 F 
ATOM     19  F   UNL     1       2.517  11.633  17.474  0.00  0.00    +0.000 F 
ATOM     20  F   UNL     1       0.429  11.666  18.082  0.00  0.00    +0.000 F 
ENDBRANCH  13  17
BRANCH  11  22
ATOM     21  C   UNL     1      -0.321   8.426  22.196  0.00  0.00    +0.000 C 
ATOM     22  O   UNL     1       0.585   7.546  21.528  0.00  0.00    +0.000 OA
ENDBRANCH  11  22
ENDBRANCH   1  16
BRANCH   7  23
ATOM     23  S   UNL     1       5.381   4.553  16.634  0.00  0.00    +0.000 S 
ATOM     24  O   UNL     1       6.675   3.894  16.595  0.00  0.00    +0.000 OA
ATOM     25  O   UNL     1       4.823   5.201  15.467  0.00  0.00    +0.000 OA
BRANCH  23  26
ATOM     26  N   UNL     1       5.360   5.710  17.863  0.00  0.00    +0.000 N 
ATOM     27  C   UNL     1       6.573   6.462  17.868  0.00  0.00    +0.000 A 
ATOM     28  N   UNL     1       6.666   7.522  17.105  0.00  0.00    +0.000 NA
ATOM     29  C   UNL     1       7.800   8.236  17.453  0.00  0.00    +0.000 A 
ATOM     30  C   UNL     1       8.502   7.742  18.533  0.00  0.00    +0.000 A 
ATOM     31  S   UNL     1       7.799   6.256  19.040  0.00  0.00    +0.000 S 
ATOM     32  H   UNL     1       4.681   6.378  17.488  0.00  0.00    +0.000 HD
ENDBRANCH  23  26
ENDBRANCH   7  23
TORSDOF 5
ENDMDL
MODEL 7
REMARK VINA RESULT:      -6.9      5.854      8.159
REMARK  Name = 
REMARK  6 active torsions:
REMARK  status: ('A' for Active; 'I' for Inactive)
REMARK    1  A    between atoms: C_1  and  O_2
REMARK    2  A    between atoms: O_2  and  C_3
REMARK    3  A    between atoms: C_5  and  C_6
REMARK    4  A    between atoms: C_12  and  C_13
REMARK    5  A    between atoms: C_19  and  S_20
REMARK    6  A    between atoms: S_20  and  N_23
REMARK                            x       y       z     vdW  Elec       q    Type
REMARK                         _______ _______ _______ _____ _____    ______ ____
ROOT
ATOM      1  C   UNL     1      -0.776  11.668  19.648  0.00  0.00    +0.000 A 
ATOM      2  C   UNL     1      -0.739  10.379  19.114  0.00  0.00    +0.000 A 
ATOM      3  C   UNL     1       0.342   9.942  18.348  0.00  0.00    +0.000 A 
ATOM      4  C   UNL     1       1.479  10.736  18.253  0.00  0.00    +0.000 A 
ATOM      5  C   UNL     1       1.446  12.057  18.732  0.00  0.00    +0.000 A 
ATOM      6  C   UNL     1       2.581  12.897  18.835  0.00  0.00    +0.000 A 
ATOM      7  C   UNL     1       2.419  14.258  19.132  0.00  0.00    +0.000 A 
ATOM      8  C   UNL     1       1.205  14.798  18.755  0.00  0.00    +0.000 A 
ATOM      9  C   UNL     1       0.096  13.979  18.937  0.00  0.00    +0.000 A 
ATOM     10  C   UNL     1       0.213  12.579  19.154  0.00  0.00    +0.000 A 
ENDROOT
BRANCH   1  16
ATOM     11  C   UNL     1      -1.294  11.678  22.208  0.00  0.00    +0.000 A 
ATOM     12  C   UNL     1      -2.151  11.987  23.288  0.00  0.00    +0.000 A 
ATOM     13  C   UNL     1      -3.368  12.643  23.100  0.00  0.00    +0.000 A 
ATOM     14  C   UNL     1      -3.713  13.011  21.806  0.00  0.00    +0.000 A 
ATOM     15  C   UNL     1      -2.886  12.677  20.722  0.00  0.00    +0.000 A 
ATOM     16  C   UNL     1      -1.669  11.977  20.857  0.00  0.00    +0.000 A 
BRANCH  13  17
ATOM     17  C   UNL     1      -4.284  12.937  24.259  0.00  0.00    +0.000 C 
ATOM     18  F   UNL     1      -5.423  13.593  23.899  0.00  0.00    +0.000 F 
ATOM     19  F   UNL     1      -4.693  11.815  24.911  0.00  0.00    +0.000 F 
ATOM     20  F   UNL     1      -3.690  13.723  25.201  0.00  0.00    +0.000 F 
ENDBRANCH  13  17
BRANCH  11  22
ATOM     21  C   UNL     1      -0.044   9.719  22.836  0.00  0.00    +0.000 C 
ATOM     22  O   UNL     1      -0.065  11.093  22.440  0.00  0.00    +0.000 OA
ENDBRANCH  11  22
ENDBRANCH   1  16
BRANCH   7  23
ATOM     23  S   UNL     1       2.742  14.749  20.910  0.00  0.00    +0.000 S 
ATOM     24  O   UNL     1       2.506  16.180  21.000  0.00  0.00    +0.000 OA
ATOM     25  O   UNL     1       2.026  13.806  21.741  0.00  0.00    +0.000 OA
BRANCH  23  26
ATOM     26  N   UNL     1       4.382  14.421  21.141  0.00  0.00    +0.000 N 
ATOM     27  C   UNL     1       4.830  14.947  22.389  0.00  0.00    +0.000 A 
ATOM     28  N   UNL     1       4.707  14.215  23.469  0.00  0.00    +0.000 NA
ATOM     29  C   UNL     1       5.428  14.796  24.498  0.00  0.00    +0.000 A 
ATOM     30  C   UNL     1       6.153  15.918  24.154  0.00  0.00    +0.000 A 
ATOM     31  S   UNL     1       5.808  16.342  22.523  0.00  0.00    +0.000 S 
ATOM     32  H   UNL     1       4.355  13.412  21.317  0.00  0.00    +0.000 HD
ENDBRANCH  23  26
ENDBRANCH   7  23
TORSDOF 5
ENDMDL
MODEL 8
REMARK VINA RESULT:      -6.8      1.475      2.180
REMARK  Name = 
REMARK  6 active torsions:
REMARK  status: ('A' for Active; 'I' for Inactive)
REMARK    1  A    between atoms: C_1  and  O_2
REMARK    2  A    between atoms: O_2  and  C_3
REMARK    3  A    between atoms: C_5  and  C_6
REMARK    4  A    between atoms: C_12  and  C_13
REMARK    5  A    between atoms: C_19  and  S_20
REMARK    6  A    between atoms: S_20  and  N_23
REMARK                            x       y       z     vdW  Elec       q    Type
REMARK                         _______ _______ _______ _____ _____    ______ ____
ROOT
ATOM      1  C   UNL     1      -5.640  12.205  18.337  0.00  0.00    +0.000 A 
ATOM      2  C   UNL     1      -6.080  12.780  17.144  0.00  0.00    +0.000 A 
ATOM      3  C   UNL     1      -7.228  13.571  17.100  0.00  0.00    +0.000 A 
ATOM      4  C   UNL     1      -7.852  13.938  18.287  0.00  0.00    +0.000 A 
ATOM      5  C   UNL     1      -7.464  13.329  19.493  0.00  0.00    +0.000 A 
ATOM      6  C   UNL     1      -7.913  13.736  20.773  0.00  0.00    +0.000 A 
ATOM      7  C   UNL     1      -7.632  12.946  21.896  0.00  0.00    +0.000 A 
ATOM      8  C   UNL     1      -7.453  11.601  21.634  0.00  0.00    +0.000 A 
ATOM      9  C   UNL     1      -6.762  11.299  20.466  0.00  0.00    +0.000 A 
ATOM     10  C   UNL     1      -6.561  12.256  19.434  0.00  0.00    +0.000 A 
ENDROOT
BRANCH   1  16
ATOM     11  C   UNL     1      -3.493  10.942  17.549  0.00  0.00    +0.000 A 
ATOM     12  C   UNL     1      -2.140  10.584  17.737  0.00  0.00    +0.000 A 
ATOM     13  C   UNL     1      -1.390  11.066  18.810  0.00  0.00    +0.000 A 
ATOM     14  C   UNL     1      -2.010  11.942  19.693  0.00  0.00    +0.000 A 
ATOM     15  C   UNL     1      -3.364  12.276  19.536  0.00  0.00    +0.000 A 
ATOM     16  C   UNL     1      -4.174  11.779  18.493  0.00  0.00    +0.000 A 
BRANCH  13  17
ATOM     17  C   UNL     1       0.043  10.649  19.013  0.00  0.00    +0.000 C 
ATOM     18  F   UNL     1       0.428  10.643  20.321  0.00  0.00    +0.000 F 
ATOM     19  F   UNL     1       0.303   9.398  18.545  0.00  0.00    +0.000 F 
ATOM     20  F   UNL     1       0.918  11.477  18.376  0.00  0.00    +0.000 F 
ENDBRANCH  13  17
BRANCH  11  22
ATOM     21  C   UNL     1      -3.536  10.609  15.166  0.00  0.00    +0.000 C 
ATOM     22  O   UNL     1      -4.182  10.502  16.437  0.00  0.00    +0.000 OA
ENDBRANCH  11  22
ENDBRANCH   1  16
BRANCH   7  23
ATOM     23  S   UNL     1      -6.206  13.521  22.964  0.00  0.00    +0.000 S 
ATOM     24  O   UNL     1      -5.696  12.348  23.653  0.00  0.00    +0.000 OA
ATOM     25  O   UNL     1      -5.358  14.338  22.124  0.00  0.00    +0.000 OA
BRANCH  23  26
ATOM     26  N   UNL     1      -6.917  14.577  24.074  0.00  0.00    +0.000 N 
ATOM     27  C   UNL     1      -6.699  15.933  23.690  0.00  0.00    +0.000 A 
ATOM     28  N   UNL     1      -7.542  16.504  22.865  0.00  0.00    +0.000 NA
ATOM     29  C   UNL     1      -7.298  17.867  22.835  0.00  0.00    +0.000 A 
ATOM     30  C   UNL     1      -6.323  18.313  23.702  0.00  0.00    +0.000 A 
ATOM     31  S   UNL     1      -5.590  16.966  24.480  0.00  0.00    +0.000 S 
ATOM     32  H   UNL     1      -7.910  14.439  23.864  0.00  0.00    +0.000 HD
ENDBRANCH  23  26
ENDBRANCH   7  23
TORSDOF 5
ENDMDL
MODEL 9
REMARK VINA RESULT:      -6.8      5.998      8.461
REMARK  Name = 
REMARK  6 active torsions:
REMARK  status: ('A' for Active; 'I' for Inactive)
REMARK    1  A    between atoms: C_1  and  O_2
REMARK    2  A    between atoms: O_2  and  C_3
REMARK    3  A    between atoms: C_5  and  C_6
REMARK    4  A    between atoms: C_12  and  C_13
REMARK    5  A    between atoms: C_19  and  S_20
REMARK    6  A    between atoms: S_20  and  N_23
REMARK                            x       y       z     vdW  Elec       q    Type
REMARK                         _______ _______ _______ _____ _____    ______ ____
ROOT
ATOM      1  C   UNL     1      -0.684  11.600  19.615  0.00  0.00    +0.000 A 
ATOM      2  C   UNL     1      -0.621  10.299  19.116  0.00  0.00    +0.000 A 
ATOM      3  C   UNL     1       0.469   9.864  18.361  0.00  0.00    +0.000 A 
ATOM      4  C   UNL     1       1.590  10.678  18.245  0.00  0.00    +0.000 A 
ATOM      5  C   UNL     1       1.530  12.010  18.689  0.00  0.00    +0.000 A 
ATOM      6  C   UNL     1       2.648  12.876  18.769  0.00  0.00    +0.000 A 
ATOM      7  C   UNL     1       2.458  14.240  19.031  0.00  0.00    +0.000 A 
ATOM      8  C   UNL     1       1.234  14.745  18.639  0.00  0.00    +0.000 A 
ATOM      9  C   UNL     1       0.141  13.909  18.843  0.00  0.00    +0.000 A 
ATOM     10  C   UNL     1       0.287  12.518  19.097  0.00  0.00    +0.000 A 
ENDROOT
BRANCH   1  16
ATOM     11  C   UNL     1      -1.236  11.597  22.169  0.00  0.00    +0.000 A 
ATOM     12  C   UNL     1      -2.097  11.920  23.240  0.00  0.00    +0.000 A 
ATOM     13  C   UNL     1      -3.291  12.616  23.045  0.00  0.00    +0.000 A 
ATOM     14  C   UNL     1      -3.606  13.010  21.750  0.00  0.00    +0.000 A 
ATOM     15  C   UNL     1      -2.776  12.662  20.674  0.00  0.00    +0.000 A 
ATOM     16  C   UNL     1      -1.583  11.923  20.817  0.00  0.00    +0.000 A 
BRANCH  13  17
ATOM     17  C   UNL     1      -4.213  12.925  24.195  0.00  0.00    +0.000 C 
ATOM     18  F   UNL     1      -4.463  11.849  24.995  0.00  0.00    +0.000 F 
ATOM     19  F   UNL     1      -3.729  13.894  25.017  0.00  0.00    +0.000 F 
ATOM     20  F   UNL     1      -5.433  13.362  23.776  0.00  0.00    +0.000 F 
ENDBRANCH  13  17
BRANCH  11  22
ATOM     21  C   UNL     1      -0.052   9.718  23.097  0.00  0.00    +0.000 C 
ATOM     22  O   UNL     1      -0.029  10.971  22.410  0.00  0.00    +0.000 OA
ENDBRANCH  11  22
ENDBRANCH   1  16
BRANCH   7  23
ATOM     23  S   UNL     1       2.771  14.785  20.794  0.00  0.00    +0.000 S 
ATOM     24  O   UNL     1       2.337  16.168  20.890  0.00  0.00    +0.000 OA
ATOM     25  O   UNL     1       2.226  13.756  21.653  0.00  0.00    +0.000 OA
BRANCH  23  26
ATOM     26  N   UNL     1       4.448  14.695  20.967  0.00  0.00    +0.000 N 
ATOM     27  C   UNL     1       5.089  15.707  20.193  0.00  0.00    +0.000 A 
ATOM     28  N   UNL     1       5.270  16.892  20.721  0.00  0.00    +0.000 NA
ATOM     29  C   UNL     1       6.126  17.624  19.916  0.00  0.00    +0.000 A 
ATOM     30  C   UNL     1       6.643  16.947  18.831  0.00  0.00    +0.000 A 
ATOM     31  S   UNL     1       5.924  15.387  18.737  0.00  0.00    +0.000 S 
ATOM     32  H   UNL     1       4.563  15.036  21.926  0.00  0.00    +0.000 HD
ENDBRANCH  23  26
ENDBRANCH   7  23
TORSDOF 5
ENDMDL
