MODEL 1
REMARK VINA RESULT:      -3.6      0.000      0.000
REMARK  Name = 
REMARK  5 active torsions:
REMARK  status: ('A' for Active; 'I' for Inactive)
REMARK    1  A    between atoms: N_1  and  C_2
REMARK    2  A    between atoms: C_2  and  C_3
REMARK    3  A    between atoms: C_3  and  C_4
REMARK    4  A    between atoms: C_4  and  C_5
REMARK    5  A    between atoms: C_5  and  N_6
REMARK                            x       y       z     vdW  Elec       q    Type
REMARK                         _______ _______ _______ _____ _____    ______ ____
ROOT
ATOM      1  C   UNL     1       9.889   4.312  27.680  0.00  0.00    +0.000 C 
ENDROOT
BRANCH   1   2
ATOM      2  C   UNL     1      11.274   4.715  28.199  0.00  0.00    +0.000 C 
BRANCH   2   3
ATOM      3  N   UNL     1      11.829   5.795  27.390  0.00  0.00    +0.000 NA
ATOM      4  H   UNL     1      11.040   6.357  26.996  0.00  0.00    +0.000 HD
ATOM      5  H   UNL     1      12.354   5.381  26.586  0.00  0.00    +0.000 HD
ENDBRANCH   2   3
ENDBRANCH   1   2
BRANCH   1   6
ATOM      6  C   UNL     1       8.816   5.274  28.204  0.00  0.00    +0.000 C 
BRANCH   6   7
ATOM      7  C   UNL     1       7.419   4.867  27.727  0.00  0.00    +0.000 C 
BRANCH   7   8
ATOM      8  N   UNL     1       7.519   3.805  26.730  0.00  0.00    +0.000 NA
ATOM      9  H   UNL     1       6.560   3.558  26.392  0.00  0.00    +0.000 HD
ATOM     10  H   UNL     1       7.924   2.956  27.188  0.00  0.00    +0.000 HD
ENDBRANCH   7   8
ENDBRANCH   6   7
ENDBRANCH   1   6
TORSDOF 5
ENDMDL
MODEL 2
REMARK VINA RESULT:      -3.4     10.859     11.681
REMARK  Name = 
REMARK  5 active torsions:
REMARK  status: ('A' for Active; 'I' for Inactive)
REMARK    1  A    between atoms: N_1  and  C_2
REMARK    2  A    between atoms: C_2  and  C_3
REMARK    3  A    between atoms: C_3  and  C_4
REMARK    4  A    between atoms: C_4  and  C_5
REMARK    5  A    between atoms: C_5  and  N_6
REMARK                            x       y       z     vdW  Elec       q    Type
REMARK                         _______ _______ _______ _____ _____    ______ ____
ROOT
ATOM      1  C   UNL     1       4.676   4.466  16.750  0.00  0.00    +0.000 C 
ENDROOT
BRANCH   1   2
ATOM      2  C   UNL     1       4.329   3.481  17.873  0.00  0.00    +0.000 C 
BRANCH   2   3
ATOM      3  N   UNL     1       5.341   3.525  18.923  0.00  0.00    +0.000 NA
ATOM      4  H   UNL     1       5.976   2.702  18.809  0.00  0.00    +0.000 HD
ATOM      5  H   UNL     1       4.870   3.435  19.852  0.00  0.00    +0.000 HD
ENDBRANCH   2   3
ENDBRANCH   1   2
BRANCH   1   6
ATOM      6  C   UNL     1       5.767   3.886  15.842  0.00  0.00    +0.000 C 
BRANCH   6   7
ATOM      7  C   UNL     1       7.064   4.694  15.939  0.00  0.00    +0.000 C 
BRANCH   7   8
ATOM      8  N   UNL     1       7.862   4.228  17.069  0.00  0.00    +0.000 NA
ATOM      9  H   UNL     1       7.240   3.733  17.749  0.00  0.00    +0.000 HD
ATOM     10  H   UNL     1       8.268   5.060  17.556  0.00  0.00    +0.000 HD
ENDBRANCH   7   8
ENDBRANCH   6   7
ENDBRANCH   1   6
TORSDOF 5
ENDMDL
MODEL 3
REMARK VINA RESULT:      -3.3     17.993     19.502
REMARK  Name = 
REMARK  5 active torsions:
REMARK  status: ('A' for Active; 'I' for Inactive)
REMARK    1  A    between atoms: N_1  and  C_2
REMARK    2  A    between atoms: C_2  and  C_3
REMARK    3  A    between atoms: C_3  and  C_4
REMARK    4  A    between atoms: C_4  and  C_5
REMARK    5  A    between atoms: C_5  and  N_6
REMARK                            x       y       z     vdW  Elec       q    Type
REMARK                         _______ _______ _______ _____ _____    ______ ____
ROOT
ATOM      1  C   UNL     1      -3.079   9.815  13.743  0.00  0.00    +0.000 C 
ENDROOT
BRANCH   1   2
ATOM      2  C   UNL     1      -4.212   9.835  12.709  0.00  0.00    +0.000 C 
BRANCH   2   3
ATOM      3  N   UNL     1      -3.672   9.734  11.357  0.00  0.00    +0.000 NA
ATOM      4  H   UNL     1      -4.430   9.970  10.676  0.00  0.00    +0.000 HD
ATOM      5  H   UNL     1      -3.386   8.744  11.180  0.00  0.00    +0.000 HD
ENDBRANCH   2   3
ENDBRANCH   1   2
BRANCH   1   6
ATOM      6  C   UNL     1      -3.496  10.566  15.012  0.00  0.00    +0.000 C 
BRANCH   6   7
ATOM      7  C   UNL     1      -2.481  10.362  16.141  0.00  0.00    +0.000 C 
BRANCH   7   8
ATOM      8  N   UNL     1      -2.021  11.654  16.642  0.00  0.00    +0.000 NA
ATOM      9  H   UNL     1      -1.568  12.184  15.862  0.00  0.00    +0.000 HD
ATOM     10  H   UNL     1      -1.294  11.487  17.376  0.00  0.00    +0.000 HD
ENDBRANCH   7   8
ENDBRANCH   6   7
ENDBRANCH   1   6
TORSDOF 5
ENDMDL
MODEL 4
REMARK VINA RESULT:      -3.3     11.067     11.791
REMARK  Name = 
REMARK  5 active torsions:
REMARK  status: ('A' for Active; 'I' for Inactive)
REMARK    1  A    between atoms: N_1  and  C_2
REMARK    2  A    between atoms: C_2  and  C_3
REMARK    3  A    between atoms: C_3  and  C_4
REMARK    4  A    between atoms: C_4  and  C_5
REMARK    5  A    between atoms: C_5  and  N_6
REMARK                            x       y       z     vdW  Elec       q    Type
REMARK                         _______ _______ _______ _____ _____    ______ ____
ROOT
ATOM      1  C   UNL     1       5.762   5.887  16.361  0.00  0.00    +0.000 C 
ENDROOT
BRANCH   1   2
ATOM      2  C   UNL     1       5.999   5.207  15.006  0.00  0.00    +0.000 C 
BRANCH   2   3
ATOM      3  N   UNL     1       7.417   5.229  14.664  0.00  0.00    +0.000 NA
ATOM      4  H   UNL     1       7.673   6.198  14.364  0.00  0.00    +0.000 HD
ATOM      5  H   UNL     1       7.579   4.594  13.850  0.00  0.00    +0.000 HD
ENDBRANCH   2   3
ENDBRANCH   1   2
BRANCH   1   6
ATOM      6  C   UNL     1       7.097   6.252  17.021  0.00  0.00    +0.000 C 
BRANCH   6   7
ATOM      7  C   UNL     1       7.425   5.305  18.179  0.00  0.00    +0.000 C 
BRANCH   7   8
ATOM      8  N   UNL     1       8.137   4.131  17.681  0.00  0.00    +0.000 NA
ATOM      9  H   UNL     1       8.677   4.394  16.825  0.00  0.00    +0.000 HD
ATOM     10  H   UNL     1       7.433   3.409  17.404  0.00  0.00    +0.000 HD
ENDBRANCH   7   8
ENDBRANCH   6   7
ENDBRANCH   1   6
TORSDOF 5
ENDMDL
MODEL 5
REMARK VINA RESULT:      -3.3      8.788      9.889
REMARK  Name = 
REMARK  5 active torsions:
REMARK  status: ('A' for Active; 'I' for Inactive)
REMARK    1  A    between atoms: N_1  and  C_2
REMARK    2  A    between atoms: C_2  and  C_3
REMARK    3  A    between atoms: C_3  and  C_4
REMARK    4  A    between atoms: C_4  and  C_5
REMARK    5  A    between atoms: C_5  and  N_6
REMARK                            x       y       z     vdW  Elec       q    Type
REMARK                         _______ _______ _______ _____ _____    ______ ____
ROOT
ATOM      1  C   UNL     1       5.635   5.505  18.103  0.00  0.00    +0.000 C 
ENDROOT
BRANCH   1   2
ATOM      2  C   UNL     1       4.779   4.266  18.399  0.00  0.00    +0.000 C 
BRANCH   2   3
ATOM      3  N   UNL     1       5.465   3.384  19.337  0.00  0.00    +0.000 NA
ATOM      4  H   UNL     1       6.478   3.643  19.361  0.00  0.00    +0.000 HD
ATOM      5  H   UNL     1       5.398   2.401  18.988  0.00  0.00    +0.000 HD
ENDBRANCH   2   3
ENDBRANCH   1   2
BRANCH   1   6
ATOM      6  C   UNL     1       7.123   5.138  18.077  0.00  0.00    +0.000 C 
BRANCH   6   7
ATOM      7  C   UNL     1       7.932   6.014  19.037  0.00  0.00    +0.000 C 
BRANCH   7   8
ATOM      8  N   UNL     1       8.007   5.381  20.351  0.00  0.00    +0.000 NA
ATOM      9  H   UNL     1       7.600   6.026  21.067  0.00  0.00    +0.000 HD
ATOM     10  H   UNL     1       9.014   5.233  20.592  0.00  0.00    +0.000 HD
ENDBRANCH   7   8
ENDBRANCH   6   7
ENDBRANCH   1   6
TORSDOF 5
ENDMDL
MODEL 6
REMARK VINA RESULT:      -3.2     11.243     11.925
REMARK  Name = 
REMARK  5 active torsions:
REMARK  status: ('A' for Active; 'I' for Inactive)
REMARK    1  A    between atoms: N_1  and  C_2
REMARK    2  A    between atoms: C_2  and  C_3
REMARK    3  A    between atoms: C_3  and  C_4
REMARK    4  A    between atoms: C_4  and  C_5
REMARK    5  A    between atoms: C_5  and  N_6
REMARK                            x       y       z     vdW  Elec       q    Type
REMARK                         _______ _______ _______ _____ _____    ______ ____
ROOT
ATOM      1  C   UNL     1       5.925   3.782  15.608  0.00  0.00    +0.000 C 
ENDROOT
BRANCH   1   2
ATOM      2  C   UNL     1       6.697   4.718  14.669  0.00  0.00    +0.000 C 
BRANCH   2   3
ATOM      3  N   UNL     1       7.580   5.593  15.431  0.00  0.00    +0.000 NA
ATOM      4  H   UNL     1       8.537   5.551  15.011  0.00  0.00    +0.000 HD
ATOM      5  H   UNL     1       7.649   5.235  16.411  0.00  0.00    +0.000 HD
ENDBRANCH   2   3
ENDBRANCH   1   2
BRANCH   1   6
ATOM      6  C   UNL     1       4.956   4.581  16.487  0.00  0.00    +0.000 C 
BRANCH   6   7
ATOM      7  C   UNL     1       5.239   4.360  17.976  0.00  0.00    +0.000 C 
BRANCH   7   8
ATOM      8  N   UNL     1       6.674   4.193  18.194  0.00  0.00    +0.000 NA
ATOM      9  H   UNL     1       6.827   3.471  18.935  0.00  0.00    +0.000 HD
ATOM     10  H   UNL     1       7.064   5.098  18.545  0.00  0.00    +0.000 HD
ENDBRANCH   7   8
ENDBRANCH   6   7
ENDBRANCH   1   6
TORSDOF 5
ENDMDL
MODEL 7
REMARK VINA RESULT:      -3.2     10.137     11.669
REMARK  Name = 
REMARK  5 active torsions:
REMARK  status: ('A' for Active; 'I' for Inactive)
REMARK    1  A    between atoms: N_1  and  C_2
REMARK    2  A    between atoms: C_2  and  C_3
REMARK    3  A    between atoms: C_3  and  C_4
REMARK    4  A    between atoms: C_4  and  C_5
REMARK    5  A    between atoms: C_5  and  N_6
REMARK                            x       y       z     vdW  Elec       q    Type
REMARK                         _______ _______ _______ _____ _____    ______ ____
ROOT
ATOM      1  C   UNL     1       0.940   3.687  20.049  0.00  0.00    +0.000 C 
ENDROOT
BRANCH   1   2
ATOM      2  C   UNL     1       2.125   3.423  20.986  0.00  0.00    +0.000 C 
BRANCH   2   3
ATOM      3  N   UNL     1       1.722   2.557  22.089  0.00  0.00    +0.000 NA
ATOM      4  H   UNL     1       2.370   2.717  22.894  0.00  0.00    +0.000 HD
ATOM      5  H   UNL     1       1.828   1.560  21.792  0.00  0.00    +0.000 HD
ENDBRANCH   2   3
ENDBRANCH   1   2
BRANCH   1   6
ATOM      6  C   UNL     1       0.819   2.572  19.004  0.00  0.00    +0.000 C 
BRANCH   6   7
ATOM      7  C   UNL     1       2.148   2.338  18.281  0.00  0.00    +0.000 C 
BRANCH   7   8
ATOM      8  N   UNL     1       2.239   3.202  17.108  0.00  0.00    +0.000 NA
ATOM      9  H   UNL     1       3.212   3.163  16.726  0.00  0.00    +0.000 HD
ATOM     10  H   UNL     1       2.053   4.188  17.405  0.00  0.00    +0.000 HD
ENDBRANCH   7   8
ENDBRANCH   6   7
ENDBRANCH   1   6
TORSDOF 5
ENDMDL
MODEL 8
REMARK VINA RESULT:      -3.2     14.982     15.542
REMARK  Name = 
REMARK  5 active torsions:
REMARK  status: ('A' for Active; 'I' for Inactive)
REMARK    1  A    between atoms: N_1  and  C_2
REMARK    2  A    between atoms: C_2  and  C_3
REMARK    3  A    between atoms: C_3  and  C_4
REMARK    4  A    between atoms: C_4  and  C_5
REMARK    5  A    between atoms: C_5  and  N_6
REMARK                            x       y       z     vdW  Elec       q    Type
REMARK                         _______ _______ _______ _____ _____    ______ ____
ROOT
ATOM      1  C   UNL     1       6.623   3.827  12.583  0.00  0.00    +0.000 C 
ENDROOT
BRANCH   1   2
ATOM      2  C   UNL     1       6.411   4.207  14.054  0.00  0.00    +0.000 C 
BRANCH   2   3
ATOM      3  N   UNL     1       7.390   5.207  14.469  0.00  0.00    +0.000 NA
ATOM      4  H   UNL     1       7.070   5.635  15.368  0.00  0.00    +0.000 HD
ATOM      5  H   UNL     1       7.423   5.966  13.752  0.00  0.00    +0.000 HD
ENDBRANCH   2   3
ENDBRANCH   1   2
BRANCH   1   6
ATOM      6  C   UNL     1       5.370   3.150  12.016  0.00  0.00    +0.000 C 
BRANCH   6   7
ATOM      7  C   UNL     1       5.703   1.792  11.391  0.00  0.00    +0.000 C 
BRANCH   7   8
ATOM      8  N   UNL     1       7.150   1.605  11.338  0.00  0.00    +0.000 NA
ATOM      9  H   UNL     1       7.360   0.621  11.051  0.00  0.00    +0.000 HD
ATOM     10  H   UNL     1       7.539   1.746  12.299  0.00  0.00    +0.000 HD
ENDBRANCH   7   8
ENDBRANCH   6   7
ENDBRANCH   1   6
TORSDOF 5
ENDMDL
MODEL 9
REMARK VINA RESULT:      -3.2     11.335     11.954
REMARK  Name = 
REMARK  5 active torsions:
REMARK  status: ('A' for Active; 'I' for Inactive)
REMARK    1  A    between atoms: N_1  and  C_2
REMARK    2  A    between atoms: C_2  and  C_3
REMARK    3  A    between atoms: C_3  and  C_4
REMARK    4  A    between atoms: C_4  and  C_5
REMARK    5  A    between atoms: C_5  and  N_6
REMARK                            x       y       z     vdW  Elec       q    Type
REMARK                         _______ _______ _______ _____ _____    ______ ____
ROOT
ATOM      1  C   UNL     1       1.622   4.155  17.969  0.00  0.00    +0.000 C 
ENDROOT
BRANCH   1   2
ATOM      2  C   UNL     1       2.537   3.074  17.381  0.00  0.00    +0.000 C 
BRANCH   2   3
ATOM      3  N   UNL     1       2.272   1.783  18.009  0.00  0.00    +0.000 NA
ATOM      4  H   UNL     1       3.164   1.421  18.418  0.00  0.00    +0.000 HD
ATOM      5  H   UNL     1       1.964   1.107  17.274  0.00  0.00    +0.000 HD
ENDBRANCH   2   3
ENDBRANCH   1   2
BRANCH   1   6
ATOM      6  C   UNL     1       2.158   4.639  19.321  0.00  0.00    +0.000 C 
BRANCH   6   7
ATOM      7  C   UNL     1       1.121   4.454  20.433  0.00  0.00    +0.000 C 
BRANCH   7   8
ATOM      8  N   UNL     1       0.674   3.064  20.475  0.00  0.00    +0.000 NA
ATOM      9  H   UNL     1       0.747   2.709  21.456  0.00  0.00    +0.000 HD
ATOM     10  H   UNL     1       1.315   2.490  19.880  0.00  0.00    +0.000 HD
ENDBRANCH   7   8
ENDBRANCH   6   7
ENDBRANCH   1   6
TORSDOF 5
ENDMDL
