MODEL 1
REMARK VINA RESULT:      -8.2      0.000      0.000
REMARK  Name = 
REMARK  5 active torsions:
REMARK  status: ('A' for Active; 'I' for Inactive)
REMARK    1  A    between atoms: S_2  and  C_4
REMARK    2  A    between atoms: S_2  and  C_11
REMARK    3  A    between atoms: C_20  and  C_21
REMARK    4  A    between atoms: C_21  and  N_22
REMARK    5  A    between atoms: C_24  and  O_25
REMARK                            x       y       z     vdW  Elec       q    Type
REMARK                         _______ _______ _______ _____ _____    ______ ____
ROOT
ATOM      1  C   UNL     1       2.691   6.452  18.946  0.00  0.00    +0.000 A 
ATOM      2  C   UNL     1       2.664   7.245  17.800  0.00  0.00    +0.000 A 
ATOM      3  C   UNL     1       2.081   8.517  17.854  0.00  0.00    +0.000 A 
ATOM      4  C   UNL     1       1.501   9.000  19.042  0.00  0.00    +0.000 A 
ATOM      5  C   UNL     1       1.564   8.201  20.202  0.00  0.00    +0.000 A 
ATOM      6  C   UNL     1       2.155   6.927  20.144  0.00  0.00    +0.000 A 
ATOM      7  C   UNL     1       0.903   8.614  21.496  0.00  0.00    +0.000 C 
ATOM      8  C   UNL     1       0.496  10.082  21.529  0.00  0.00    +0.000 C 
ATOM      9  C   UNL     1      -0.196  10.461  20.227  0.00  0.00    +0.000 C 
ATOM     10  C   UNL     1       0.755  10.337  19.020  0.00  0.00    +0.000 C 
ENDROOT
BRANCH   1  12
ATOM     11  O   UNL     1       2.361   4.126  17.814  0.00  0.00    +0.000 OA
ATOM     12  S   UNL     1       3.197   4.747  18.828  0.00  0.00    +0.000 S 
ATOM     13  O   UNL     1       3.220   4.205  20.175  0.00  0.00    +0.000 OA
BRANCH  12  14
ATOM     14  C   UNL     1       4.866   4.703  18.223  0.00  0.00    +0.000 A 
ATOM     15  C   UNL     1       5.124   4.240  16.927  0.00  0.00    +0.000 A 
ATOM     16  C   UNL     1       6.425   4.292  16.420  0.00  0.00    +0.000 A 
ATOM     17  C   UNL     1       7.455   4.814  17.203  0.00  0.00    +0.000 A 
ATOM     18  C   UNL     1       7.177   5.288  18.482  0.00  0.00    +0.000 A 
ATOM     19  F   UNL     1       8.168   5.804  19.221  0.00  0.00    +0.000 F 
ATOM     20  C   UNL     1       5.891   5.246  19.001  0.00  0.00    +0.000 A 
ENDBRANCH  12  14
ENDBRANCH   1  12
BRANCH  10  21
ATOM     21  C   UNL     1       1.740  11.535  18.866  0.00  0.00    +0.000 C 
BRANCH  21  22
ATOM     22  N   UNL     1       1.329  12.787  19.540  0.00  0.00    +0.000 NA
ATOM     23  C   UNL     1       0.927  13.841  18.585  0.00  0.00    +0.000 C 
ATOM     24  C   UNL     1       2.308  14.509  18.704  0.00  0.00    +0.000 C 
ATOM     25  C   UNL     1       2.524  13.578  19.918  0.00  0.00    +0.000 C 
BRANCH  24  26
ATOM     26  O   UNL     1       3.184  14.362  17.561  0.00  0.00    +0.000 OA
ATOM     27  H   UNL     1       2.841  14.973  16.888  0.00  0.00    +0.000 HD
ENDBRANCH  24  26
ENDBRANCH  21  22
ENDBRANCH  10  21
TORSDOF 5
ENDMDL
MODEL 2
REMARK VINA RESULT:      -8.1      1.035      1.403
REMARK  Name = 
REMARK  5 active torsions:
REMARK  status: ('A' for Active; 'I' for Inactive)
REMARK    1  A    between atoms: S_2  and  C_4
REMARK    2  A    between atoms: S_2  and  C_11
REMARK    3  A    between atoms: C_20  and  C_21
REMARK    4  A    between atoms: C_21  and  N_22
REMARK    5  A    between atoms: C_24  and  O_25
REMARK                            x       y       z     vdW  Elec       q    Type
REMARK                         _______ _______ _______ _____ _____    ______ ____
ROOT
ATOM      1  C   UNL     1       2.687   6.494  18.879  0.00  0.00    +0.000 A 
ATOM      2  C   UNL     1       2.646   7.315  17.753  0.00  0.00    +0.000 A 
ATOM      3  C   UNL     1       2.056   8.582  17.844  0.00  0.00    +0.000 A 
ATOM      4  C   UNL     1       1.484   9.032  19.047  0.00  0.00    +0.000 A 
ATOM      5  C   UNL     1       1.560   8.206  20.187  0.00  0.00    +0.000 A 
ATOM      6  C   UNL     1       2.158   6.937  20.093  0.00  0.00    +0.000 A 
ATOM      7  C   UNL     1       0.908   8.583  21.497  0.00  0.00    +0.000 C 
ATOM      8  C   UNL     1       0.493  10.047  21.569  0.00  0.00    +0.000 C 
ATOM      9  C   UNL     1      -0.211  10.454  20.282  0.00  0.00    +0.000 C 
ATOM     10  C   UNL     1       0.730  10.365  19.065  0.00  0.00    +0.000 C 
ENDROOT
BRANCH   1  12
ATOM     11  O   UNL     1       2.278   4.161  17.789  0.00  0.00    +0.000 OA
ATOM     12  S   UNL     1       3.201   4.795  18.715  0.00  0.00    +0.000 S 
ATOM     13  O   UNL     1       3.362   4.258  20.055  0.00  0.00    +0.000 OA
BRANCH  12  14
ATOM     14  C   UNL     1       4.803   4.771  17.950  0.00  0.00    +0.000 A 
ATOM     15  C   UNL     1       5.928   5.177  18.678  0.00  0.00    +0.000 A 
ATOM     16  C   UNL     1       7.198   5.070  18.105  0.00  0.00    +0.000 A 
ATOM     17  C   UNL     1       7.338   4.552  16.817  0.00  0.00    +0.000 A 
ATOM     18  C   UNL     1       6.211   4.136  16.115  0.00  0.00    +0.000 A 
ATOM     19  F   UNL     1       6.355   3.622  14.886  0.00  0.00    +0.000 F 
ATOM     20  C   UNL     1       4.942   4.231  16.669  0.00  0.00    +0.000 A 
ENDBRANCH  12  14
ENDBRANCH   1  12
BRANCH  10  21
ATOM     21  C   UNL     1       1.707  11.572  18.932  0.00  0.00    +0.000 C 
BRANCH  21  22
ATOM     22  N   UNL     1       1.260  12.826  19.578  0.00  0.00    +0.000 NA
ATOM     23  C   UNL     1       0.849  13.855  18.598  0.00  0.00    +0.000 C 
ATOM     24  C   UNL     1       2.214  14.554  18.727  0.00  0.00    +0.000 C 
ATOM     25  C   UNL     1       2.432  13.649  19.960  0.00  0.00    +0.000 C 
BRANCH  24  26
ATOM     26  O   UNL     1       3.110  14.407  17.599  0.00  0.00    +0.000 OA
ATOM     27  H   UNL     1       3.083  13.464  17.364  0.00  0.00    +0.000 HD
ENDBRANCH  24  26
ENDBRANCH  21  22
ENDBRANCH  10  21
TORSDOF 5
ENDMDL
MODEL 3
REMARK VINA RESULT:      -8.1      2.791      3.454
REMARK  Name = 
REMARK  5 active torsions:
REMARK  status: ('A' for Active; 'I' for Inactive)
REMARK    1  A    between atoms: S_2  and  C_4
REMARK    2  A    between atoms: S_2  and  C_11
REMARK    3  A    between atoms: C_20  and  C_21
REMARK    4  A    between atoms: C_21  and  N_22
REMARK    5  A    between atoms: C_24  and  O_25
REMARK                            x       y       z     vdW  Elec       q    Type
REMARK                         _______ _______ _______ _____ _____    ______ ____
ROOT
ATOM      1  C   UNL     1       2.903   7.156  18.778  0.00  0.00    +0.000 A 
ATOM      2  C   UNL     1       2.841   8.039  17.700  0.00  0.00    +0.000 A 
ATOM      3  C   UNL     1       2.024   9.173  17.783  0.00  0.00    +0.000 A 
ATOM      4  C   UNL     1       1.246   9.426  18.927  0.00  0.00    +0.000 A 
ATOM      5  C   UNL     1       1.342   8.543  20.023  0.00  0.00    +0.000 A 
ATOM      6  C   UNL     1       2.168   7.409  19.937  0.00  0.00    +0.000 A 
ATOM      7  C   UNL     1       0.487   8.703  21.258  0.00  0.00    +0.000 C 
ATOM      8  C   UNL     1      -0.193  10.063  21.355  0.00  0.00    +0.000 C 
ATOM      9  C   UNL     1      -0.809  10.434  20.013  0.00  0.00    +0.000 C 
ATOM     10  C   UNL     1       0.265  10.602  18.920  0.00  0.00    +0.000 C 
ENDROOT
BRANCH   1  12
ATOM     11  O   UNL     1       4.978   5.679  19.337  0.00  0.00    +0.000 OA
ATOM     12  S   UNL     1       3.734   5.590  18.591  0.00  0.00    +0.000 S 
ATOM     13  O   UNL     1       3.762   5.279  17.173  0.00  0.00    +0.000 OA
BRANCH  12  14
ATOM     14  C   UNL     1       2.746   4.341  19.377  0.00  0.00    +0.000 A 
ATOM     15  C   UNL     1       2.820   4.166  20.764  0.00  0.00    +0.000 A 
ATOM     16  C   UNL     1       1.975   3.247  21.391  0.00  0.00    +0.000 A 
ATOM     17  C   UNL     1       1.059   2.516  20.634  0.00  0.00    +0.000 A 
ATOM     18  C   UNL     1       0.986   2.716  19.258  0.00  0.00    +0.000 A 
ATOM     19  F   UNL     1       0.091   2.025  18.541  0.00  0.00    +0.000 F 
ATOM     20  C   UNL     1       1.815   3.627  18.619  0.00  0.00    +0.000 A 
ENDBRANCH  12  14
ENDBRANCH   1  12
BRANCH  10  21
ATOM     21  C   UNL     1       1.013  11.967  18.973  0.00  0.00    +0.000 C 
BRANCH  21  22
ATOM     22  N   UNL     1       0.270  13.076  19.611  0.00  0.00    +0.000 NA
ATOM     23  C   UNL     1      -0.043  14.168  18.665  0.00  0.00    +0.000 C 
ATOM     24  C   UNL     1       1.152  14.989  19.182  0.00  0.00    +0.000 C 
ATOM     25  C   UNL     1       1.205  13.966  20.338  0.00  0.00    +0.000 C 
BRANCH  24  26
ATOM     26  O   UNL     1       2.291  15.079  18.292  0.00  0.00    +0.000 OA
ATOM     27  H   UNL     1       2.073  14.518  17.529  0.00  0.00    +0.000 HD
ENDBRANCH  24  26
ENDBRANCH  21  22
ENDBRANCH  10  21
TORSDOF 5
ENDMDL
MODEL 4
REMARK VINA RESULT:      -8.1      2.811      3.332
REMARK  Name = 
REMARK  5 active torsions:
REMARK  status: ('A' for Active; 'I' for Inactive)
REMARK    1  A    between atoms: S_2  and  C_4
REMARK    2  A    between atoms: S_2  and  C_11
REMARK    3  A    between atoms: C_20  and  C_21
REMARK    4  A    between atoms: C_21  and  N_22
REMARK    5  A    between atoms: C_24  and  O_25
REMARK                            x       y       z     vdW  Elec       q    Type
REMARK                         _______ _______ _______ _____ _____    ______ ____
ROOT
ATOM      1  C   UNL     1       2.555   7.410  18.850  0.00  0.00    +0.000 A 
ATOM      2  C   UNL     1       2.250   8.171  17.721  0.00  0.00    +0.000 A 
ATOM      3  C   UNL     1       1.404   9.279  17.844  0.00  0.00    +0.000 A 
ATOM      4  C   UNL     1       0.837   9.626  19.084  0.00  0.00    +0.000 A 
ATOM      5  C   UNL     1       1.178   8.869  20.224  0.00  0.00    +0.000 A 
ATOM      6  C   UNL     1       2.032   7.760  20.096  0.00  0.00    +0.000 A 
ATOM      7  C   UNL     1       0.557   9.130  21.576  0.00  0.00    +0.000 C 
ATOM      8  C   UNL     1      -0.164  10.469  21.664  0.00  0.00    +0.000 C 
ATOM      9  C   UNL     1      -1.035  10.675  20.432  0.00  0.00    +0.000 C 
ATOM     10  C   UNL     1      -0.190  10.761  19.146  0.00  0.00    +0.000 C 
ENDROOT
BRANCH   1  12
ATOM     11  O   UNL     1       4.502   5.863  19.633  0.00  0.00    +0.000 OA
ATOM     12  S   UNL     1       3.418   5.862  18.665  0.00  0.00    +0.000 S 
ATOM     13  O   UNL     1       3.712   5.693  17.253  0.00  0.00    +0.000 OA
BRANCH  12  14
ATOM     14  C   UNL     1       2.312   4.551  19.125  0.00  0.00    +0.000 A 
ATOM     15  C   UNL     1       1.667   3.804  18.132  0.00  0.00    +0.000 A 
ATOM     16  C   UNL     1       0.870   2.715  18.493  0.00  0.00    +0.000 A 
ATOM     17  C   UNL     1       0.729   2.374  19.838  0.00  0.00    +0.000 A 
ATOM     18  C   UNL     1       1.393   3.115  20.811  0.00  0.00    +0.000 A 
ATOM     19  F   UNL     1       1.268   2.770  22.100  0.00  0.00    +0.000 F 
ATOM     20  C   UNL     1       2.191   4.198  20.471  0.00  0.00    +0.000 A 
ENDBRANCH  12  14
ENDBRANCH   1  12
BRANCH  10  21
ATOM     21  C   UNL     1       0.483  12.149  18.924  0.00  0.00    +0.000 C 
BRANCH  21  22
ATOM     22  N   UNL     1       1.904  12.239  19.325  0.00  0.00    +0.000 NA
ATOM     23  C   UNL     1       2.157  13.344  20.275  0.00  0.00    +0.000 C 
ATOM     24  C   UNL     1       2.670  14.239  19.132  0.00  0.00    +0.000 C 
ATOM     25  C   UNL     1       2.685  12.948  18.284  0.00  0.00    +0.000 C 
BRANCH  24  26
ATOM     26  O   UNL     1       1.791  15.317  18.729  0.00  0.00    +0.000 OA
ATOM     27  H   UNL     1       1.160  14.921  18.104  0.00  0.00    +0.000 HD
ENDBRANCH  24  26
ENDBRANCH  21  22
ENDBRANCH  10  21
TORSDOF 5
ENDMDL
MODEL 5
REMARK VINA RESULT:      -8.1      4.014      8.124
REMARK  Name = 
REMARK  5 active torsions:
REMARK  status: ('A' for Active; 'I' for Inactive)
REMARK    1  A    between atoms: S_2  and  C_4
REMARK    2  A    between atoms: S_2  and  C_11
REMARK    3  A    between atoms: C_20  and  C_21
REMARK    4  A    between atoms: C_21  and  N_22
REMARK    5  A    between atoms: C_24  and  O_25
REMARK                            x       y       z     vdW  Elec       q    Type
REMARK                         _______ _______ _______ _____ _____    ______ ____
ROOT
ATOM      1  C   UNL     1       1.336   9.273  18.937  0.00  0.00    +0.000 A 
ATOM      2  C   UNL     1       2.263   9.249  17.895  0.00  0.00    +0.000 A 
ATOM      3  C   UNL     1       3.091   8.132  17.735  0.00  0.00    +0.000 A 
ATOM      4  C   UNL     1       3.020   7.041  18.620  0.00  0.00    +0.000 A 
ATOM      5  C   UNL     1       2.056   7.063  19.650  0.00  0.00    +0.000 A 
ATOM      6  C   UNL     1       1.224   8.185  19.805  0.00  0.00    +0.000 A 
ATOM      7  C   UNL     1       1.963   5.967  20.685  0.00  0.00    +0.000 C 
ATOM      8  C   UNL     1       2.735   4.708  20.307  0.00  0.00    +0.000 C 
ATOM      9  C   UNL     1       4.117   5.079  19.789  0.00  0.00    +0.000 C 
ATOM     10  C   UNL     1       4.036   5.903  18.489  0.00  0.00    +0.000 C 
ENDROOT
BRANCH   1  12
ATOM     11  O   UNL     1       1.193  11.863  18.670  0.00  0.00    +0.000 OA
ATOM     12  S   UNL     1       0.460  10.781  19.305  0.00  0.00    +0.000 S 
ATOM     13  O   UNL     1       0.228  10.811  20.738  0.00  0.00    +0.000 OA
BRANCH  12  14
ATOM     14  C   UNL     1      -1.132  10.704  18.523  0.00  0.00    +0.000 A 
ATOM     15  C   UNL     1      -2.181  11.500  18.999  0.00  0.00    +0.000 A 
ATOM     16  C   UNL     1      -3.405  11.507  18.325  0.00  0.00    +0.000 A 
ATOM     17  C   UNL     1      -3.571  10.728  17.180  0.00  0.00    +0.000 A 
ATOM     18  C   UNL     1      -2.513   9.957  16.709  0.00  0.00    +0.000 A 
ATOM     19  F   UNL     1      -2.674   9.227  15.598  0.00  0.00    +0.000 F 
ATOM     20  C   UNL     1      -1.288   9.940  17.363  0.00  0.00    +0.000 A 
ENDBRANCH  12  14
ENDBRANCH   1  12
BRANCH  10  21
ATOM     21  C   UNL     1       3.770   5.046  17.214  0.00  0.00    +0.000 C 
BRANCH  21  22
ATOM     22  N   UNL     1       4.768   5.188  16.132  0.00  0.00    +0.000 NA
ATOM     23  C   UNL     1       5.589   3.972  15.953  0.00  0.00    +0.000 C 
ATOM     24  C   UNL     1       6.735   4.597  16.769  0.00  0.00    +0.000 C 
ATOM     25  C   UNL     1       5.956   5.924  16.627  0.00  0.00    +0.000 C 
BRANCH  24  26
ATOM     26  O   UNL     1       6.935   4.056  18.097  0.00  0.00    +0.000 OA
ATOM     27  H   UNL     1       7.097   4.823  18.671  0.00  0.00    +0.000 HD
ENDBRANCH  24  26
ENDBRANCH  21  22
ENDBRANCH  10  21
TORSDOF 5
ENDMDL
MODEL 6
REMARK VINA RESULT:      -8.0      3.676      5.196
REMARK  Name = 
REMARK  5 active torsions:
REMARK  status: ('A' for Active; 'I' for Inactive)
REMARK    1  A    between atoms: S_2  and  C_4
REMARK    2  A    between atoms: S_2  and  C_11
REMARK    3  A    between atoms: C_20  and  C_21
REMARK    4  A    between atoms: C_21  and  N_22
REMARK    5  A    between atoms: C_24  and  O_25
REMARK                            x       y       z     vdW  Elec       q    Type
REMARK                         _______ _______ _______ _____ _____    ______ ____
ROOT
ATOM      1  C   UNL     1       5.645   5.480  17.876  0.00  0.00    +0.000 A 
ATOM      2  C   UNL     1       4.761   6.543  17.698  0.00  0.00    +0.000 A 
ATOM      3  C   UNL     1       3.524   6.529  18.354  0.00  0.00    +0.000 A 
ATOM      4  C   UNL     1       3.148   5.449  19.173  0.00  0.00    +0.000 A 
ATOM      5  C   UNL     1       4.064   4.395  19.371  0.00  0.00    +0.000 A 
ATOM      6  C   UNL     1       5.307   4.416  18.714  0.00  0.00    +0.000 A 
ATOM      7  C   UNL     1       3.711   3.166  20.175  0.00  0.00    +0.000 C 
ATOM      8  C   UNL     1       2.456   3.334  21.022  0.00  0.00    +0.000 C 
ATOM      9  C   UNL     1       1.353   3.983  20.197  0.00  0.00    +0.000 C 
ATOM     10  C   UNL     1       1.734   5.411  19.760  0.00  0.00    +0.000 C 
ENDROOT
BRANCH   1  12
ATOM     11  O   UNL     1       7.986   4.398  17.490  0.00  0.00    +0.000 OA
ATOM     12  S   UNL     1       7.103   5.363  16.857  0.00  0.00    +0.000 S 
ATOM     13  O   UNL     1       7.571   6.715  16.610  0.00  0.00    +0.000 OA
BRANCH  12  14
ATOM     14  C   UNL     1       6.629   4.682  15.287  0.00  0.00    +0.000 A 
ATOM     15  C   UNL     1       5.419   3.989  15.165  0.00  0.00    +0.000 A 
ATOM     16  C   UNL     1       5.004   3.534  13.911  0.00  0.00    +0.000 A 
ATOM     17  C   UNL     1       5.794   3.781  12.787  0.00  0.00    +0.000 A 
ATOM     18  C   UNL     1       6.985   4.489  12.923  0.00  0.00    +0.000 A 
ATOM     19  F   UNL     1       7.728   4.738  11.837  0.00  0.00    +0.000 F 
ATOM     20  C   UNL     1       7.411   4.951  14.161  0.00  0.00    +0.000 A 
ENDBRANCH  12  14
ENDBRANCH   1  12
BRANCH  10  21
ATOM     21  C   UNL     1       1.553   6.483  20.876  0.00  0.00    +0.000 C 
BRANCH  21  22
ATOM     22  N   UNL     1       0.710   7.644  20.513  0.00  0.00    +0.000 NA
ATOM     23  C   UNL     1       1.492   8.891  20.371  0.00  0.00    +0.000 C 
ATOM     24  C   UNL     1       1.080   9.337  21.786  0.00  0.00    +0.000 C 
ATOM     25  C   UNL     1       0.046   8.191  21.720  0.00  0.00    +0.000 C 
BRANCH  24  26
ATOM     26  O   UNL     1       2.115   9.272  22.797  0.00  0.00    +0.000 OA
ATOM     27  H   UNL     1       1.977  10.049  23.363  0.00  0.00    +0.000 HD
ENDBRANCH  24  26
ENDBRANCH  21  22
ENDBRANCH  10  21
TORSDOF 5
ENDMDL
MODEL 7
REMARK VINA RESULT:      -8.0      4.126      6.649
REMARK  Name = 
REMARK  5 active torsions:
REMARK  status: ('A' for Active; 'I' for Inactive)
REMARK    1  A    between atoms: S_2  and  C_4
REMARK    2  A    between atoms: S_2  and  C_11
REMARK    3  A    between atoms: C_20  and  C_21
REMARK    4  A    between atoms: C_21  and  N_22
REMARK    5  A    between atoms: C_24  and  O_25
REMARK                            x       y       z     vdW  Elec       q    Type
REMARK                         _______ _______ _______ _____ _____    ______ ____
ROOT
ATOM      1  C   UNL     1       5.787   5.355  17.214  0.00  0.00    +0.000 A 
ATOM      2  C   UNL     1       5.506   4.423  18.212  0.00  0.00    +0.000 A 
ATOM      3  C   UNL     1       4.409   4.627  19.058  0.00  0.00    +0.000 A 
ATOM      4  C   UNL     1       3.598   5.769  18.932  0.00  0.00    +0.000 A 
ATOM      5  C   UNL     1       3.872   6.688  17.898  0.00  0.00    +0.000 A 
ATOM      6  C   UNL     1       4.972   6.476  17.048  0.00  0.00    +0.000 A 
ATOM      7  C   UNL     1       3.095   7.974  17.740  0.00  0.00    +0.000 C 
ATOM      8  C   UNL     1       1.802   8.005  18.546  0.00  0.00    +0.000 C 
ATOM      9  C   UNL     1       2.056   7.498  19.959  0.00  0.00    +0.000 C 
ATOM     10  C   UNL     1       2.494   6.020  19.963  0.00  0.00    +0.000 C 
ENDROOT
BRANCH   1  12
ATOM     11  O   UNL     1       8.117   4.216  16.949  0.00  0.00    +0.000 OA
ATOM     12  S   UNL     1       7.314   5.240  16.302  0.00  0.00    +0.000 S 
ATOM     13  O   UNL     1       7.839   6.586  16.161  0.00  0.00    +0.000 OA
BRANCH  12  14
ATOM     14  C   UNL     1       6.943   4.654  14.668  0.00  0.00    +0.000 A 
ATOM     15  C   UNL     1       5.922   3.714  14.481  0.00  0.00    +0.000 A 
ATOM     16  C   UNL     1       5.570   3.323  13.187  0.00  0.00    +0.000 A 
ATOM     17  C   UNL     1       6.230   3.878  12.090  0.00  0.00    +0.000 A 
ATOM     18  C   UNL     1       7.229   4.825  12.292  0.00  0.00    +0.000 A 
ATOM     19  F   UNL     1       7.845   5.368  11.234  0.00  0.00    +0.000 F 
ATOM     20  C   UNL     1       7.590   5.228  13.571  0.00  0.00    +0.000 A 
ENDBRANCH  12  14
ENDBRANCH   1  12
BRANCH  10  21
ATOM     21  C   UNL     1       1.318   5.012  19.795  0.00  0.00    +0.000 C 
BRANCH  21  22
ATOM     22  N   UNL     1       1.212   3.976  20.846  0.00  0.00    +0.000 NA
ATOM     23  C   UNL     1       2.441   3.163  20.967  0.00  0.00    +0.000 C 
ATOM     24  C   UNL     1       1.808   2.039  20.128  0.00  0.00    +0.000 C 
ATOM     25  C   UNL     1       0.477   2.797  20.329  0.00  0.00    +0.000 C 
BRANCH  24  26
ATOM     26  O   UNL     1       2.318   1.889  18.781  0.00  0.00    +0.000 OA
ATOM     27  H   UNL     1       3.059   1.264  18.850  0.00  0.00    +0.000 HD
ENDBRANCH  24  26
ENDBRANCH  21  22
ENDBRANCH  10  21
TORSDOF 5
ENDMDL
MODEL 8
REMARK VINA RESULT:      -8.0      4.291      8.213
REMARK  Name = 
REMARK  5 active torsions:
REMARK  status: ('A' for Active; 'I' for Inactive)
REMARK    1  A    between atoms: S_2  and  C_4
REMARK    2  A    between atoms: S_2  and  C_11
REMARK    3  A    between atoms: C_20  and  C_21
REMARK    4  A    between atoms: C_21  and  N_22
REMARK    5  A    between atoms: C_24  and  O_25
REMARK                            x       y       z     vdW  Elec       q    Type
REMARK                         _______ _______ _______ _____ _____    ______ ____
ROOT
ATOM      1  C   UNL     1       1.299   9.314  18.952  0.00  0.00    +0.000 A 
ATOM      2  C   UNL     1       2.221   9.295  17.906  0.00  0.00    +0.000 A 
ATOM      3  C   UNL     1       3.056   8.183  17.742  0.00  0.00    +0.000 A 
ATOM      4  C   UNL     1       2.994   7.092  18.628  0.00  0.00    +0.000 A 
ATOM      5  C   UNL     1       2.035   7.108  19.661  0.00  0.00    +0.000 A 
ATOM      6  C   UNL     1       1.196   8.225  19.820  0.00  0.00    +0.000 A 
ATOM      7  C   UNL     1       1.952   6.011  20.697  0.00  0.00    +0.000 C 
ATOM      8  C   UNL     1       2.729   4.757  20.316  0.00  0.00    +0.000 C 
ATOM      9  C   UNL     1       4.107   5.136  19.793  0.00  0.00    +0.000 C 
ATOM     10  C   UNL     1       4.016   5.959  18.493  0.00  0.00    +0.000 C 
ENDROOT
BRANCH   1  12
ATOM     11  O   UNL     1       1.189  11.912  18.764  0.00  0.00    +0.000 OA
ATOM     12  S   UNL     1       0.416  10.817  19.324  0.00  0.00    +0.000 S 
ATOM     13  O   UNL     1       0.109  10.802  20.742  0.00  0.00    +0.000 OA
BRANCH  12  14
ATOM     14  C   UNL     1      -1.133  10.780  18.457  0.00  0.00    +0.000 A 
ATOM     15  C   UNL     1      -1.318   9.879  17.400  0.00  0.00    +0.000 A 
ATOM     16  C   UNL     1      -2.567   9.787  16.780  0.00  0.00    +0.000 A 
ATOM     17  C   UNL     1      -3.622  10.585  17.222  0.00  0.00    +0.000 A 
ATOM     18  C   UNL     1      -3.427  11.460  18.286  0.00  0.00    +0.000 A 
ATOM     19  F   UNL     1      -4.451  12.209  18.718  0.00  0.00    +0.000 F 
ATOM     20  C   UNL     1      -2.194  11.563  18.917  0.00  0.00    +0.000 A 
ENDBRANCH  12  14
ENDBRANCH   1  12
BRANCH  10  21
ATOM     21  C   UNL     1       3.750   5.101  17.219  0.00  0.00    +0.000 C 
BRANCH  21  22
ATOM     22  N   UNL     1       4.749   5.240  16.138  0.00  0.00    +0.000 NA
ATOM     23  C   UNL     1       5.547   4.011  15.940  0.00  0.00    +0.000 C 
ATOM     24  C   UNL     1       6.706   4.604  16.763  0.00  0.00    +0.000 C 
ATOM     25  C   UNL     1       5.951   5.947  16.641  0.00  0.00    +0.000 C 
BRANCH  24  26
ATOM     26  O   UNL     1       6.898   4.041  18.084  0.00  0.00    +0.000 OA
ATOM     27  H   UNL     1       6.630   3.110  18.013  0.00  0.00    +0.000 HD
ENDBRANCH  24  26
ENDBRANCH  21  22
ENDBRANCH  10  21
TORSDOF 5
ENDMDL
MODEL 9
REMARK VINA RESULT:      -8.0      2.832      3.407
REMARK  Name = 
REMARK  5 active torsions:
REMARK  status: ('A' for Active; 'I' for Inactive)
REMARK    1  A    between atoms: S_2  and  C_4
REMARK    2  A    between atoms: S_2  and  C_11
REMARK    3  A    between atoms: C_20  and  C_21
REMARK    4  A    between atoms: C_21  and  N_22
REMARK    5  A    between atoms: C_24  and  O_25
REMARK                            x       y       z     vdW  Elec       q    Type
REMARK                         _______ _______ _______ _____ _____    ______ ____
ROOT
ATOM      1  C   UNL     1       2.823   7.166  18.909  0.00  0.00    +0.000 A 
ATOM      2  C   UNL     1       2.812   8.122  17.895  0.00  0.00    +0.000 A 
ATOM      3  C   UNL     1       2.044   9.283  18.050  0.00  0.00    +0.000 A 
ATOM      4  C   UNL     1       1.266   9.491  19.203  0.00  0.00    +0.000 A 
ATOM      5  C   UNL     1       1.311   8.532  20.236  0.00  0.00    +0.000 A 
ATOM      6  C   UNL     1       2.087   7.370  20.078  0.00  0.00    +0.000 A 
ATOM      7  C   UNL     1       0.451   8.644  21.473  0.00  0.00    +0.000 C 
ATOM      8  C   UNL     1      -0.170  10.023  21.658  0.00  0.00    +0.000 C 
ATOM      9  C   UNL     1      -0.755  10.513  20.340  0.00  0.00    +0.000 C 
ATOM     10  C   UNL     1       0.337  10.707  19.270  0.00  0.00    +0.000 C 
ENDROOT
BRANCH   1  12
ATOM     11  O   UNL     1       4.727   5.491  19.516  0.00  0.00    +0.000 OA
ATOM     12  S   UNL     1       3.585   5.581  18.621  0.00  0.00    +0.000 S 
ATOM     13  O   UNL     1       3.779   5.445  17.188  0.00  0.00    +0.000 OA
BRANCH  12  14
ATOM     14  C   UNL     1       2.440   4.316  19.112  0.00  0.00    +0.000 A 
ATOM     15  C   UNL     1       1.702   3.629  18.140  0.00  0.00    +0.000 A 
ATOM     16  C   UNL     1       0.871   2.573  18.521  0.00  0.00    +0.000 A 
ATOM     17  C   UNL     1       0.789   2.203  19.864  0.00  0.00    +0.000 A 
ATOM     18  C   UNL     1       1.544   2.883  20.814  0.00  0.00    +0.000 A 
ATOM     19  F   UNL     1       1.474   2.510  22.099  0.00  0.00    +0.000 F 
ATOM     20  C   UNL     1       2.377   3.933  20.454  0.00  0.00    +0.000 A 
ENDBRANCH  12  14
ENDBRANCH   1  12
BRANCH  10  21
ATOM     21  C   UNL     1       1.145  12.031  19.423  0.00  0.00    +0.000 C 
BRANCH  21  22
ATOM     22  N   UNL     1       0.971  13.013  18.330  0.00  0.00    +0.000 NA
ATOM     23  C   UNL     1       1.666  14.290  18.597  0.00  0.00    +0.000 C 
ATOM     24  C   UNL     1       0.348  14.935  19.065  0.00  0.00    +0.000 C 
ATOM     25  C   UNL     1      -0.340  13.693  18.457  0.00  0.00    +0.000 C 
BRANCH  24  26
ATOM     26  O   UNL     1       0.224  15.162  20.490  0.00  0.00    +0.000 OA
ATOM     27  H   UNL     1       0.345  16.117  20.614  0.00  0.00    +0.000 HD
ENDBRANCH  24  26
ENDBRANCH  21  22
ENDBRANCH  10  21
TORSDOF 5
ENDMDL
