MODEL 1
REMARK VINA RESULT:      -6.9      0.000      0.000
REMARK  Name = 
REMARK  9 active torsions:
REMARK  status: ('A' for Active; 'I' for Inactive)
REMARK    1  A    between atoms: C_1  and  C_2
REMARK    2  A    between atoms: C_3  and  O_4
REMARK    3  A    between atoms: C_5  and  C_6
REMARK    4  A    between atoms: C_6  and  C_7
REMARK    5  A    between atoms: C_7  and  C_8
REMARK    6  A    between atoms: C_8  and  C_9
REMARK    7  A    between atoms: C_9  and  C_10
REMARK    8  A    between atoms: C_10  and  C_11
REMARK    9  A    between atoms: C_10  and  C_12
REMARK                            x       y       z     vdW  Elec       q    Type
REMARK                         _______ _______ _______ _____ _____    ______ ____
ROOT
ATOM      1  C   UNL     1       7.819   5.761  19.075  0.00  0.00    +0.000 C 
ATOM      2  C   UNL     1       6.751   5.324  18.116  0.00  0.00    +0.000 A 
ATOM      3  C   UNL     1       5.804   4.397  18.338  0.00  0.00    +0.000 A 
ATOM      4  C   UNL     1       4.836   4.055  17.319  0.00  0.00    +0.000 A 
ATOM      5  C   UNL     1       4.909   4.697  16.149  0.00  0.00    +0.000 A 
ATOM      6  O   UNL     1       5.855   5.680  15.861  0.00  0.00    +0.000 OA
ATOM      7  C   UNL     1       6.789   6.022  16.797  0.00  0.00    +0.000 A 
ATOM      8  O   UNL     1       7.639   6.880  16.562  0.00  0.00    +0.000 OA
ENDROOT
BRANCH   3   9
ATOM      9  O   UNL     1       5.656   3.692  19.511  0.00  0.00    +0.000 OA
ATOM     10  H   UNL     1       4.865   3.135  19.474  0.00  0.00    +0.000 HD
ENDBRANCH   3   9
BRANCH   4  11
ATOM     11  C   UNL     1       3.805   2.985  17.572  0.00  0.00    +0.000 C 
BRANCH  11  12
ATOM     12  C   UNL     1       2.419   3.406  17.078  0.00  0.00    +0.000 C 
BRANCH  12  13
ATOM     13  C   UNL     1       1.663   4.166  18.166  0.00  0.00    +0.000 C 
BRANCH  13  14
ATOM     14  C   UNL     1       1.184   3.218  19.266  0.00  0.00    +0.000 C 
BRANCH  14  15
ATOM     15  C   UNL     1       1.340   3.794  20.683  0.00  0.00    +0.000 C 
ATOM     16  C   UNL     1       2.242   2.931  21.567  0.00  0.00    +0.000 C 
ATOM     17  C   UNL     1       1.907   5.213  20.599  0.00  0.00    +0.000 C 
ENDBRANCH  14  15
ENDBRANCH  13  14
ENDBRANCH  12  13
ENDBRANCH  11  12
ENDBRANCH   4  11
TORSDOF 6
ENDMDL
MODEL 2
REMARK VINA RESULT:      -6.6      1.079      2.122
REMARK  Name = 
REMARK  9 active torsions:
REMARK  status: ('A' for Active; 'I' for Inactive)
REMARK    1  A    between atoms: C_1  and  C_2
REMARK    2  A    between atoms: C_3  and  O_4
REMARK    3  A    between atoms: C_5  and  C_6
REMARK    4  A    between atoms: C_6  and  C_7
REMARK    5  A    between atoms: C_7  and  C_8
REMARK    6  A    between atoms: C_8  and  C_9
REMARK    7  A    between atoms: C_9  and  C_10
REMARK    8  A    between atoms: C_10  and  C_11
REMARK    9  A    between atoms: C_10  and  C_12
REMARK                            x       y       z     vdW  Elec       q    Type
REMARK                         _______ _______ _______ _____ _____    ______ ____
ROOT
ATOM      1  C   UNL     1       7.468   7.019  17.591  0.00  0.00    +0.000 C 
ATOM      2  C   UNL     1       6.490   5.927  17.912  0.00  0.00    +0.000 A 
ATOM      3  C   UNL     1       5.477   5.504  17.136  0.00  0.00    +0.000 A 
ATOM      4  C   UNL     1       4.591   4.447  17.571  0.00  0.00    +0.000 A 
ATOM      5  C   UNL     1       4.816   3.897  18.768  0.00  0.00    +0.000 A 
ATOM      6  O   UNL     1       5.858   4.277  19.612  0.00  0.00    +0.000 OA
ATOM      7  C   UNL     1       6.709   5.278  19.238  0.00  0.00    +0.000 A 
ATOM      8  O   UNL     1       7.630   5.636  19.970  0.00  0.00    +0.000 OA
ENDROOT
BRANCH   3   9
ATOM      9  O   UNL     1       5.176   6.012  15.893  0.00  0.00    +0.000 OA
ATOM     10  H   UNL     1       5.410   5.376  15.201  0.00  0.00    +0.000 HD
ENDBRANCH   3   9
BRANCH   4  11
ATOM     11  C   UNL     1       3.436   4.012  16.705  0.00  0.00    +0.000 C 
BRANCH  11  12
ATOM     12  C   UNL     1       2.528   3.016  17.429  0.00  0.00    +0.000 C 
BRANCH  12  13
ATOM     13  C   UNL     1       1.392   3.741  18.149  0.00  0.00    +0.000 C 
BRANCH  13  14
ATOM     14  C   UNL     1       0.959   2.976  19.400  0.00  0.00    +0.000 C 
BRANCH  14  15
ATOM     15  C   UNL     1       1.256   3.726  20.710  0.00  0.00    +0.000 C 
ATOM     16  C   UNL     1       2.301   3.009  21.567  0.00  0.00    +0.000 C 
ATOM     17  C   UNL     1       1.735   5.143  20.390  0.00  0.00    +0.000 C 
ENDBRANCH  14  15
ENDBRANCH  13  14
ENDBRANCH  12  13
ENDBRANCH  11  12
ENDBRANCH   4  11
TORSDOF 6
ENDMDL
MODEL 3
REMARK VINA RESULT:      -6.5      0.717      1.139
REMARK  Name = 
REMARK  9 active torsions:
REMARK  status: ('A' for Active; 'I' for Inactive)
REMARK    1  A    between atoms: C_1  and  C_2
REMARK    2  A    between atoms: C_3  and  O_4
REMARK    3  A    between atoms: C_5  and  C_6
REMARK    4  A    between atoms: C_6  and  C_7
REMARK    5  A    between atoms: C_7  and  C_8
REMARK    6  A    between atoms: C_8  and  C_9
REMARK    7  A    between atoms: C_9  and  C_10
REMARK    8  A    between atoms: C_10  and  C_11
REMARK    9  A    between atoms: C_10  and  C_12
REMARK                            x       y       z     vdW  Elec       q    Type
REMARK                         _______ _______ _______ _____ _____    ______ ____
ROOT
ATOM      1  C   UNL     1       7.805   5.752  19.546  0.00  0.00    +0.000 C 
ATOM      2  C   UNL     1       6.802   5.598  18.441  0.00  0.00    +0.000 A 
ATOM      3  C   UNL     1       5.858   4.646  18.341  0.00  0.00    +0.000 A 
ATOM      4  C   UNL     1       4.957   4.599  17.211  0.00  0.00    +0.000 A 
ATOM      5  C   UNL     1       5.086   5.540  16.270  0.00  0.00    +0.000 A 
ATOM      6  O   UNL     1       6.031   6.564  16.322  0.00  0.00    +0.000 OA
ATOM      7  C   UNL     1       6.904   6.633  17.370  0.00  0.00    +0.000 A 
ATOM      8  O   UNL     1       7.752   7.523  17.434  0.00  0.00    +0.000 OA
ENDROOT
BRANCH   3   9
ATOM      9  O   UNL     1       5.654   3.644  19.262  0.00  0.00    +0.000 OA
ATOM     10  H   UNL     1       4.719   3.596  19.509  0.00  0.00    +0.000 HD
ENDBRANCH   3   9
BRANCH   4  11
ATOM     11  C   UNL     1       3.930   3.502  17.096  0.00  0.00    +0.000 C 
BRANCH  11  12
ATOM     12  C   UNL     1       2.525   4.001  17.441  0.00  0.00    +0.000 C 
BRANCH  12  13
ATOM     13  C   UNL     1       1.714   2.906  18.132  0.00  0.00    +0.000 C 
BRANCH  13  14
ATOM     14  C   UNL     1       1.096   3.420  19.432  0.00  0.00    +0.000 C 
BRANCH  14  15
ATOM     15  C   UNL     1       2.120   4.056  20.388  0.00  0.00    +0.000 C 
ATOM     16  C   UNL     1       1.811   5.526  20.678  0.00  0.00    +0.000 C 
ATOM     17  C   UNL     1       2.153   3.267  21.699  0.00  0.00    +0.000 C 
ENDBRANCH  14  15
ENDBRANCH  13  14
ENDBRANCH  12  13
ENDBRANCH  11  12
ENDBRANCH   4  11
TORSDOF 6
ENDMDL
MODEL 4
REMARK VINA RESULT:      -6.5      1.504      2.653
REMARK  Name = 
REMARK  9 active torsions:
REMARK  status: ('A' for Active; 'I' for Inactive)
REMARK    1  A    between atoms: C_1  and  C_2
REMARK    2  A    between atoms: C_3  and  O_4
REMARK    3  A    between atoms: C_5  and  C_6
REMARK    4  A    between atoms: C_6  and  C_7
REMARK    5  A    between atoms: C_7  and  C_8
REMARK    6  A    between atoms: C_8  and  C_9
REMARK    7  A    between atoms: C_9  and  C_10
REMARK    8  A    between atoms: C_10  and  C_11
REMARK    9  A    between atoms: C_10  and  C_12
REMARK                            x       y       z     vdW  Elec       q    Type
REMARK                         _______ _______ _______ _____ _____    ______ ____
ROOT
ATOM      1  C   UNL     1       5.630   3.948  14.224  0.00  0.00    +0.000 C 
ATOM      2  C   UNL     1       5.929   4.382  15.630  0.00  0.00    +0.000 A 
ATOM      3  C   UNL     1       5.207   4.097  16.728  0.00  0.00    +0.000 A 
ATOM      4  C   UNL     1       5.597   4.591  18.030  0.00  0.00    +0.000 A 
ATOM      5  C   UNL     1       6.704   5.335  18.109  0.00  0.00    +0.000 A 
ATOM      6  O   UNL     1       7.506   5.652  17.013  0.00  0.00    +0.000 OA
ATOM      7  C   UNL     1       7.163   5.210  15.767  0.00  0.00    +0.000 A 
ATOM      8  O   UNL     1       7.850   5.484  14.784  0.00  0.00    +0.000 OA
ENDROOT
BRANCH   3   9
ATOM      9  O   UNL     1       4.060   3.338  16.737  0.00  0.00    +0.000 OA
ATOM     10  H   UNL     1       3.297   3.878  16.990  0.00  0.00    +0.000 HD
ENDBRANCH   3   9
BRANCH   4  11
ATOM     11  C   UNL     1       4.755   4.293  19.244  0.00  0.00    +0.000 C 
BRANCH  11  12
ATOM     12  C   UNL     1       3.863   5.480  19.620  0.00  0.00    +0.000 C 
BRANCH  12  13
ATOM     13  C   UNL     1       2.409   5.209  19.236  0.00  0.00    +0.000 C 
BRANCH  13  14
ATOM     14  C   UNL     1       1.555   4.947  20.477  0.00  0.00    +0.000 C 
BRANCH  14  15
ATOM     15  C   UNL     1       1.052   3.497  20.580  0.00  0.00    +0.000 C 
ATOM     16  C   UNL     1       1.024   2.793  19.222  0.00  0.00    +0.000 C 
ATOM     17  C   UNL     1       1.942   2.715  21.549  0.00  0.00    +0.000 C 
ENDBRANCH  14  15
ENDBRANCH  13  14
ENDBRANCH  12  13
ENDBRANCH  11  12
ENDBRANCH   4  11
TORSDOF 6
ENDMDL
MODEL 5
REMARK VINA RESULT:      -6.5      1.105      1.519
REMARK  Name = 
REMARK  9 active torsions:
REMARK  status: ('A' for Active; 'I' for Inactive)
REMARK    1  A    between atoms: C_1  and  C_2
REMARK    2  A    between atoms: C_3  and  O_4
REMARK    3  A    between atoms: C_5  and  C_6
REMARK    4  A    between atoms: C_6  and  C_7
REMARK    5  A    between atoms: C_7  and  C_8
REMARK    6  A    between atoms: C_8  and  C_9
REMARK    7  A    between atoms: C_9  and  C_10
REMARK    8  A    between atoms: C_10  and  C_11
REMARK    9  A    between atoms: C_10  and  C_12
REMARK                            x       y       z     vdW  Elec       q    Type
REMARK                         _______ _______ _______ _____ _____    ______ ____
ROOT
ATOM      1  C   UNL     1       8.056   5.902  19.173  0.00  0.00    +0.000 C 
ATOM      2  C   UNL     1       6.831   5.959  18.308  0.00  0.00    +0.000 A 
ATOM      3  C   UNL     1       5.731   5.194  18.422  0.00  0.00    +0.000 A 
ATOM      4  C   UNL     1       4.618   5.339  17.510  0.00  0.00    +0.000 A 
ATOM      5  C   UNL     1       4.714   6.266  16.552  0.00  0.00    +0.000 A 
ATOM      6  O   UNL     1       5.817   7.103  16.390  0.00  0.00    +0.000 OA
ATOM      7  C   UNL     1       6.889   6.987  17.228  0.00  0.00    +0.000 A 
ATOM      8  O   UNL     1       7.878   7.709  17.098  0.00  0.00    +0.000 OA
ENDROOT
BRANCH   3   9
ATOM      9  O   UNL     1       5.549   4.221  19.378  0.00  0.00    +0.000 OA
ATOM     10  H   UNL     1       5.603   3.340  18.980  0.00  0.00    +0.000 HD
ENDBRANCH   3   9
BRANCH   4  11
ATOM     11  C   UNL     1       3.410   4.446  17.629  0.00  0.00    +0.000 C 
BRANCH  11  12
ATOM     12  C   UNL     1       2.206   5.195  18.206  0.00  0.00    +0.000 C 
BRANCH  12  13
ATOM     13  C   UNL     1       2.165   5.068  19.728  0.00  0.00    +0.000 C 
BRANCH  13  14
ATOM     14  C   UNL     1       0.942   4.268  20.178  0.00  0.00    +0.000 C 
BRANCH  14  15
ATOM     15  C   UNL     1       1.275   2.828  20.603  0.00  0.00    +0.000 C 
ATOM     16  C   UNL     1       1.392   1.881  19.407  0.00  0.00    +0.000 C 
ATOM     17  C   UNL     1       2.583   2.818  21.398  0.00  0.00    +0.000 C 
ENDBRANCH  14  15
ENDBRANCH  13  14
ENDBRANCH  12  13
ENDBRANCH  11  12
ENDBRANCH   4  11
TORSDOF 6
ENDMDL
MODEL 6
REMARK VINA RESULT:      -6.4      1.031      1.094
REMARK  Name = 
REMARK  9 active torsions:
REMARK  status: ('A' for Active; 'I' for Inactive)
REMARK    1  A    between atoms: C_1  and  C_2
REMARK    2  A    between atoms: C_3  and  O_4
REMARK    3  A    between atoms: C_5  and  C_6
REMARK    4  A    between atoms: C_6  and  C_7
REMARK    5  A    between atoms: C_7  and  C_8
REMARK    6  A    between atoms: C_8  and  C_9
REMARK    7  A    between atoms: C_9  and  C_10
REMARK    8  A    between atoms: C_10  and  C_11
REMARK    9  A    between atoms: C_10  and  C_12
REMARK                            x       y       z     vdW  Elec       q    Type
REMARK                         _______ _______ _______ _____ _____    ______ ____
ROOT
ATOM      1  C   UNL     1       7.524   6.709  17.875  0.00  0.00    +0.000 C 
ATOM      2  C   UNL     1       6.645   5.586  17.407  0.00  0.00    +0.000 A 
ATOM      3  C   UNL     1       5.750   4.906  18.145  0.00  0.00    +0.000 A 
ATOM      4  C   UNL     1       4.972   3.829  17.574  0.00  0.00    +0.000 A 
ATOM      5  C   UNL     1       5.164   3.535  16.285  0.00  0.00    +0.000 A 
ATOM      6  O   UNL     1       6.062   4.212  15.461  0.00  0.00    +0.000 OA
ATOM      7  C   UNL     1       6.820   5.229  15.968  0.00  0.00    +0.000 A 
ATOM      8  O   UNL     1       7.626   5.834  15.263  0.00  0.00    +0.000 OA
ENDROOT
BRANCH   3   9
ATOM      9  O   UNL     1       5.488   5.144  19.474  0.00  0.00    +0.000 OA
ATOM     10  H   UNL     1       5.867   4.444  20.026  0.00  0.00    +0.000 HD
ENDBRANCH   3   9
BRANCH   4  11
ATOM     11  C   UNL     1       4.001   3.052  18.426  0.00  0.00    +0.000 C 
BRANCH  11  12
ATOM     12  C   UNL     1       2.602   3.019  17.806  0.00  0.00    +0.000 C 
BRANCH  12  13
ATOM     13  C   UNL     1       1.613   2.317  18.734  0.00  0.00    +0.000 C 
BRANCH  13  14
ATOM     14  C   UNL     1       0.687   3.327  19.414  0.00  0.00    +0.000 C 
BRANCH  14  15
ATOM     15  C   UNL     1       1.180   3.773  20.801  0.00  0.00    +0.000 C 
ATOM     16  C   UNL     1       2.043   2.709  21.482  0.00  0.00    +0.000 C 
ATOM     17  C   UNL     1       1.975   5.074  20.667  0.00  0.00    +0.000 C 
ENDBRANCH  14  15
ENDBRANCH  13  14
ENDBRANCH  12  13
ENDBRANCH  11  12
ENDBRANCH   4  11
TORSDOF 6
ENDMDL
MODEL 7
REMARK VINA RESULT:      -6.2      2.666      6.386
REMARK  Name = 
REMARK  9 active torsions:
REMARK  status: ('A' for Active; 'I' for Inactive)
REMARK    1  A    between atoms: C_1  and  C_2
REMARK    2  A    between atoms: C_3  and  O_4
REMARK    3  A    between atoms: C_5  and  C_6
REMARK    4  A    between atoms: C_6  and  C_7
REMARK    5  A    between atoms: C_7  and  C_8
REMARK    6  A    between atoms: C_8  and  C_9
REMARK    7  A    between atoms: C_9  and  C_10
REMARK    8  A    between atoms: C_10  and  C_11
REMARK    9  A    between atoms: C_10  and  C_12
REMARK                            x       y       z     vdW  Elec       q    Type
REMARK                         _______ _______ _______ _____ _____    ______ ____
ROOT
ATOM      1  C   UNL     1       0.607   3.554  20.385  0.00  0.00    +0.000 C 
ATOM      2  C   UNL     1       1.971   3.334  19.797  0.00  0.00    +0.000 A 
ATOM      3  C   UNL     1       2.337   3.543  18.521  0.00  0.00    +0.000 A 
ATOM      4  C   UNL     1       3.687   3.276  18.076  0.00  0.00    +0.000 A 
ATOM      5  C   UNL     1       4.563   2.821  18.976  0.00  0.00    +0.000 A 
ATOM      6  O   UNL     1       4.252   2.600  20.317  0.00  0.00    +0.000 OA
ATOM      7  C   UNL     1       2.985   2.833  20.771  0.00  0.00    +0.000 A 
ATOM      8  O   UNL     1       2.685   2.636  21.948  0.00  0.00    +0.000 OA
ENDROOT
BRANCH   3   9
ATOM      9  O   UNL     1       1.503   4.012  17.532  0.00  0.00    +0.000 OA
ATOM     10  H   UNL     1       1.980   4.614  16.942  0.00  0.00    +0.000 HD
ENDBRANCH   3   9
BRANCH   4  11
ATOM     11  C   UNL     1       4.070   3.480  16.632  0.00  0.00    +0.000 C 
BRANCH  11  12
ATOM     12  C   UNL     1       5.322   4.351  16.495  0.00  0.00    +0.000 C 
BRANCH  12  13
ATOM     13  C   UNL     1       6.166   3.904  15.303  0.00  0.00    +0.000 C 
BRANCH  13  14
ATOM     14  C   UNL     1       5.537   4.358  13.985  0.00  0.00    +0.000 C 
BRANCH  14  15
ATOM     15  C   UNL     1       5.852   3.425  12.803  0.00  0.00    +0.000 C 
ATOM     16  C   UNL     1       4.672   3.289  11.839  0.00  0.00    +0.000 C 
ATOM     17  C   UNL     1       7.076   3.950  12.050  0.00  0.00    +0.000 C 
ENDBRANCH  14  15
ENDBRANCH  13  14
ENDBRANCH  12  13
ENDBRANCH  11  12
ENDBRANCH   4  11
TORSDOF 6
ENDMDL
MODEL 8
REMARK VINA RESULT:      -6.1      2.798      5.656
REMARK  Name = 
REMARK  9 active torsions:
REMARK  status: ('A' for Active; 'I' for Inactive)
REMARK    1  A    between atoms: C_1  and  C_2
REMARK    2  A    between atoms: C_3  and  O_4
REMARK    3  A    between atoms: C_5  and  C_6
REMARK    4  A    between atoms: C_6  and  C_7
REMARK    5  A    between atoms: C_7  and  C_8
REMARK    6  A    between atoms: C_8  and  C_9
REMARK    7  A    between atoms: C_9  and  C_10
REMARK    8  A    between atoms: C_10  and  C_11
REMARK    9  A    between atoms: C_10  and  C_12
REMARK                            x       y       z     vdW  Elec       q    Type
REMARK                         _______ _______ _______ _____ _____    ______ ____
ROOT
ATOM      1  C   UNL     1       1.458   2.792  21.288  0.00  0.00    +0.000 C 
ATOM      2  C   UNL     1       1.602   3.647  20.064  0.00  0.00    +0.000 A 
ATOM      3  C   UNL     1       2.106   4.892  20.009  0.00  0.00    +0.000 A 
ATOM      4  C   UNL     1       2.176   5.619  18.761  0.00  0.00    +0.000 A 
ATOM      5  C   UNL     1       1.730   5.010  17.658  0.00  0.00    +0.000 A 
ATOM      6  O   UNL     1       1.212   3.715  17.643  0.00  0.00    +0.000 OA
ATOM      7  C   UNL     1       1.123   3.003  18.805  0.00  0.00    +0.000 A 
ATOM      8  O   UNL     1       0.661   1.863  18.818  0.00  0.00    +0.000 OA
ENDROOT
BRANCH   3   9
ATOM      9  O   UNL     1       2.589   5.590  21.092  0.00  0.00    +0.000 OA
ATOM     10  H   UNL     1       3.416   5.197  21.408  0.00  0.00    +0.000 HD
ENDBRANCH   3   9
BRANCH   4  11
ATOM     11  C   UNL     1       2.709   7.028  18.725  0.00  0.00    +0.000 C 
BRANCH  11  12
ATOM     12  C   UNL     1       3.441   7.325  17.414  0.00  0.00    +0.000 C 
BRANCH  12  13
ATOM     13  C   UNL     1       4.793   6.616  17.374  0.00  0.00    +0.000 C 
BRANCH  13  14
ATOM     14  C   UNL     1       5.159   6.213  15.945  0.00  0.00    +0.000 C 
BRANCH  14  15
ATOM     15  C   UNL     1       5.248   4.691  15.742  0.00  0.00    +0.000 C 
ATOM     16  C   UNL     1       6.535   4.274  15.027  0.00  0.00    +0.000 C 
ATOM     17  C   UNL     1       5.160   3.987  17.098  0.00  0.00    +0.000 C 
ENDBRANCH  14  15
ENDBRANCH  13  14
ENDBRANCH  12  13
ENDBRANCH  11  12
ENDBRANCH   4  11
TORSDOF 6
ENDMDL
MODEL 9
REMARK VINA RESULT:      -6.1      1.619      3.268
REMARK  Name = 
REMARK  9 active torsions:
REMARK  status: ('A' for Active; 'I' for Inactive)
REMARK    1  A    between atoms: C_1  and  C_2
REMARK    2  A    between atoms: C_3  and  O_4
REMARK    3  A    between atoms: C_5  and  C_6
REMARK    4  A    between atoms: C_6  and  C_7
REMARK    5  A    between atoms: C_7  and  C_8
REMARK    6  A    between atoms: C_8  and  C_9
REMARK    7  A    between atoms: C_9  and  C_10
REMARK    8  A    between atoms: C_10  and  C_11
REMARK    9  A    between atoms: C_10  and  C_12
REMARK                            x       y       z     vdW  Elec       q    Type
REMARK                         _______ _______ _______ _____ _____    ______ ____
ROOT
ATOM      1  C   UNL     1       5.302   6.118  15.693  0.00  0.00    +0.000 C 
ATOM      2  C   UNL     1       5.056   5.639  17.093  0.00  0.00    +0.000 A 
ATOM      3  C   UNL     1       4.041   6.000  17.898  0.00  0.00    +0.000 A 
ATOM      4  C   UNL     1       3.925   5.473  19.240  0.00  0.00    +0.000 A 
ATOM      5  C   UNL     1       4.855   4.608  19.654  0.00  0.00    +0.000 A 
ATOM      6  O   UNL     1       5.921   4.179  18.864  0.00  0.00    +0.000 OA
ATOM      7  C   UNL     1       6.067   4.662  17.595  0.00  0.00    +0.000 A 
ATOM      8  O   UNL     1       7.005   4.305  16.883  0.00  0.00    +0.000 OA
ENDROOT
BRANCH   3   9
ATOM      9  O   UNL     1       3.042   6.881  17.553  0.00  0.00    +0.000 OA
ATOM     10  H   UNL     1       3.413   7.663  17.121  0.00  0.00    +0.000 HD
ENDBRANCH   3   9
BRANCH   4  11
ATOM     11  C   UNL     1       2.803   5.919  20.142  0.00  0.00    +0.000 C 
BRANCH  11  12
ATOM     12  C   UNL     1       2.267   4.766  20.993  0.00  0.00    +0.000 C 
BRANCH  12  13
ATOM     13  C   UNL     1       1.094   4.077  20.298  0.00  0.00    +0.000 C 
BRANCH  13  14
ATOM     14  C   UNL     1       1.470   2.661  19.862  0.00  0.00    +0.000 C 
BRANCH  14  15
ATOM     15  C   UNL     1       1.588   2.500  18.337  0.00  0.00    +0.000 C 
ATOM     16  C   UNL     1       1.277   3.798  17.589  0.00  0.00    +0.000 C 
ATOM     17  C   UNL     1       2.999   2.025  17.981  0.00  0.00    +0.000 C 
ENDBRANCH  14  15
ENDBRANCH  13  14
ENDBRANCH  12  13
ENDBRANCH  11  12
ENDBRANCH   4  11
TORSDOF 6
ENDMDL
