MODEL 1
REMARK VINA RESULT:      -6.7      0.000      0.000
REMARK  Name = 
REMARK  5 active torsions:
REMARK  status: ('A' for Active; 'I' for Inactive)
REMARK    1  A    between atoms: C_1  and  C_2
REMARK    2  A    between atoms: C_2  and  O_3
REMARK    3  A    between atoms: O_3  and  C_4
REMARK    4  A    between atoms: C_4  and  C_6
REMARK    5  A    between atoms: C_13  and  C_14
REMARK                            x       y       z     vdW  Elec       q    Type
REMARK                         _______ _______ _______ _____ _____    ______ ____
ROOT
ATOM      1  C   UNL     1       3.704   4.900  18.470  0.00  0.00    +0.000 A 
ATOM      2  C   UNL     1       3.085   6.168  18.687  0.00  0.00    +0.000 A 
ATOM      3  C   UNL     1       2.328   6.097  19.847  0.00  0.00    +0.000 A 
ATOM      4  N   UNL     1       2.474   4.827  20.373  0.00  0.00    +0.000 N 
ATOM      5  C   UNL     1       1.884   4.273  21.512  0.00  0.00    +0.000 A 
ATOM      6  C   UNL     1       2.143   3.000  21.851  0.00  0.00    +0.000 A 
ATOM      7  C   UNL     1       3.063   2.234  21.039  0.00  0.00    +0.000 A 
ATOM      8  C   UNL     1       3.668   2.731  19.938  0.00  0.00    +0.000 A 
ATOM      9  C   UNL     1       4.630   1.829  19.201  0.00  0.00    +0.000 C 
ATOM     10  C   UNL     1       3.351   4.097  19.550  0.00  0.00    +0.000 A 
ATOM     11  C   UNL     1       1.547   7.210  20.355  0.00  0.00    +0.000 C 
ATOM     12  O   UNL     1       0.857   7.189  21.367  0.00  0.00    +0.000 OA
ATOM     13  C   UNL     1       1.614   8.459  19.550  0.00  0.00    +0.000 A 
ATOM     14  C   UNL     1       0.908   9.582  19.913  0.00  0.00    +0.000 A 
ATOM     15  N   UNL     1       0.967  10.735  19.204  0.00  0.00    +0.000 NA
ATOM     16  N   UNL     1       1.749  10.807  18.089  0.00  0.00    +0.000 NA
ATOM     17  C   UNL     1       2.447   9.725  17.702  0.00  0.00    +0.000 A 
ATOM     18  C   UNL     1       2.399   8.540  18.405  0.00  0.00    +0.000 A 
ATOM     19  C   UNL     1       3.186   7.402  17.929  0.00  0.00    +0.000 C 
ATOM     20  O   UNL     1       3.912   7.567  16.957  0.00  0.00    +0.000 OA
ENDROOT
BRANCH   1  21
ATOM     21  C   UNL     1       4.579   4.555  17.358  0.00  0.00    +0.000 C 
ATOM     22  O   UNL     1       4.181   4.077  16.297  0.00  0.00    +0.000 OA
BRANCH  21  23
ATOM     23  O   UNL     1       5.893   4.729  17.652  0.00  0.00    +0.000 OA
BRANCH  23  25
ATOM     24  C   UNL     1       7.296   6.653  17.393  0.00  0.00    +0.000 C 
ATOM     25  C   UNL     1       6.634   5.493  16.695  0.00  0.00    +0.000 C 
ENDBRANCH  23  25
ENDBRANCH  21  23
ENDBRANCH   1  21
TORSDOF 3
ENDMDL
MODEL 2
REMARK VINA RESULT:      -6.6      2.170      4.382
REMARK  Name = 
REMARK  5 active torsions:
REMARK  status: ('A' for Active; 'I' for Inactive)
REMARK    1  A    between atoms: C_1  and  C_2
REMARK    2  A    between atoms: C_2  and  O_3
REMARK    3  A    between atoms: O_3  and  C_4
REMARK    4  A    between atoms: C_4  and  C_6
REMARK    5  A    between atoms: C_13  and  C_14
REMARK                            x       y       z     vdW  Elec       q    Type
REMARK                         _______ _______ _______ _____ _____    ______ ____
ROOT
ATOM      1  C   UNL     1       2.387   5.988  19.741  0.00  0.00    +0.000 A 
ATOM      2  C   UNL     1       1.873   7.320  19.702  0.00  0.00    +0.000 A 
ATOM      3  C   UNL     1       2.442   7.981  18.624  0.00  0.00    +0.000 A 
ATOM      4  N   UNL     1       3.281   7.093  17.975  0.00  0.00    +0.000 N 
ATOM      5  C   UNL     1       4.093   7.306  16.858  0.00  0.00    +0.000 A 
ATOM      6  C   UNL     1       4.855   6.309  16.383  0.00  0.00    +0.000 A 
ATOM      7  C   UNL     1       4.793   5.014  17.025  0.00  0.00    +0.000 A 
ATOM      8  C   UNL     1       4.013   4.758  18.097  0.00  0.00    +0.000 A 
ATOM      9  C   UNL     1       4.023   3.351  18.649  0.00  0.00    +0.000 C 
ATOM     10  C   UNL     1       3.221   5.853  18.635  0.00  0.00    +0.000 A 
ATOM     11  C   UNL     1       2.155   9.366  18.300  0.00  0.00    +0.000 C 
ATOM     12  O   UNL     1       2.641   9.992  17.366  0.00  0.00    +0.000 OA
ATOM     13  C   UNL     1       1.187  10.046  19.202  0.00  0.00    +0.000 A 
ATOM     14  C   UNL     1       0.839  11.364  19.015  0.00  0.00    +0.000 A 
ATOM     15  N   UNL     1      -0.052  11.999  19.813  0.00  0.00    +0.000 NA
ATOM     16  N   UNL     1      -0.639  11.326  20.845  0.00  0.00    +0.000 NA
ATOM     17  C   UNL     1      -0.317  10.038  21.060  0.00  0.00    +0.000 A 
ATOM     18  C   UNL     1       0.591   9.373  20.263  0.00  0.00    +0.000 A 
ATOM     19  C   UNL     1       0.894   7.971  20.553  0.00  0.00    +0.000 C 
ATOM     20  O   UNL     1       0.277   7.421  21.456  0.00  0.00    +0.000 OA
ENDROOT
BRANCH   1  21
ATOM     21  C   UNL     1       2.044   4.968  20.722  0.00  0.00    +0.000 C 
ATOM     22  O   UNL     1       2.777   4.641  21.654  0.00  0.00    +0.000 OA
BRANCH  21  23
ATOM     23  O   UNL     1       0.868   4.348  20.445  0.00  0.00    +0.000 OA
BRANCH  23  25
ATOM     24  C   UNL     1       0.654   2.523  18.910  0.00  0.00    +0.000 C 
ATOM     25  C   UNL     1       0.943   2.923  20.334  0.00  0.00    +0.000 C 
ENDBRANCH  23  25
ENDBRANCH  21  23
ENDBRANCH   1  21
TORSDOF 3
ENDMDL
MODEL 3
REMARK VINA RESULT:      -6.4      1.973      4.358
REMARK  Name = 
REMARK  5 active torsions:
REMARK  status: ('A' for Active; 'I' for Inactive)
REMARK    1  A    between atoms: C_1  and  C_2
REMARK    2  A    between atoms: C_2  and  O_3
REMARK    3  A    between atoms: O_3  and  C_4
REMARK    4  A    between atoms: C_4  and  C_6
REMARK    5  A    between atoms: C_13  and  C_14
REMARK                            x       y       z     vdW  Elec       q    Type
REMARK                         _______ _______ _______ _____ _____    ______ ____
ROOT
ATOM      1  C   UNL     1       3.871   4.808  18.449  0.00  0.00    +0.000 A 
ATOM      2  C   UNL     1       3.099   5.914  18.919  0.00  0.00    +0.000 A 
ATOM      3  C   UNL     1       3.238   6.963  18.023  0.00  0.00    +0.000 A 
ATOM      4  N   UNL     1       4.057   6.537  16.993  0.00  0.00    +0.000 N 
ATOM      5  C   UNL     1       4.509   7.247  15.877  0.00  0.00    +0.000 A 
ATOM      6  C   UNL     1       5.320   6.653  14.988  0.00  0.00    +0.000 A 
ATOM      7  C   UNL     1       5.686   5.269  15.191  0.00  0.00    +0.000 A 
ATOM      8  C   UNL     1       5.263   4.540  16.246  0.00  0.00    +0.000 A 
ATOM      9  C   UNL     1       5.699   3.095  16.317  0.00  0.00    +0.000 C 
ATOM     10  C   UNL     1       4.418   5.199  17.230  0.00  0.00    +0.000 A 
ATOM     11  C   UNL     1       2.600   8.254  18.205  0.00  0.00    +0.000 C 
ATOM     12  O   UNL     1       2.702   9.210  17.447  0.00  0.00    +0.000 OA
ATOM     13  C   UNL     1       1.763   8.386  19.428  0.00  0.00    +0.000 A 
ATOM     14  C   UNL     1       1.115   9.562  19.728  0.00  0.00    +0.000 A 
ATOM     15  N   UNL     1       0.336   9.700  20.827  0.00  0.00    +0.000 NA
ATOM     16  N   UNL     1       0.171   8.648  21.679  0.00  0.00    +0.000 NA
ATOM     17  C   UNL     1       0.795   7.486  21.420  0.00  0.00    +0.000 A 
ATOM     18  C   UNL     1       1.598   7.323  20.310  0.00  0.00    +0.000 A 
ATOM     19  C   UNL     1       2.246   6.030  20.088  0.00  0.00    +0.000 C 
ATOM     20  O   UNL     1       1.996   5.117  20.864  0.00  0.00    +0.000 OA
ENDROOT
BRANCH   1  21
ATOM     21  C   UNL     1       3.997   3.514  19.103  0.00  0.00    +0.000 C 
ATOM     22  O   UNL     1       4.822   3.269  19.983  0.00  0.00    +0.000 OA
BRANCH  21  23
ATOM     23  O   UNL     1       3.171   2.576  18.572  0.00  0.00    +0.000 OA
BRANCH  23  25
ATOM     24  C   UNL     1       0.792   2.506  18.833  0.00  0.00    +0.000 C 
ATOM     25  C   UNL     1       2.120   2.132  19.437  0.00  0.00    +0.000 C 
ENDBRANCH  23  25
ENDBRANCH  21  23
ENDBRANCH   1  21
TORSDOF 3
ENDMDL
MODEL 4
REMARK VINA RESULT:      -6.4      2.512      6.045
REMARK  Name = 
REMARK  5 active torsions:
REMARK  status: ('A' for Active; 'I' for Inactive)
REMARK    1  A    between atoms: C_1  and  C_2
REMARK    2  A    between atoms: C_2  and  O_3
REMARK    3  A    between atoms: O_3  and  C_4
REMARK    4  A    between atoms: C_4  and  C_6
REMARK    5  A    between atoms: C_13  and  C_14
REMARK                            x       y       z     vdW  Elec       q    Type
REMARK                         _______ _______ _______ _____ _____    ______ ____
ROOT
ATOM      1  C   UNL     1       2.371   5.947  19.643  0.00  0.00    +0.000 A 
ATOM      2  C   UNL     1       3.261   5.671  18.561  0.00  0.00    +0.000 A 
ATOM      3  C   UNL     1       3.387   6.817  17.790  0.00  0.00    +0.000 A 
ATOM      4  N   UNL     1       2.618   7.808  18.372  0.00  0.00    +0.000 N 
ATOM      5  C   UNL     1       2.402   9.121  17.944  0.00  0.00    +0.000 A 
ATOM      6  C   UNL     1       1.599   9.933  18.648  0.00  0.00    +0.000 A 
ATOM      7  C   UNL     1       0.994   9.435  19.864  0.00  0.00    +0.000 A 
ATOM      8  C   UNL     1       1.184   8.180  20.324  0.00  0.00    +0.000 A 
ATOM      9  C   UNL     1       0.513   7.802  21.625  0.00  0.00    +0.000 C 
ATOM     10  C   UNL     1       2.021   7.289  19.535  0.00  0.00    +0.000 A 
ATOM     11  C   UNL     1       4.205   6.884  16.592  0.00  0.00    +0.000 C 
ATOM     12  O   UNL     1       4.337   7.869  15.877  0.00  0.00    +0.000 OA
ATOM     13  C   UNL     1       4.924   5.630  16.239  0.00  0.00    +0.000 A 
ATOM     14  C   UNL     1       5.721   5.554  15.120  0.00  0.00    +0.000 A 
ATOM     15  N   UNL     1       6.398   4.429  14.788  0.00  0.00    +0.000 NA
ATOM     16  N   UNL     1       6.301   3.321  15.578  0.00  0.00    +0.000 NA
ATOM     17  C   UNL     1       5.526   3.359  16.676  0.00  0.00    +0.000 A 
ATOM     18  C   UNL     1       4.824   4.492  17.031  0.00  0.00    +0.000 A 
ATOM     19  C   UNL     1       4.000   4.464  18.240  0.00  0.00    +0.000 C 
ATOM     20  O   UNL     1       4.017   3.452  18.929  0.00  0.00    +0.000 OA
ENDROOT
BRANCH   1  21
ATOM     21  C   UNL     1       1.970   5.007  20.680  0.00  0.00    +0.000 C 
ATOM     22  O   UNL     1       2.647   4.756  21.676  0.00  0.00    +0.000 OA
BRANCH  21  23
ATOM     23  O   UNL     1       0.811   4.364  20.385  0.00  0.00    +0.000 OA
BRANCH  23  25
ATOM     24  C   UNL     1       0.732   2.534  18.842  0.00  0.00    +0.000 C 
ATOM     25  C   UNL     1       0.914   2.940  20.282  0.00  0.00    +0.000 C 
ENDBRANCH  23  25
ENDBRANCH  21  23
ENDBRANCH   1  21
TORSDOF 3
ENDMDL
MODEL 5
REMARK VINA RESULT:      -6.2      5.950      9.080
REMARK  Name = 
REMARK  5 active torsions:
REMARK  status: ('A' for Active; 'I' for Inactive)
REMARK    1  A    between atoms: C_1  and  C_2
REMARK    2  A    between atoms: C_2  and  O_3
REMARK    3  A    between atoms: O_3  and  C_4
REMARK    4  A    between atoms: C_4  and  C_6
REMARK    5  A    between atoms: C_13  and  C_14
REMARK                            x       y       z     vdW  Elec       q    Type
REMARK                         _______ _______ _______ _____ _____    ______ ____
ROOT
ATOM      1  C   UNL     1      -0.880  11.859  20.474  0.00  0.00    +0.000 A 
ATOM      2  C   UNL     1      -1.924  12.614  21.091  0.00  0.00    +0.000 A 
ATOM      3  C   UNL     1      -3.050  12.553  20.284  0.00  0.00    +0.000 A 
ATOM      4  N   UNL     1      -2.747  11.763  19.190  0.00  0.00    +0.000 N 
ATOM      5  C   UNL     1      -3.547  11.435  18.092  0.00  0.00    +0.000 A 
ATOM      6  C   UNL     1      -3.058  10.658  17.114  0.00  0.00    +0.000 A 
ATOM      7  C   UNL     1      -1.711  10.145  17.235  0.00  0.00    +0.000 A 
ATOM      8  C   UNL     1      -0.906  10.423  18.284  0.00  0.00    +0.000 A 
ATOM      9  C   UNL     1       0.468   9.795  18.296  0.00  0.00    +0.000 C 
ATOM     10  C   UNL     1      -1.425  11.301  19.321  0.00  0.00    +0.000 A 
ATOM     11  C   UNL     1      -4.294  13.230  20.602  0.00  0.00    +0.000 C 
ATOM     12  O   UNL     1      -5.307  13.212  19.916  0.00  0.00    +0.000 OA
ATOM     13  C   UNL     1      -4.295  13.998  21.876  0.00  0.00    +0.000 A 
ATOM     14  C   UNL     1      -5.406  14.698  22.288  0.00  0.00    +0.000 A 
ATOM     15  N   UNL     1      -5.435  15.391  23.451  0.00  0.00    +0.000 NA
ATOM     16  N   UNL     1      -4.336  15.409  24.259  0.00  0.00    +0.000 NA
ATOM     17  C   UNL     1      -3.231  14.741  23.883  0.00  0.00    +0.000 A 
ATOM     18  C   UNL     1      -3.176  14.032  22.701  0.00  0.00    +0.000 A 
ATOM     19  C   UNL     1      -1.942  13.327  22.355  0.00  0.00    +0.000 C 
ATOM     20  O   UNL     1      -1.023  13.338  23.164  0.00  0.00    +0.000 OA
ENDROOT
BRANCH   1  21
ATOM     21  C   UNL     1       0.465  11.674  20.998  0.00  0.00    +0.000 C 
ATOM     22  O   UNL     1       1.471  12.169  20.492  0.00  0.00    +0.000 OA
BRANCH  21  23
ATOM     23  O   UNL     1       0.504  10.818  22.052  0.00  0.00    +0.000 OA
BRANCH  23  25
ATOM     24  C   UNL     1      -0.208   8.553  21.741  0.00  0.00    +0.000 C 
ATOM     25  C   UNL     1       0.966   9.498  21.747  0.00  0.00    +0.000 C 
ENDBRANCH  23  25
ENDBRANCH  21  23
ENDBRANCH   1  21
TORSDOF 3
ENDMDL
MODEL 6
REMARK VINA RESULT:      -6.2      6.630      9.657
REMARK  Name = 
REMARK  5 active torsions:
REMARK  status: ('A' for Active; 'I' for Inactive)
REMARK    1  A    between atoms: C_1  and  C_2
REMARK    2  A    between atoms: C_2  and  O_3
REMARK    3  A    between atoms: O_3  and  C_4
REMARK    4  A    between atoms: C_4  and  C_6
REMARK    5  A    between atoms: C_13  and  C_14
REMARK                            x       y       z     vdW  Elec       q    Type
REMARK                         _______ _______ _______ _____ _____    ______ ____
ROOT
ATOM      1  C   UNL     1      -1.608  12.589  21.432  0.00  0.00    +0.000 A 
ATOM      2  C   UNL     1      -2.164  12.131  20.198  0.00  0.00    +0.000 A 
ATOM      3  C   UNL     1      -3.459  12.614  20.090  0.00  0.00    +0.000 A 
ATOM      4  N   UNL     1      -3.722  13.381  21.211  0.00  0.00    +0.000 N 
ATOM      5  C   UNL     1      -4.898  14.047  21.566  0.00  0.00    +0.000 A 
ATOM      6  C   UNL     1      -4.958  14.733  22.718  0.00  0.00    +0.000 A 
ATOM      7  C   UNL     1      -3.783  14.795  23.558  0.00  0.00    +0.000 A 
ATOM      8  C   UNL     1      -2.621  14.179  23.250  0.00  0.00    +0.000 A 
ATOM      9  C   UNL     1      -1.463  14.351  24.206  0.00  0.00    +0.000 C 
ATOM     10  C   UNL     1      -2.573  13.400  22.022  0.00  0.00    +0.000 A 
ATOM     11  C   UNL     1      -4.325  12.322  18.963  0.00  0.00    +0.000 C 
ATOM     12  O   UNL     1      -5.476  12.718  18.831  0.00  0.00    +0.000 OA
ATOM     13  C   UNL     1      -3.728  11.466  17.904  0.00  0.00    +0.000 A 
ATOM     14  C   UNL     1      -4.447  11.101  16.789  0.00  0.00    +0.000 A 
ATOM     15  N   UNL     1      -3.919  10.336  15.804  0.00  0.00    +0.000 NA
ATOM     16  N   UNL     1      -2.629   9.901  15.900  0.00  0.00    +0.000 NA
ATOM     17  C   UNL     1      -1.900  10.233  16.979  0.00  0.00    +0.000 A 
ATOM     18  C   UNL     1      -2.418  11.008  17.997  0.00  0.00    +0.000 A 
ATOM     19  C   UNL     1      -1.568  11.333  19.142  0.00  0.00    +0.000 C 
ATOM     20  O   UNL     1      -0.402  10.959  19.122  0.00  0.00    +0.000 OA
ENDROOT
BRANCH   1  21
ATOM     21  C   UNL     1      -0.270  12.299  21.926  0.00  0.00    +0.000 C 
ATOM     22  O   UNL     1       0.740  12.899  21.560  0.00  0.00    +0.000 OA
BRANCH  21  23
ATOM     23  O   UNL     1      -0.241  11.232  22.765  0.00  0.00    +0.000 OA
BRANCH  23  25
ATOM     24  C   UNL     1      -0.494   8.904  22.266  0.00  0.00    +0.000 C 
ATOM     25  C   UNL     1       0.446  10.082  22.263  0.00  0.00    +0.000 C 
ENDBRANCH  23  25
ENDBRANCH  21  23
ENDBRANCH   1  21
TORSDOF 3
ENDMDL
MODEL 7
REMARK VINA RESULT:      -6.2      7.562      9.766
REMARK  Name = 
REMARK  5 active torsions:
REMARK  status: ('A' for Active; 'I' for Inactive)
REMARK    1  A    between atoms: C_1  and  C_2
REMARK    2  A    between atoms: C_2  and  O_3
REMARK    3  A    between atoms: O_3  and  C_4
REMARK    4  A    between atoms: C_4  and  C_6
REMARK    5  A    between atoms: C_13  and  C_14
REMARK                            x       y       z     vdW  Elec       q    Type
REMARK                         _______ _______ _______ _____ _____    ______ ____
ROOT
ATOM      1  C   UNL     1      -3.663  11.702  18.848  0.00  0.00    +0.000 A 
ATOM      2  C   UNL     1      -2.549  12.237  19.564  0.00  0.00    +0.000 A 
ATOM      3  C   UNL     1      -3.024  13.114  20.528  0.00  0.00    +0.000 A 
ATOM      4  N   UNL     1      -4.405  13.126  20.449  0.00  0.00    +0.000 N 
ATOM      5  C   UNL     1      -5.322  13.874  21.191  0.00  0.00    +0.000 A 
ATOM      6  C   UNL     1      -6.637  13.754  20.950  0.00  0.00    +0.000 A 
ATOM      7  C   UNL     1      -7.080  12.818  19.940  0.00  0.00    +0.000 A 
ATOM      8  C   UNL     1      -6.232  12.064  19.208  0.00  0.00    +0.000 A 
ATOM      9  C   UNL     1      -6.834  11.106  18.206  0.00  0.00    +0.000 C 
ATOM     10  C   UNL     1      -4.805  12.230  19.442  0.00  0.00    +0.000 A 
ATOM     11  C   UNL     1      -2.157  13.853  21.427  0.00  0.00    +0.000 C 
ATOM     12  O   UNL     1      -2.530  14.644  22.284  0.00  0.00    +0.000 OA
ATOM     13  C   UNL     1      -0.700  13.603  21.258  0.00  0.00    +0.000 A 
ATOM     14  C   UNL     1       0.232  14.251  22.036  0.00  0.00    +0.000 A 
ATOM     15  N   UNL     1       1.562  14.027  21.912  0.00  0.00    +0.000 NA
ATOM     16  N   UNL     1       2.015  13.129  20.990  0.00  0.00    +0.000 NA
ATOM     17  C   UNL     1       1.133  12.483  20.208  0.00  0.00    +0.000 A 
ATOM     18  C   UNL     1      -0.226  12.699  20.314  0.00  0.00    +0.000 A 
ATOM     19  C   UNL     1      -1.131  11.960  19.433  0.00  0.00    +0.000 C 
ATOM     20  O   UNL     1      -0.649  11.126  18.677  0.00  0.00    +0.000 OA
ENDROOT
BRANCH   1  21
ATOM     21  C   UNL     1      -3.594  10.747  17.751  0.00  0.00    +0.000 C 
ATOM     22  O   UNL     1      -3.421   9.539  17.906  0.00  0.00    +0.000 OA
BRANCH  21  23
ATOM     23  O   UNL     1      -3.647  11.343  16.532  0.00  0.00    +0.000 OA
BRANCH  23  25
ATOM     24  C   UNL     1      -3.516  10.143  14.464  0.00  0.00    +0.000 C 
ATOM     25  C   UNL     1      -2.736  10.822  15.560  0.00  0.00    +0.000 C 
ENDBRANCH  23  25
ENDBRANCH  21  23
ENDBRANCH   1  21
TORSDOF 3
ENDMDL
MODEL 8
REMARK VINA RESULT:      -6.1      6.999     10.090
REMARK  Name = 
REMARK  5 active torsions:
REMARK  status: ('A' for Active; 'I' for Inactive)
REMARK    1  A    between atoms: C_1  and  C_2
REMARK    2  A    between atoms: C_2  and  O_3
REMARK    3  A    between atoms: O_3  and  C_4
REMARK    4  A    between atoms: C_4  and  C_6
REMARK    5  A    between atoms: C_13  and  C_14
REMARK                            x       y       z     vdW  Elec       q    Type
REMARK                         _______ _______ _______ _____ _____    ______ ____
ROOT
ATOM      1  C   UNL     1      -3.735  11.759  18.770  0.00  0.00    +0.000 A 
ATOM      2  C   UNL     1      -3.668  12.564  19.948  0.00  0.00    +0.000 A 
ATOM      3  C   UNL     1      -2.397  12.450  20.490  0.00  0.00    +0.000 A 
ATOM      4  N   UNL     1      -1.659  11.613  19.671  0.00  0.00    +0.000 N 
ATOM      5  C   UNL     1      -0.341  11.175  19.820  0.00  0.00    +0.000 A 
ATOM      6  C   UNL     1       0.195  10.342  18.915  0.00  0.00    +0.000 A 
ATOM      7  C   UNL     1      -0.602   9.939  17.777  0.00  0.00    +0.000 A 
ATOM      8  C   UNL     1      -1.874  10.348  17.584  0.00  0.00    +0.000 A 
ATOM      9  C   UNL     1      -2.580   9.873  16.335  0.00  0.00    +0.000 C 
ATOM     10  C   UNL     1      -2.466  11.216  18.591  0.00  0.00    +0.000 A 
ATOM     11  C   UNL     1      -1.988  13.124  21.708  0.00  0.00    +0.000 C 
ATOM     12  O   UNL     1      -0.882  13.044  22.227  0.00  0.00    +0.000 OA
ATOM     13  C   UNL     1      -3.030  13.971  22.349  0.00  0.00    +0.000 A 
ATOM     14  C   UNL     1      -2.777  14.653  23.518  0.00  0.00    +0.000 A 
ATOM     15  N   UNL     1      -3.704  15.443  24.110  0.00  0.00    +0.000 NA
ATOM     16  N   UNL     1      -4.938  15.583  23.545  0.00  0.00    +0.000 NA
ATOM     17  C   UNL     1      -5.221  14.925  22.407  0.00  0.00    +0.000 A 
ATOM     18  C   UNL     1      -4.294  14.112  21.788  0.00  0.00    +0.000 A 
ATOM     19  C   UNL     1      -4.668  13.427  20.550  0.00  0.00    +0.000 C 
ATOM     20  O   UNL     1      -5.772  13.656  20.073  0.00  0.00    +0.000 OA
ENDROOT
BRANCH   1  21
ATOM     21  C   UNL     1      -4.897  11.601  17.908  0.00  0.00    +0.000 C 
ATOM     22  O   UNL     1      -5.218  12.407  17.036  0.00  0.00    +0.000 OA
BRANCH  21  23
ATOM     23  O   UNL     1      -5.645  10.515  18.232  0.00  0.00    +0.000 OA
BRANCH  23  25
ATOM     24  C   UNL     1      -7.158  10.414  20.085  0.00  0.00    +0.000 C 
ATOM     25  C   UNL     1      -6.988  10.800  18.639  0.00  0.00    +0.000 C 
ENDBRANCH  23  25
ENDBRANCH  21  23
ENDBRANCH   1  21
TORSDOF 3
ENDMDL
MODEL 9
REMARK VINA RESULT:      -6.1      7.855     10.290
REMARK  Name = 
REMARK  5 active torsions:
REMARK  status: ('A' for Active; 'I' for Inactive)
REMARK    1  A    between atoms: C_1  and  C_2
REMARK    2  A    between atoms: C_2  and  O_3
REMARK    3  A    between atoms: O_3  and  C_4
REMARK    4  A    between atoms: C_4  and  C_6
REMARK    5  A    between atoms: C_13  and  C_14
REMARK                            x       y       z     vdW  Elec       q    Type
REMARK                         _______ _______ _______ _____ _____    ______ ____
ROOT
ATOM      1  C   UNL     1       9.520  12.913  20.213  0.00  0.00    +0.000 A 
ATOM      2  C   UNL     1       8.492  13.288  21.131  0.00  0.00    +0.000 A 
ATOM      3  C   UNL     1       8.032  14.550  20.785  0.00  0.00    +0.000 A 
ATOM      4  N   UNL     1       8.728  14.965  19.664  0.00  0.00    +0.000 N 
ATOM      5  C   UNL     1       8.637  16.174  18.970  0.00  0.00    +0.000 A 
ATOM      6  C   UNL     1       9.419  16.394  17.902  0.00  0.00    +0.000 A 
ATOM      7  C   UNL     1      10.325  15.352  17.471  0.00  0.00    +0.000 A 
ATOM      8  C   UNL     1      10.437  14.164  18.103  0.00  0.00    +0.000 A 
ATOM      9  C   UNL     1      11.403  13.154  17.526  0.00  0.00    +0.000 C 
ATOM     10  C   UNL     1       9.618  13.945  19.285  0.00  0.00    +0.000 A 
ATOM     11  C   UNL     1       6.994  15.247  21.524  0.00  0.00    +0.000 C 
ATOM     12  O   UNL     1       6.565  16.363  21.262  0.00  0.00    +0.000 OA
ATOM     13  C   UNL     1       6.435  14.511  22.689  0.00  0.00    +0.000 A 
ATOM     14  C   UNL     1       5.457  15.065  23.482  0.00  0.00    +0.000 A 
ATOM     15  N   UNL     1       4.921  14.407  24.538  0.00  0.00    +0.000 NA
ATOM     16  N   UNL     1       5.351  13.148  24.842  0.00  0.00    +0.000 NA
ATOM     17  C   UNL     1       6.310  12.579  24.092  0.00  0.00    +0.000 A 
ATOM     18  C   UNL     1       6.873  13.232  23.015  0.00  0.00    +0.000 A 
ATOM     19  C   UNL     1       7.912  12.553  22.240  0.00  0.00    +0.000 C 
ATOM     20  O   UNL     1       8.196  11.400  22.538  0.00  0.00    +0.000 OA
ENDROOT
BRANCH   1  21
ATOM     21  C   UNL     1      10.266  11.662  20.230  0.00  0.00    +0.000 C 
ATOM     22  O   UNL     1      11.468  11.585  20.478  0.00  0.00    +0.000 OA
BRANCH  21  23
ATOM     23  O   UNL     1       9.513  10.598  19.850  0.00  0.00    +0.000 OA
BRANCH  23  25
ATOM     24  C   UNL     1       8.367   9.340  18.165  0.00  0.00    +0.000 C 
ATOM     25  C   UNL     1       9.389  10.414  18.436  0.00  0.00    +0.000 C 
ENDBRANCH  23  25
ENDBRANCH  21  23
ENDBRANCH   1  21
TORSDOF 3
ENDMDL
