MODEL 1
REMARK VINA RESULT:      -7.8      0.000      0.000
REMARK  Name = 
REMARK  8 active torsions:
REMARK  status: ('A' for Active; 'I' for Inactive)
REMARK    1  A    between atoms: C_1  and  C_2
REMARK    2  A    between atoms: C_2  and  C_3
REMARK    3  A    between atoms: C_7  and  O_8
REMARK    4  A    between atoms: O_8  and  C_9
REMARK    5  A    between atoms: C_10  and  O_11
REMARK    6  A    between atoms: O_11  and  C_12
REMARK    7  A    between atoms: C_19  and  C_20
REMARK    8  A    between atoms: C_20  and  O_22
REMARK                            x       y       z     vdW  Elec       q    Type
REMARK                         _______ _______ _______ _____ _____    ______ ____
ROOT
ATOM      1  C   UNL     1       7.030   5.929  17.675  0.00  0.00    +0.000 C 
ATOM      2  C   UNL     1       6.398   5.425  18.985  0.00  0.00    +0.000 C 
ATOM      3  C   UNL     1       5.131   4.627  18.862  0.00  0.00    +0.000 A 
ATOM      4  C   UNL     1       4.358   4.394  20.027  0.00  0.00    +0.000 A 
ATOM      5  C   UNL     1       3.192   3.597  20.040  0.00  0.00    +0.000 A 
ATOM      6  C   UNL     1       2.817   2.988  18.847  0.00  0.00    +0.000 A 
ATOM      7  C   UNL     1       3.595   3.253  17.687  0.00  0.00    +0.000 A 
ATOM      8  C   UNL     1       4.739   4.074  17.649  0.00  0.00    +0.000 A 
ATOM      9  C   UNL     1       5.507   4.340  16.400  0.00  0.00    +0.000 A 
ATOM     10  C   UNL     1       5.112   3.804  15.224  0.00  0.00    +0.000 A 
ATOM     11  C   UNL     1       5.880   4.056  13.986  0.00  0.00    +0.000 A 
ATOM     12  O   UNL     1       5.518   3.580  12.912  0.00  0.00    +0.000 OA
ATOM     13  C   UNL     1       7.088   4.877  14.059  0.00  0.00    +0.000 A 
ATOM     14  C   UNL     1       7.396   5.358  15.283  0.00  0.00    +0.000 A 
ATOM     15  N   UNL     1       6.653   5.160  16.459  0.00  0.00    +0.000 N 
ENDROOT
BRANCH   1  17
ATOM     16  C   UNL     1       8.011   8.311  17.777  0.00  0.00    +0.000 C 
ATOM     17  C   UNL     1       6.799   7.444  17.471  0.00  0.00    +0.000 C 
ENDBRANCH   1  17
BRANCH   5  18
ATOM     18  O   UNL     1       2.492   3.739  21.205  0.00  0.00    +0.000 OA
ATOM     19  C   UNL     1       1.908   2.616  21.841  0.00  0.00    +0.000 C 
ENDBRANCH   5  18
BRANCH   6  20
ATOM     20  O   UNL     1       1.775   2.196  18.473  0.00  0.00    +0.000 OA
ATOM     21  C   UNL     1       0.424   2.519  18.673  0.00  0.00    +0.000 C 
ENDBRANCH   6  20
BRANCH  13  22
ATOM     22  C   UNL     1       7.937   5.222  12.910  0.00  0.00    +0.000 C 
ATOM     23  O   UNL     1       8.893   5.983  12.977  0.00  0.00    +0.000 OA
BRANCH  22  24
ATOM     24  O   UNL     1       7.570   4.633  11.750  0.00  0.00    +0.000 OA
ATOM     25  H   UNL     1       8.327   4.309  11.203  0.00  0.00    +0.000 HD
ENDBRANCH  22  24
ENDBRANCH  13  22
TORSDOF 5
ENDMDL
MODEL 2
REMARK VINA RESULT:      -7.3      6.387      9.186
REMARK  Name = 
REMARK  8 active torsions:
REMARK  status: ('A' for Active; 'I' for Inactive)
REMARK    1  A    between atoms: C_1  and  C_2
REMARK    2  A    between atoms: C_2  and  C_3
REMARK    3  A    between atoms: C_7  and  O_8
REMARK    4  A    between atoms: O_8  and  C_9
REMARK    5  A    between atoms: C_10  and  O_11
REMARK    6  A    between atoms: O_11  and  C_12
REMARK    7  A    between atoms: C_19  and  C_20
REMARK    8  A    between atoms: C_20  and  O_22
REMARK                            x       y       z     vdW  Elec       q    Type
REMARK                         _______ _______ _______ _____ _____    ______ ____
ROOT
ATOM      1  C   UNL     1       1.059  10.782  18.685  0.00  0.00    +0.000 C 
ATOM      2  C   UNL     1       1.566   9.656  17.765  0.00  0.00    +0.000 C 
ATOM      3  C   UNL     1       2.068   8.409  18.434  0.00  0.00    +0.000 A 
ATOM      4  C   UNL     1       2.808   7.475  17.667  0.00  0.00    +0.000 A 
ATOM      5  C   UNL     1       3.265   6.238  18.175  0.00  0.00    +0.000 A 
ATOM      6  C   UNL     1       2.931   5.921  19.488  0.00  0.00    +0.000 A 
ATOM      7  C   UNL     1       2.207   6.881  20.245  0.00  0.00    +0.000 A 
ATOM      8  C   UNL     1       1.775   8.133  19.765  0.00  0.00    +0.000 A 
ATOM      9  C   UNL     1       1.039   9.117  20.609  0.00  0.00    +0.000 A 
ATOM     10  C   UNL     1       0.767   8.843  21.903  0.00  0.00    +0.000 A 
ATOM     11  C   UNL     1       0.026   9.812  22.738  0.00  0.00    +0.000 A 
ATOM     12  O   UNL     1      -0.215   9.571  23.920  0.00  0.00    +0.000 OA
ATOM     13  C   UNL     1      -0.430  11.063  22.132  0.00  0.00    +0.000 A 
ATOM     14  C   UNL     1      -0.110  11.234  20.832  0.00  0.00    +0.000 A 
ATOM     15  N   UNL     1       0.629  10.340  20.039  0.00  0.00    +0.000 N 
ENDROOT
BRANCH   1  17
ATOM     16  C   UNL     1       1.494  13.305  18.388  0.00  0.00    +0.000 C 
ATOM     17  C   UNL     1       2.067  11.950  18.773  0.00  0.00    +0.000 C 
ENDBRANCH   1  17
BRANCH   5  18
ATOM     18  O   UNL     1       4.164   5.645  17.334  0.00  0.00    +0.000 OA
ATOM     19  C   UNL     1       4.971   6.426  16.471  0.00  0.00    +0.000 C 
ENDBRANCH   5  18
BRANCH   6  20
ATOM     20  O   UNL     1       3.203   4.869  20.307  0.00  0.00    +0.000 OA
ATOM     21  C   UNL     1       2.239   4.186  21.065  0.00  0.00    +0.000 C 
ENDBRANCH   6  20
BRANCH  13  22
ATOM     22  C   UNL     1      -1.161  12.120  22.845  0.00  0.00    +0.000 C 
ATOM     23  O   UNL     1      -0.779  13.281  22.915  0.00  0.00    +0.000 OA
BRANCH  22  24
ATOM     24  O   UNL     1      -2.304  11.706  23.436  0.00  0.00    +0.000 OA
ATOM     25  H   UNL     1      -2.576  10.787  23.194  0.00  0.00    +0.000 HD
ENDBRANCH  22  24
ENDBRANCH  13  22
TORSDOF 5
ENDMDL
MODEL 3
REMARK VINA RESULT:      -7.2      1.330      6.644
REMARK  Name = 
REMARK  8 active torsions:
REMARK  status: ('A' for Active; 'I' for Inactive)
REMARK    1  A    between atoms: C_1  and  C_2
REMARK    2  A    between atoms: C_2  and  C_3
REMARK    3  A    between atoms: C_7  and  O_8
REMARK    4  A    between atoms: O_8  and  C_9
REMARK    5  A    between atoms: C_10  and  O_11
REMARK    6  A    between atoms: O_11  and  C_12
REMARK    7  A    between atoms: C_19  and  C_20
REMARK    8  A    between atoms: C_20  and  O_22
REMARK                            x       y       z     vdW  Elec       q    Type
REMARK                         _______ _______ _______ _____ _____    ______ ____
ROOT
ATOM      1  C   UNL     1       5.578   5.986  18.262  0.00  0.00    +0.000 C 
ATOM      2  C   UNL     1       6.291   6.371  16.953  0.00  0.00    +0.000 C 
ATOM      3  C   UNL     1       6.129   5.432  15.792  0.00  0.00    +0.000 A 
ATOM      4  C   UNL     1       6.986   5.578  14.673  0.00  0.00    +0.000 A 
ATOM      5  C   UNL     1       6.874   4.800  13.499  0.00  0.00    +0.000 A 
ATOM      6  C   UNL     1       5.840   3.871  13.442  0.00  0.00    +0.000 A 
ATOM      7  C   UNL     1       5.006   3.726  14.583  0.00  0.00    +0.000 A 
ATOM      8  C   UNL     1       5.126   4.469  15.774  0.00  0.00    +0.000 A 
ATOM      9  C   UNL     1       4.240   4.262  16.954  0.00  0.00    +0.000 A 
ATOM     10  C   UNL     1       3.275   3.317  16.930  0.00  0.00    +0.000 A 
ATOM     11  C   UNL     1       2.386   3.119  18.095  0.00  0.00    +0.000 A 
ATOM     12  O   UNL     1       1.513   2.252  18.081  0.00  0.00    +0.000 OA
ATOM     13  C   UNL     1       2.554   3.979  19.266  0.00  0.00    +0.000 A 
ATOM     14  C   UNL     1       3.543   4.893  19.184  0.00  0.00    +0.000 A 
ATOM     15  N   UNL     1       4.421   5.065  18.099  0.00  0.00    +0.000 N 
ENDROOT
BRANCH   1  17
ATOM     16  C   UNL     1       8.014   5.877  19.099  0.00  0.00    +0.000 C 
ATOM     17  C   UNL     1       6.570   5.453  19.322  0.00  0.00    +0.000 C 
ENDBRANCH   1  17
BRANCH   5  18
ATOM     18  O   UNL     1       7.962   4.947  12.686  0.00  0.00    +0.000 OA
ATOM     19  C   UNL     1       8.859   6.029  12.867  0.00  0.00    +0.000 C 
ENDBRANCH   5  18
BRANCH   6  20
ATOM     20  O   UNL     1       5.441   2.952  12.520  0.00  0.00    +0.000 OA
ATOM     21  C   UNL     1       4.466   3.187  11.539  0.00  0.00    +0.000 C 
ENDBRANCH   6  20
BRANCH  13  22
ATOM     22  C   UNL     1       1.755   3.884  20.496  0.00  0.00    +0.000 C 
ATOM     23  O   UNL     1       2.223   3.999  21.620  0.00  0.00    +0.000 OA
BRANCH  22  24
ATOM     24  O   UNL     1       0.440   3.646  20.289  0.00  0.00    +0.000 OA
ATOM     25  H   UNL     1      -0.163   4.163  20.878  0.00  0.00    +0.000 HD
ENDBRANCH  22  24
ENDBRANCH  13  22
TORSDOF 5
ENDMDL
MODEL 4
REMARK VINA RESULT:      -7.2      3.968      6.542
REMARK  Name = 
REMARK  8 active torsions:
REMARK  status: ('A' for Active; 'I' for Inactive)
REMARK    1  A    between atoms: C_1  and  C_2
REMARK    2  A    between atoms: C_2  and  C_3
REMARK    3  A    between atoms: C_7  and  O_8
REMARK    4  A    between atoms: O_8  and  C_9
REMARK    5  A    between atoms: C_10  and  O_11
REMARK    6  A    between atoms: O_11  and  C_12
REMARK    7  A    between atoms: C_19  and  C_20
REMARK    8  A    between atoms: C_20  and  O_22
REMARK                            x       y       z     vdW  Elec       q    Type
REMARK                         _______ _______ _______ _____ _____    ______ ____
ROOT
ATOM      1  C   UNL     1       4.622   5.464  17.641  0.00  0.00    +0.000 C 
ATOM      2  C   UNL     1       4.254   6.955  17.528  0.00  0.00    +0.000 C 
ATOM      3  C   UNL     1       3.097   7.431  18.358  0.00  0.00    +0.000 A 
ATOM      4  C   UNL     1       2.535   8.701  18.077  0.00  0.00    +0.000 A 
ATOM      5  C   UNL     1       1.494   9.278  18.840  0.00  0.00    +0.000 A 
ATOM      6  C   UNL     1       1.034   8.563  19.941  0.00  0.00    +0.000 A 
ATOM      7  C   UNL     1       1.597   7.283  20.191  0.00  0.00    +0.000 A 
ATOM      8  C   UNL     1       2.609   6.678  19.420  0.00  0.00    +0.000 A 
ATOM      9  C   UNL     1       3.149   5.320  19.710  0.00  0.00    +0.000 A 
ATOM     10  C   UNL     1       2.663   4.593  20.739  0.00  0.00    +0.000 A 
ATOM     11  C   UNL     1       3.206   3.251  21.037  0.00  0.00    +0.000 A 
ATOM     12  O   UNL     1       2.758   2.581  21.966  0.00  0.00    +0.000 OA
ATOM     13  C   UNL     1       4.297   2.731  20.212  0.00  0.00    +0.000 A 
ATOM     14  C   UNL     1       4.711   3.540  19.214  0.00  0.00    +0.000 A 
ATOM     15  N   UNL     1       4.177   4.800  18.896  0.00  0.00    +0.000 N 
ENDROOT
BRANCH   1  17
ATOM     16  C   UNL     1       5.288   4.352  15.413  0.00  0.00    +0.000 C 
ATOM     17  C   UNL     1       4.171   4.665  16.396  0.00  0.00    +0.000 C 
ENDBRANCH   1  17
BRANCH   5  18
ATOM     18  O   UNL     1       0.957  10.371  18.221  0.00  0.00    +0.000 OA
ATOM     19  C   UNL     1       0.885  11.618  18.889  0.00  0.00    +0.000 C 
ENDBRANCH   5  18
BRANCH   6  20
ATOM     20  O   UNL     1       0.060   8.774  20.868  0.00  0.00    +0.000 OA
ATOM     21  C   UNL     1       0.229   9.539  22.034  0.00  0.00    +0.000 C 
ENDBRANCH   6  20
BRANCH  13  22
ATOM     22  C   UNL     1       4.921   1.412  20.382  0.00  0.00    +0.000 C 
ATOM     23  O   UNL     1       5.527   1.073  21.390  0.00  0.00    +0.000 OA
BRANCH  22  24
ATOM     24  O   UNL     1       4.781   0.588  19.320  0.00  0.00    +0.000 OA
ATOM     25  H   UNL     1       5.262  -0.271  19.407  0.00  0.00    +0.000 HD
ENDBRANCH  22  24
ENDBRANCH  13  22
TORSDOF 5
ENDMDL
MODEL 5
REMARK VINA RESULT:      -7.0      3.884      5.620
REMARK  Name = 
REMARK  8 active torsions:
REMARK  status: ('A' for Active; 'I' for Inactive)
REMARK    1  A    between atoms: C_1  and  C_2
REMARK    2  A    between atoms: C_2  and  C_3
REMARK    3  A    between atoms: C_7  and  O_8
REMARK    4  A    between atoms: O_8  and  C_9
REMARK    5  A    between atoms: C_10  and  O_11
REMARK    6  A    between atoms: O_11  and  C_12
REMARK    7  A    between atoms: C_19  and  C_20
REMARK    8  A    between atoms: C_20  and  O_22
REMARK                            x       y       z     vdW  Elec       q    Type
REMARK                         _______ _______ _______ _____ _____    ______ ____
ROOT
ATOM      1  C   UNL     1       4.495   6.482  17.089  0.00  0.00    +0.000 C 
ATOM      2  C   UNL     1       4.736   4.967  17.230  0.00  0.00    +0.000 C 
ATOM      3  C   UNL     1       4.272   4.323  18.505  0.00  0.00    +0.000 A 
ATOM      4  C   UNL     1       4.724   3.016  18.810  0.00  0.00    +0.000 A 
ATOM      5  C   UNL     1       4.293   2.288  19.943  0.00  0.00    +0.000 A 
ATOM      6  C   UNL     1       3.351   2.888  20.771  0.00  0.00    +0.000 A 
ATOM      7  C   UNL     1       2.928   4.208  20.457  0.00  0.00    +0.000 A 
ATOM      8  C   UNL     1       3.374   4.961  19.352  0.00  0.00    +0.000 A 
ATOM      9  C   UNL     1       2.917   6.353  19.081  0.00  0.00    +0.000 A 
ATOM     10  C   UNL     1       2.051   6.967  19.916  0.00  0.00    +0.000 A 
ATOM     11  C   UNL     1       1.587   8.343  19.641  0.00  0.00    +0.000 A 
ATOM     12  O   UNL     1       0.806   8.910  20.405  0.00  0.00    +0.000 OA
ATOM     13  C   UNL     1       2.064   9.022  18.437  0.00  0.00    +0.000 A 
ATOM     14  C   UNL     1       2.922   8.318  17.669  0.00  0.00    +0.000 A 
ATOM     15  N   UNL     1       3.402   7.025  17.940  0.00  0.00    +0.000 N 
ENDROOT
BRANCH   1  17
ATOM     16  C   UNL     1       7.056   6.439  17.385  0.00  0.00    +0.000 C 
ATOM     17  C   UNL     1       5.800   7.290  17.274  0.00  0.00    +0.000 C 
ENDBRANCH   1  17
BRANCH   5  18
ATOM     18  O   UNL     1       5.060   1.177  20.153  0.00  0.00    +0.000 OA
ATOM     19  C   UNL     1       5.549   0.870  21.447  0.00  0.00    +0.000 C 
ENDBRANCH   5  18
BRANCH   6  20
ATOM     20  O   UNL     1       2.737   2.523  21.929  0.00  0.00    +0.000 OA
ATOM     21  C   UNL     1       1.346   2.495  22.114  0.00  0.00    +0.000 C 
ENDBRANCH   6  20
BRANCH  13  22
ATOM     22  C   UNL     1       1.699  10.392  18.048  0.00  0.00    +0.000 C 
ATOM     23  O   UNL     1       2.510  11.300  17.923  0.00  0.00    +0.000 OA
BRANCH  22  24
ATOM     24  O   UNL     1       0.376  10.580  17.844  0.00  0.00    +0.000 OA
ATOM     25  H   UNL     1      -0.090  11.025  18.593  0.00  0.00    +0.000 HD
ENDBRANCH  22  24
ENDBRANCH  13  22
TORSDOF 5
ENDMDL
MODEL 6
REMARK VINA RESULT:      -6.6      3.875      5.004
REMARK  Name = 
REMARK  8 active torsions:
REMARK  status: ('A' for Active; 'I' for Inactive)
REMARK    1  A    between atoms: C_1  and  C_2
REMARK    2  A    between atoms: C_2  and  C_3
REMARK    3  A    between atoms: C_7  and  O_8
REMARK    4  A    between atoms: O_8  and  C_9
REMARK    5  A    between atoms: C_10  and  O_11
REMARK    6  A    between atoms: O_11  and  C_12
REMARK    7  A    between atoms: C_19  and  C_20
REMARK    8  A    between atoms: C_20  and  O_22
REMARK                            x       y       z     vdW  Elec       q    Type
REMARK                         _______ _______ _______ _____ _____    ______ ____
ROOT
ATOM      1  C   UNL     1       3.270   4.008  19.170  0.00  0.00    +0.000 C 
ATOM      2  C   UNL     1       2.090   4.580  19.977  0.00  0.00    +0.000 C 
ATOM      3  C   UNL     1       1.905   6.071  19.942  0.00  0.00    +0.000 A 
ATOM      4  C   UNL     1       1.033   6.671  20.884  0.00  0.00    +0.000 A 
ATOM      5  C   UNL     1       0.729   8.051  20.895  0.00  0.00    +0.000 A 
ATOM      6  C   UNL     1       1.296   8.840  19.899  0.00  0.00    +0.000 A 
ATOM      7  C   UNL     1       2.183   8.221  18.978  0.00  0.00    +0.000 A 
ATOM      8  C   UNL     1       2.524   6.854  18.976  0.00  0.00    +0.000 A 
ATOM      9  C   UNL     1       3.481   6.258  18.001  0.00  0.00    +0.000 A 
ATOM     10  C   UNL     1       4.085   7.030  17.071  0.00  0.00    +0.000 A 
ATOM     11  C   UNL     1       5.024   6.438  16.096  0.00  0.00    +0.000 A 
ATOM     12  O   UNL     1       5.585   7.139  15.254  0.00  0.00    +0.000 OA
ATOM     13  C   UNL     1       5.272   4.997  16.138  0.00  0.00    +0.000 A 
ATOM     14  C   UNL     1       4.614   4.319  17.102  0.00  0.00    +0.000 A 
ATOM     15  N   UNL     1       3.750   4.875  18.060  0.00  0.00    +0.000 N 
ENDROOT
BRANCH   1  17
ATOM     16  C   UNL     1       4.587   2.072  20.247  0.00  0.00    +0.000 C 
ATOM     17  C   UNL     1       4.437   3.577  20.087  0.00  0.00    +0.000 C 
ENDBRANCH   1  17
BRANCH   5  18
ATOM     18  O   UNL     1       0.084   8.420  22.042  0.00  0.00    +0.000 OA
ATOM     19  C   UNL     1       0.626   9.420  22.886  0.00  0.00    +0.000 C 
ENDBRANCH   5  18
BRANCH   6  20
ATOM     20  O   UNL     1       1.259  10.169  19.608  0.00  0.00    +0.000 OA
ATOM     21  C   UNL     1       0.087  10.882  19.311  0.00  0.00    +0.000 C 
ENDBRANCH   6  20
BRANCH  13  22
ATOM     22  C   UNL     1       6.189   4.278  15.243  0.00  0.00    +0.000 C 
ATOM     23  O   UNL     1       5.832   3.407  14.461  0.00  0.00    +0.000 OA
BRANCH  22  24
ATOM     24  O   UNL     1       7.484   4.651  15.356  0.00  0.00    +0.000 OA
ATOM     25  H   UNL     1       7.654   5.315  16.068  0.00  0.00    +0.000 HD
ENDBRANCH  22  24
ENDBRANCH  13  22
TORSDOF 5
ENDMDL
MODEL 7
REMARK VINA RESULT:      -6.4     12.156     15.131
REMARK  Name = 
REMARK  8 active torsions:
REMARK  status: ('A' for Active; 'I' for Inactive)
REMARK    1  A    between atoms: C_1  and  C_2
REMARK    2  A    between atoms: C_2  and  C_3
REMARK    3  A    between atoms: C_7  and  O_8
REMARK    4  A    between atoms: O_8  and  C_9
REMARK    5  A    between atoms: C_10  and  O_11
REMARK    6  A    between atoms: O_11  and  C_12
REMARK    7  A    between atoms: C_19  and  C_20
REMARK    8  A    between atoms: C_20  and  O_22
REMARK                            x       y       z     vdW  Elec       q    Type
REMARK                         _______ _______ _______ _____ _____    ______ ____
ROOT
ATOM      1  C   UNL     1      -7.446  12.737  18.940  0.00  0.00    +0.000 C 
ATOM      2  C   UNL     1      -6.792  11.993  17.762  0.00  0.00    +0.000 C 
ATOM      3  C   UNL     1      -5.299  11.832  17.808  0.00  0.00    +0.000 A 
ATOM      4  C   UNL     1      -4.622  11.425  16.631  0.00  0.00    +0.000 A 
ATOM      5  C   UNL     1      -3.232  11.172  16.581  0.00  0.00    +0.000 A 
ATOM      6  C   UNL     1      -2.514  11.300  17.765  0.00  0.00    +0.000 A 
ATOM      7  C   UNL     1      -3.209  11.730  18.927  0.00  0.00    +0.000 A 
ATOM      8  C   UNL     1      -4.586  12.020  18.986  0.00  0.00    +0.000 A 
ATOM      9  C   UNL     1      -5.264  12.492  20.226  0.00  0.00    +0.000 A 
ATOM     10  C   UNL     1      -4.561  12.681  21.364  0.00  0.00    +0.000 A 
ATOM     11  C   UNL     1      -5.234  13.137  22.599  0.00  0.00    +0.000 A 
ATOM     12  O   UNL     1      -4.596  13.320  23.634  0.00  0.00    +0.000 OA
ATOM     13  C   UNL     1      -6.680  13.358  22.575  0.00  0.00    +0.000 A 
ATOM     14  C   UNL     1      -7.286  13.136  21.389  0.00  0.00    +0.000 A 
ATOM     15  N   UNL     1      -6.652  12.741  20.199  0.00  0.00    +0.000 N 
ENDROOT
BRANCH   1  17
ATOM     16  C   UNL     1      -6.721  15.122  18.284  0.00  0.00    +0.000 C 
ATOM     17  C   UNL     1      -7.877  14.169  18.547  0.00  0.00    +0.000 C 
ENDBRANCH   1  17
BRANCH   5  18
ATOM     18  O   UNL     1      -2.785  11.051  15.295  0.00  0.00    +0.000 OA
ATOM     19  C   UNL     1      -3.107   9.910  14.521  0.00  0.00    +0.000 C 
ENDBRANCH   5  18
BRANCH   6  20
ATOM     20  O   UNL     1      -1.200  11.169  18.094  0.00  0.00    +0.000 OA
ATOM     21  C   UNL     1      -0.492  12.073  18.902  0.00  0.00    +0.000 C 
ENDBRANCH   6  20
BRANCH  13  22
ATOM     22  C   UNL     1      -7.475  13.825  23.719  0.00  0.00    +0.000 C 
ATOM     23  O   UNL     1      -7.916  13.083  24.587  0.00  0.00    +0.000 OA
BRANCH  22  24
ATOM     24  O   UNL     1      -7.694  15.158  23.739  0.00  0.00    +0.000 OA
ATOM     25  H   UNL     1      -8.301  15.459  24.459  0.00  0.00    +0.000 HD
ENDBRANCH  22  24
ENDBRANCH  13  22
TORSDOF 5
ENDMDL
MODEL 8
REMARK VINA RESULT:      -6.4     10.658     13.037
REMARK  Name = 
REMARK  8 active torsions:
REMARK  status: ('A' for Active; 'I' for Inactive)
REMARK    1  A    between atoms: C_1  and  C_2
REMARK    2  A    between atoms: C_2  and  C_3
REMARK    3  A    between atoms: C_7  and  O_8
REMARK    4  A    between atoms: O_8  and  C_9
REMARK    5  A    between atoms: C_10  and  O_11
REMARK    6  A    between atoms: O_11  and  C_12
REMARK    7  A    between atoms: C_19  and  C_20
REMARK    8  A    between atoms: C_20  and  O_22
REMARK                            x       y       z     vdW  Elec       q    Type
REMARK                         _______ _______ _______ _____ _____    ______ ____
ROOT
ATOM      1  C   UNL     1      -0.375  11.529  21.166  0.00  0.00    +0.000 C 
ATOM      2  C   UNL     1      -0.361  11.063  19.699  0.00  0.00    +0.000 C 
ATOM      3  C   UNL     1      -1.658  11.158  18.946  0.00  0.00    +0.000 A 
ATOM      4  C   UNL     1      -1.777  10.482  17.708  0.00  0.00    +0.000 A 
ATOM      5  C   UNL     1      -2.922  10.563  16.883  0.00  0.00    +0.000 A 
ATOM      6  C   UNL     1      -3.962  11.382  17.309  0.00  0.00    +0.000 A 
ATOM      7  C   UNL     1      -3.830  12.034  18.564  0.00  0.00    +0.000 A 
ATOM      8  C   UNL     1      -2.711  11.936  19.414  0.00  0.00    +0.000 A 
ATOM      9  C   UNL     1      -2.632  12.621  20.735  0.00  0.00    +0.000 A 
ATOM     10  C   UNL     1      -3.664  13.367  21.185  0.00  0.00    +0.000 A 
ATOM     11  C   UNL     1      -3.582  14.059  22.489  0.00  0.00    +0.000 A 
ATOM     12  O   UNL     1      -4.524  14.730  22.907  0.00  0.00    +0.000 OA
ATOM     13  C   UNL     1      -2.354  13.941  23.275  0.00  0.00    +0.000 A 
ATOM     14  C   UNL     1      -1.383  13.177  22.732  0.00  0.00    +0.000 A 
ATOM     15  N   UNL     1      -1.463  12.482  21.513  0.00  0.00    +0.000 N 
ENDROOT
BRANCH   1  17
ATOM     16  C   UNL     1      -0.123   8.984  21.486  0.00  0.00    +0.000 C 
ATOM     17  C   UNL     1      -0.345  10.335  22.148  0.00  0.00    +0.000 C 
ENDBRANCH   1  17
BRANCH   5  18
ATOM     18  O   UNL     1      -2.898   9.627  15.887  0.00  0.00    +0.000 OA
ATOM     19  C   UNL     1      -3.080  10.006  14.534  0.00  0.00    +0.000 C 
ENDBRANCH   5  18
BRANCH   6  20
ATOM     20  O   UNL     1      -5.194  11.684  16.814  0.00  0.00    +0.000 OA
ATOM     21  C   UNL     1      -6.006  12.724  17.293  0.00  0.00    +0.000 C 
ENDBRANCH   6  20
BRANCH  13  22
ATOM     22  C   UNL     1      -2.140  14.559  24.591  0.00  0.00    +0.000 C 
ATOM     23  O   UNL     1      -1.059  14.991  24.970  0.00  0.00    +0.000 OA
BRANCH  22  24
ATOM     24  O   UNL     1      -3.243  14.607  25.370  0.00  0.00    +0.000 OA
ATOM     25  H   UNL     1      -3.063  14.840  26.314  0.00  0.00    +0.000 HD
ENDBRANCH  22  24
ENDBRANCH  13  22
TORSDOF 5
ENDMDL
MODEL 9
REMARK VINA RESULT:      -6.2     10.291     12.853
REMARK  Name = 
REMARK  8 active torsions:
REMARK  status: ('A' for Active; 'I' for Inactive)
REMARK    1  A    between atoms: C_1  and  C_2
REMARK    2  A    between atoms: C_2  and  C_3
REMARK    3  A    between atoms: C_7  and  O_8
REMARK    4  A    between atoms: O_8  and  C_9
REMARK    5  A    between atoms: C_10  and  O_11
REMARK    6  A    between atoms: O_11  and  C_12
REMARK    7  A    between atoms: C_19  and  C_20
REMARK    8  A    between atoms: C_20  and  O_22
REMARK                            x       y       z     vdW  Elec       q    Type
REMARK                         _______ _______ _______ _____ _____    ______ ____
ROOT
ATOM      1  C   UNL     1      -3.991  10.586  17.644  0.00  0.00    +0.000 C 
ATOM      2  C   UNL     1      -2.654   9.822  17.641  0.00  0.00    +0.000 C 
ATOM      3  C   UNL     1      -1.501  10.473  18.351  0.00  0.00    +0.000 A 
ATOM      4  C   UNL     1      -0.196   9.968  18.133  0.00  0.00    +0.000 A 
ATOM      5  C   UNL     1       0.950  10.454  18.803  0.00  0.00    +0.000 A 
ATOM      6  C   UNL     1       0.762  11.458  19.747  0.00  0.00    +0.000 A 
ATOM      7  C   UNL     1      -0.553  11.964  19.934  0.00  0.00    +0.000 A 
ATOM      8  C   UNL     1      -1.699  11.514  19.249  0.00  0.00    +0.000 A 
ATOM      9  C   UNL     1      -3.054  12.096  19.464  0.00  0.00    +0.000 A 
ATOM     10  C   UNL     1      -3.234  13.115  20.333  0.00  0.00    +0.000 A 
ATOM     11  C   UNL     1      -4.579  13.685  20.557  0.00  0.00    +0.000 A 
ATOM     12  O   UNL     1      -4.746  14.619  21.340  0.00  0.00    +0.000 OA
ATOM     13  C   UNL     1      -5.718  13.112  19.839  0.00  0.00    +0.000 A 
ATOM     14  C   UNL     1      -5.428  12.095  19.000  0.00  0.00    +0.000 A 
ATOM     15  N   UNL     1      -4.149  11.571  18.748  0.00  0.00    +0.000 N 
ENDROOT
BRANCH   1  17
ATOM     16  C   UNL     1      -3.407  10.728  15.137  0.00  0.00    +0.000 C 
ATOM     17  C   UNL     1      -4.285  11.234  16.271  0.00  0.00    +0.000 C 
ENDBRANCH   1  17
BRANCH   5  18
ATOM     18  O   UNL     1       2.104   9.993  18.236  0.00  0.00    +0.000 OA
ATOM     19  C   UNL     1       2.192   8.664  17.753  0.00  0.00    +0.000 C 
ENDBRANCH   5  18
BRANCH   6  20
ATOM     20  O   UNL     1       1.597  12.173  20.549  0.00  0.00    +0.000 OA
ATOM     21  C   UNL     1       2.013  13.487  20.287  0.00  0.00    +0.000 C 
ENDBRANCH   6  20
BRANCH  13  22
ATOM     22  C   UNL     1      -7.104  13.587  19.952  0.00  0.00    +0.000 C 
ATOM     23  O   UNL     1      -7.788  13.918  18.993  0.00  0.00    +0.000 OA
BRANCH  22  24
ATOM     24  O   UNL     1      -7.573  13.641  21.219  0.00  0.00    +0.000 OA
ATOM     25  H   UNL     1      -6.869  13.620  21.913  0.00  0.00    +0.000 HD
ENDBRANCH  22  24
ENDBRANCH  13  22
TORSDOF 5
ENDMDL
