MODEL 1
REMARK VINA RESULT:      -6.9      0.000      0.000
REMARK  Name = 
REMARK  8 active torsions:
REMARK  status: ('A' for Active; 'I' for Inactive)
REMARK    1  A    between atoms: C_1  and  C_2
REMARK    2  A    between atoms: C_2  and  C_3
REMARK    3  A    between atoms: C_7  and  N_8
REMARK    4  A    between atoms: C_9  and  O_11
REMARK    5  A    between atoms: O_11  and  C_12
REMARK    6  A    between atoms: C_12  and  C_13
REMARK    7  A    between atoms: C_12  and  C_14
REMARK    8  A    between atoms: C_12  and  C_15
REMARK                            x       y       z     vdW  Elec       q    Type
REMARK                         _______ _______ _______ _____ _____    ______ ____
ROOT
ATOM      1  C   UNL     1       2.058   4.772  20.568  0.00  0.00    +0.000 C 
ATOM      2  C   UNL     1       1.918   3.244  20.431  0.00  0.00    +0.000 C 
ATOM      3  C   UNL     1       1.484   2.702  21.811  0.00  0.00    +0.000 C 
ATOM      4  C   UNL     1       0.828   2.865  19.395  0.00  0.00    +0.000 C 
ATOM      5  N   UNL     1       1.215   3.027  17.990  0.00  0.00    +0.000 NA
ATOM      6  C   UNL     1       2.456   2.301  17.694  0.00  0.00    +0.000 C 
ATOM      7  C   UNL     1       3.639   2.775  18.554  0.00  0.00    +0.000 C 
ATOM      8  C   UNL     1       3.276   2.605  20.041  0.00  0.00    +0.000 C 
ATOM      9  H   UNL     1       1.336   4.014  17.774  0.00  0.00    +0.000 HD
ENDROOT
BRANCH   7  10
ATOM     10  N   UNL     1       4.062   4.137  18.212  0.00  0.00    +0.000 N 
ATOM     11  C   UNL     1       5.230   4.655  18.676  0.00  0.00    +0.000 C 
ATOM     12  O   UNL     1       6.023   4.011  19.352  0.00  0.00    +0.000 OA
ATOM     13  H   UNL     1       3.463   4.757  17.688  0.00  0.00    +0.000 HD
BRANCH  11  14
ATOM     14  O   UNL     1       5.397   5.948  18.283  0.00  0.00    +0.000 OA
BRANCH  14  15
ATOM     15  C   UNL     1       6.129   6.219  17.050  0.00  0.00    +0.000 C 
ATOM     16  C   UNL     1       5.166   6.640  15.929  0.00  0.00    +0.000 C 
ATOM     17  C   UNL     1       7.080   7.400  17.322  0.00  0.00    +0.000 C 
ATOM     18  C   UNL     1       7.000   5.021  16.639  0.00  0.00    +0.000 C 
ENDBRANCH  14  15
ENDBRANCH  11  14
ENDBRANCH   7  10
TORSDOF 3
ENDMDL
MODEL 2
REMARK VINA RESULT:      -6.9      0.058      1.073
REMARK  Name = 
REMARK  8 active torsions:
REMARK  status: ('A' for Active; 'I' for Inactive)
REMARK    1  A    between atoms: C_1  and  C_2
REMARK    2  A    between atoms: C_2  and  C_3
REMARK    3  A    between atoms: C_7  and  N_8
REMARK    4  A    between atoms: C_9  and  O_11
REMARK    5  A    between atoms: O_11  and  C_12
REMARK    6  A    between atoms: C_12  and  C_13
REMARK    7  A    between atoms: C_12  and  C_14
REMARK    8  A    between atoms: C_12  and  C_15
REMARK                            x       y       z     vdW  Elec       q    Type
REMARK                         _______ _______ _______ _____ _____    ______ ____
ROOT
ATOM      1  C   UNL     1       2.012   4.791  20.561  0.00  0.00    +0.000 C 
ATOM      2  C   UNL     1       1.872   3.262  20.430  0.00  0.00    +0.000 C 
ATOM      3  C   UNL     1       1.423   2.728  21.808  0.00  0.00    +0.000 C 
ATOM      4  C   UNL     1       0.791   2.880  19.385  0.00  0.00    +0.000 C 
ATOM      5  N   UNL     1       1.192   3.035  17.983  0.00  0.00    +0.000 NA
ATOM      6  C   UNL     1       2.435   2.307  17.702  0.00  0.00    +0.000 C 
ATOM      7  C   UNL     1       3.611   2.784  18.571  0.00  0.00    +0.000 C 
ATOM      8  C   UNL     1       3.233   2.620  20.056  0.00  0.00    +0.000 C 
ATOM      9  H   UNL     1       1.316   4.021  17.764  0.00  0.00    +0.000 HD
ENDROOT
BRANCH   7  10
ATOM     10  N   UNL     1       4.038   4.144  18.228  0.00  0.00    +0.000 N 
ATOM     11  C   UNL     1       5.215   4.654  18.679  0.00  0.00    +0.000 C 
ATOM     12  O   UNL     1       6.010   4.003  19.346  0.00  0.00    +0.000 OA
ATOM     13  H   UNL     1       3.438   4.768  17.711  0.00  0.00    +0.000 HD
BRANCH  11  14
ATOM     14  O   UNL     1       5.385   5.946  18.288  0.00  0.00    +0.000 OA
BRANCH  14  15
ATOM     15  C   UNL     1       6.201   6.221  17.110  0.00  0.00    +0.000 C 
ATOM     16  C   UNL     1       6.939   4.953  16.652  0.00  0.00    +0.000 C 
ATOM     17  C   UNL     1       5.252   6.650  15.974  0.00  0.00    +0.000 C 
ATOM     18  C   UNL     1       7.168   7.390  17.357  0.00  0.00    +0.000 C 
ENDBRANCH  14  15
ENDBRANCH  11  14
ENDBRANCH   7  10
TORSDOF 3
ENDMDL
MODEL 3
REMARK VINA RESULT:      -6.9      1.271      1.749
REMARK  Name = 
REMARK  8 active torsions:
REMARK  status: ('A' for Active; 'I' for Inactive)
REMARK    1  A    between atoms: C_1  and  C_2
REMARK    2  A    between atoms: C_2  and  C_3
REMARK    3  A    between atoms: C_7  and  N_8
REMARK    4  A    between atoms: C_9  and  O_11
REMARK    5  A    between atoms: O_11  and  C_12
REMARK    6  A    between atoms: C_12  and  C_13
REMARK    7  A    between atoms: C_12  and  C_14
REMARK    8  A    between atoms: C_12  and  C_15
REMARK                            x       y       z     vdW  Elec       q    Type
REMARK                         _______ _______ _______ _____ _____    ______ ____
ROOT
ATOM      1  C   UNL     1       1.922   4.763  18.224  0.00  0.00    +0.000 C 
ATOM      2  C   UNL     1       1.842   3.669  19.305  0.00  0.00    +0.000 C 
ATOM      3  C   UNL     1       0.790   4.129  20.339  0.00  0.00    +0.000 C 
ATOM      4  C   UNL     1       1.377   2.315  18.708  0.00  0.00    +0.000 C 
ATOM      5  N   UNL     1       2.394   1.585  17.944  0.00  0.00    +0.000 NA
ATOM      6  C   UNL     1       3.614   1.387  18.736  0.00  0.00    +0.000 C 
ATOM      7  C   UNL     1       4.245   2.712  19.193  0.00  0.00    +0.000 C 
ATOM      8  C   UNL     1       3.210   3.502  20.016  0.00  0.00    +0.000 C 
ATOM      9  H   UNL     1       2.618   2.093  17.091  0.00  0.00    +0.000 HD
ENDROOT
BRANCH   7  10
ATOM     10  N   UNL     1       4.801   3.476  18.071  0.00  0.00    +0.000 N 
ATOM     11  C   UNL     1       5.825   4.353  18.248  0.00  0.00    +0.000 C 
ATOM     12  O   UNL     1       6.380   4.520  19.327  0.00  0.00    +0.000 OA
ATOM     13  H   UNL     1       4.391   3.432  17.151  0.00  0.00    +0.000 HD
BRANCH  11  14
ATOM     14  O   UNL     1       6.145   4.991  17.089  0.00  0.00    +0.000 OA
BRANCH  14  15
ATOM     15  C   UNL     1       5.762   6.390  16.928  0.00  0.00    +0.000 C 
ATOM     16  C   UNL     1       6.960   7.315  17.196  0.00  0.00    +0.000 C 
ATOM     17  C   UNL     1       5.332   6.590  15.462  0.00  0.00    +0.000 C 
ATOM     18  C   UNL     1       4.553   6.746  17.808  0.00  0.00    +0.000 C 
ENDBRANCH  14  15
ENDBRANCH  11  14
ENDBRANCH   7  10
TORSDOF 3
ENDMDL
MODEL 4
REMARK VINA RESULT:      -6.8      0.059      1.076
REMARK  Name = 
REMARK  8 active torsions:
REMARK  status: ('A' for Active; 'I' for Inactive)
REMARK    1  A    between atoms: C_1  and  C_2
REMARK    2  A    between atoms: C_2  and  C_3
REMARK    3  A    between atoms: C_7  and  N_8
REMARK    4  A    between atoms: C_9  and  O_11
REMARK    5  A    between atoms: O_11  and  C_12
REMARK    6  A    between atoms: C_12  and  C_13
REMARK    7  A    between atoms: C_12  and  C_14
REMARK    8  A    between atoms: C_12  and  C_15
REMARK                            x       y       z     vdW  Elec       q    Type
REMARK                         _______ _______ _______ _____ _____    ______ ____
ROOT
ATOM      1  C   UNL     1       2.025   4.796  20.564  0.00  0.00    +0.000 C 
ATOM      2  C   UNL     1       1.898   3.266  20.434  0.00  0.00    +0.000 C 
ATOM      3  C   UNL     1       1.466   2.728  21.816  0.00  0.00    +0.000 C 
ATOM      4  C   UNL     1       0.813   2.873  19.398  0.00  0.00    +0.000 C 
ATOM      5  N   UNL     1       1.201   3.032  17.993  0.00  0.00    +0.000 NA
ATOM      6  C   UNL     1       2.448   2.315  17.702  0.00  0.00    +0.000 C 
ATOM      7  C   UNL     1       3.626   2.803  18.562  0.00  0.00    +0.000 C 
ATOM      8  C   UNL     1       3.262   2.636  20.049  0.00  0.00    +0.000 C 
ATOM      9  H   UNL     1       1.314   4.019  17.773  0.00  0.00    +0.000 HD
ENDROOT
BRANCH   7  10
ATOM     10  N   UNL     1       4.038   4.167  18.214  0.00  0.00    +0.000 N 
ATOM     11  C   UNL     1       5.208   4.692  18.666  0.00  0.00    +0.000 C 
ATOM     12  O   UNL     1       6.010   4.053  19.337  0.00  0.00    +0.000 OA
ATOM     13  H   UNL     1       3.432   4.782  17.694  0.00  0.00    +0.000 HD
BRANCH  11  14
ATOM     14  O   UNL     1       5.364   5.985  18.270  0.00  0.00    +0.000 OA
BRANCH  14  15
ATOM     15  C   UNL     1       6.150   6.263  17.073  0.00  0.00    +0.000 C 
ATOM     16  C   UNL     1       7.137   7.413  17.327  0.00  0.00    +0.000 C 
ATOM     17  C   UNL     1       6.971   5.000  16.750  0.00  0.00    +0.000 C 
ATOM     18  C   UNL     1       5.247   6.538  15.860  0.00  0.00    +0.000 C 
ENDBRANCH  14  15
ENDBRANCH  11  14
ENDBRANCH   7  10
TORSDOF 3
ENDMDL
MODEL 5
REMARK VINA RESULT:      -6.8      1.858      5.659
REMARK  Name = 
REMARK  8 active torsions:
REMARK  status: ('A' for Active; 'I' for Inactive)
REMARK    1  A    between atoms: C_1  and  C_2
REMARK    2  A    between atoms: C_2  and  C_3
REMARK    3  A    between atoms: C_7  and  N_8
REMARK    4  A    between atoms: C_9  and  O_11
REMARK    5  A    between atoms: O_11  and  C_12
REMARK    6  A    between atoms: C_12  and  C_13
REMARK    7  A    between atoms: C_12  and  C_14
REMARK    8  A    between atoms: C_12  and  C_15
REMARK                            x       y       z     vdW  Elec       q    Type
REMARK                         _______ _______ _______ _____ _____    ______ ____
ROOT
ATOM      1  C   UNL     1       6.867   5.528  19.011  0.00  0.00    +0.000 C 
ATOM      2  C   UNL     1       6.742   6.081  17.579  0.00  0.00    +0.000 C 
ATOM      3  C   UNL     1       7.515   7.419  17.540  0.00  0.00    +0.000 C 
ATOM      4  C   UNL     1       7.381   5.120  16.542  0.00  0.00    +0.000 C 
ATOM      5  N   UNL     1       6.593   3.925  16.226  0.00  0.00    +0.000 NA
ATOM      6  C   UNL     1       5.234   4.282  15.802  0.00  0.00    +0.000 C 
ATOM      7  C   UNL     1       4.465   5.069  16.876  0.00  0.00    +0.000 C 
ATOM      8  C   UNL     1       5.256   6.344  17.224  0.00  0.00    +0.000 C 
ATOM      9  H   UNL     1       6.548   3.314  17.038  0.00  0.00    +0.000 HD
ENDROOT
BRANCH   7  10
ATOM     10  N   UNL     1       4.149   4.245  18.047  0.00  0.00    +0.000 N 
ATOM     11  C   UNL     1       2.986   3.546  18.130  0.00  0.00    +0.000 C 
ATOM     12  O   UNL     1       2.162   3.514  17.224  0.00  0.00    +0.000 OA
ATOM     13  H   UNL     1       4.749   4.232  18.857  0.00  0.00    +0.000 HD
BRANCH  11  14
ATOM     14  O   UNL     1       2.875   2.896  19.321  0.00  0.00    +0.000 OA
BRANCH  14  15
ATOM     15  C   UNL     1       2.010   3.461  20.352  0.00  0.00    +0.000 C 
ATOM     16  C   UNL     1       2.162   4.989  20.410  0.00  0.00    +0.000 C 
ATOM     17  C   UNL     1       0.553   3.147  19.962  0.00  0.00    +0.000 C 
ATOM     18  C   UNL     1       2.265   2.806  21.719  0.00  0.00    +0.000 C 
ENDBRANCH  14  15
ENDBRANCH  11  14
ENDBRANCH   7  10
TORSDOF 3
ENDMDL
MODEL 6
REMARK VINA RESULT:      -6.8      1.277      1.566
REMARK  Name = 
REMARK  8 active torsions:
REMARK  status: ('A' for Active; 'I' for Inactive)
REMARK    1  A    between atoms: C_1  and  C_2
REMARK    2  A    between atoms: C_2  and  C_3
REMARK    3  A    between atoms: C_7  and  N_8
REMARK    4  A    between atoms: C_9  and  O_11
REMARK    5  A    between atoms: O_11  and  C_12
REMARK    6  A    between atoms: C_12  and  C_13
REMARK    7  A    between atoms: C_12  and  C_14
REMARK    8  A    between atoms: C_12  and  C_15
REMARK                            x       y       z     vdW  Elec       q    Type
REMARK                         _______ _______ _______ _____ _____    ______ ____
ROOT
ATOM      1  C   UNL     1       1.927   4.748  18.188  0.00  0.00    +0.000 C 
ATOM      2  C   UNL     1       1.843   3.673  19.289  0.00  0.00    +0.000 C 
ATOM      3  C   UNL     1       0.789   4.153  20.312  0.00  0.00    +0.000 C 
ATOM      4  C   UNL     1       1.378   2.309  18.715  0.00  0.00    +0.000 C 
ATOM      5  N   UNL     1       2.396   1.565  17.966  0.00  0.00    +0.000 NA
ATOM      6  C   UNL     1       3.613   1.379  18.765  0.00  0.00    +0.000 C 
ATOM      7  C   UNL     1       4.246   2.711  19.199  0.00  0.00    +0.000 C 
ATOM      8  C   UNL     1       3.210   3.518  20.005  0.00  0.00    +0.000 C 
ATOM      9  H   UNL     1       2.623   2.056  17.105  0.00  0.00    +0.000 HD
ENDROOT
BRANCH   7  10
ATOM     10  N   UNL     1       4.805   3.455  18.065  0.00  0.00    +0.000 N 
ATOM     11  C   UNL     1       5.827   4.336  18.228  0.00  0.00    +0.000 C 
ATOM     12  O   UNL     1       6.377   4.525  19.306  0.00  0.00    +0.000 OA
ATOM     13  H   UNL     1       4.398   3.392  17.144  0.00  0.00    +0.000 HD
BRANCH  11  14
ATOM     14  O   UNL     1       6.150   4.952  17.058  0.00  0.00    +0.000 OA
BRANCH  14  15
ATOM     15  C   UNL     1       5.796   6.357  16.882  0.00  0.00    +0.000 C 
ATOM     16  C   UNL     1       5.270   6.610  15.461  0.00  0.00    +0.000 C 
ATOM     17  C   UNL     1       4.659   6.678  17.870  0.00  0.00    +0.000 C 
ATOM     18  C   UNL     1       6.974   7.280  17.231  0.00  0.00    +0.000 C 
ENDBRANCH  14  15
ENDBRANCH  11  14
ENDBRANCH   7  10
TORSDOF 3
ENDMDL
MODEL 7
REMARK VINA RESULT:      -6.7      1.851      5.673
REMARK  Name = 
REMARK  8 active torsions:
REMARK  status: ('A' for Active; 'I' for Inactive)
REMARK    1  A    between atoms: C_1  and  C_2
REMARK    2  A    between atoms: C_2  and  C_3
REMARK    3  A    between atoms: C_7  and  N_8
REMARK    4  A    between atoms: C_9  and  O_11
REMARK    5  A    between atoms: O_11  and  C_12
REMARK    6  A    between atoms: C_12  and  C_13
REMARK    7  A    between atoms: C_12  and  C_14
REMARK    8  A    between atoms: C_12  and  C_15
REMARK                            x       y       z     vdW  Elec       q    Type
REMARK                         _______ _______ _______ _____ _____    ______ ____
ROOT
ATOM      1  C   UNL     1       6.869   5.531  19.014  0.00  0.00    +0.000 C 
ATOM      2  C   UNL     1       6.728   6.086  17.584  0.00  0.00    +0.000 C 
ATOM      3  C   UNL     1       7.502   7.422  17.538  0.00  0.00    +0.000 C 
ATOM      4  C   UNL     1       7.352   5.125  16.539  0.00  0.00    +0.000 C 
ATOM      5  N   UNL     1       6.557   3.932  16.231  0.00  0.00    +0.000 NA
ATOM      6  C   UNL     1       5.194   4.293  15.823  0.00  0.00    +0.000 C 
ATOM      7  C   UNL     1       4.440   5.080  16.907  0.00  0.00    +0.000 C 
ATOM      8  C   UNL     1       5.238   6.353  17.248  0.00  0.00    +0.000 C 
ATOM      9  H   UNL     1       6.521   3.320  17.042  0.00  0.00    +0.000 HD
ENDROOT
BRANCH   7  10
ATOM     10  N   UNL     1       4.136   4.255  18.081  0.00  0.00    +0.000 N 
ATOM     11  C   UNL     1       2.980   3.545  18.170  0.00  0.00    +0.000 C 
ATOM     12  O   UNL     1       2.153   3.504  17.267  0.00  0.00    +0.000 OA
ATOM     13  H   UNL     1       4.740   4.248  18.889  0.00  0.00    +0.000 HD
BRANCH  11  14
ATOM     14  O   UNL     1       2.880   2.896  19.362  0.00  0.00    +0.000 OA
BRANCH  14  15
ATOM     15  C   UNL     1       1.912   3.375  20.344  0.00  0.00    +0.000 C 
ATOM     16  C   UNL     1       2.172   2.738  21.718  0.00  0.00    +0.000 C 
ATOM     17  C   UNL     1       2.106   4.897  20.486  0.00  0.00    +0.000 C 
ATOM     18  C   UNL     1       0.469   3.145  19.867  0.00  0.00    +0.000 C 
ENDBRANCH  14  15
ENDBRANCH  11  14
ENDBRANCH   7  10
TORSDOF 3
ENDMDL
MODEL 8
REMARK VINA RESULT:      -6.6      1.348      1.606
REMARK  Name = 
REMARK  8 active torsions:
REMARK  status: ('A' for Active; 'I' for Inactive)
REMARK    1  A    between atoms: C_1  and  C_2
REMARK    2  A    between atoms: C_2  and  C_3
REMARK    3  A    between atoms: C_7  and  N_8
REMARK    4  A    between atoms: C_9  and  O_11
REMARK    5  A    between atoms: O_11  and  C_12
REMARK    6  A    between atoms: C_12  and  C_13
REMARK    7  A    between atoms: C_12  and  C_14
REMARK    8  A    between atoms: C_12  and  C_15
REMARK                            x       y       z     vdW  Elec       q    Type
REMARK                         _______ _______ _______ _____ _____    ______ ____
ROOT
ATOM      1  C   UNL     1       1.964   4.573  18.152  0.00  0.00    +0.000 C 
ATOM      2  C   UNL     1       1.889   3.607  19.349  0.00  0.00    +0.000 C 
ATOM      3  C   UNL     1       0.720   4.081  20.241  0.00  0.00    +0.000 C 
ATOM      4  C   UNL     1       1.592   2.156  18.888  0.00  0.00    +0.000 C 
ATOM      5  N   UNL     1       2.726   1.443  18.293  0.00  0.00    +0.000 NA
ATOM      6  C   UNL     1       3.889   1.452  19.188  0.00  0.00    +0.000 C 
ATOM      7  C   UNL     1       4.366   2.874  19.525  0.00  0.00    +0.000 C 
ATOM      8  C   UNL     1       3.203   3.653  20.170  0.00  0.00    +0.000 C 
ATOM      9  H   UNL     1       2.976   1.869  17.403  0.00  0.00    +0.000 HD
ENDROOT
BRANCH   7  10
ATOM     10  N   UNL     1       4.945   3.555  18.362  0.00  0.00    +0.000 N 
ATOM     11  C   UNL     1       5.892   4.520  18.503  0.00  0.00    +0.000 C 
ATOM     12  O   UNL     1       6.358   4.843  19.589  0.00  0.00    +0.000 OA
ATOM     13  H   UNL     1       4.604   3.381  17.429  0.00  0.00    +0.000 HD
BRANCH  11  14
ATOM     14  O   UNL     1       6.247   5.053  17.302  0.00  0.00    +0.000 OA
BRANCH  14  15
ATOM     15  C   UNL     1       5.737   6.372  16.940  0.00  0.00    +0.000 C 
ATOM     16  C   UNL     1       4.540   6.753  17.825  0.00  0.00    +0.000 C 
ATOM     17  C   UNL     1       6.860   7.394  17.200  0.00  0.00    +0.000 C 
ATOM     18  C   UNL     1       5.392   6.449  15.444  0.00  0.00    +0.000 C 
ENDBRANCH  14  15
ENDBRANCH  11  14
ENDBRANCH   7  10
TORSDOF 3
ENDMDL
MODEL 9
REMARK VINA RESULT:      -6.6      2.021      3.398
REMARK  Name = 
REMARK  8 active torsions:
REMARK  status: ('A' for Active; 'I' for Inactive)
REMARK    1  A    between atoms: C_1  and  C_2
REMARK    2  A    between atoms: C_2  and  C_3
REMARK    3  A    between atoms: C_7  and  N_8
REMARK    4  A    between atoms: C_9  and  O_11
REMARK    5  A    between atoms: O_11  and  C_12
REMARK    6  A    between atoms: C_12  and  C_13
REMARK    7  A    between atoms: C_12  and  C_14
REMARK    8  A    between atoms: C_12  and  C_15
REMARK                            x       y       z     vdW  Elec       q    Type
REMARK                         _______ _______ _______ _____ _____    ______ ____
ROOT
ATOM      1  C   UNL     1       2.454   3.339  17.422  0.00  0.00    +0.000 C 
ATOM      2  C   UNL     1       2.668   3.935  18.826  0.00  0.00    +0.000 C 
ATOM      3  C   UNL     1       1.352   3.731  19.611  0.00  0.00    +0.000 C 
ATOM      4  C   UNL     1       3.805   3.203  19.585  0.00  0.00    +0.000 C 
ATOM      5  N   UNL     1       5.165   3.544  19.155  0.00  0.00    +0.000 NA
ATOM      6  C   UNL     1       5.390   4.993  19.200  0.00  0.00    +0.000 C 
ATOM      7  C   UNL     1       4.416   5.772  18.301  0.00  0.00    +0.000 C 
ATOM      8  C   UNL     1       2.972   5.453  18.733  0.00  0.00    +0.000 C 
ATOM      9  H   UNL     1       5.327   3.201  18.211  0.00  0.00    +0.000 HD
ENDROOT
BRANCH   7  10
ATOM     10  N   UNL     1       4.662   5.528  16.876  0.00  0.00    +0.000 N 
ATOM     11  C   UNL     1       5.567   6.262  16.176  0.00  0.00    +0.000 C 
ATOM     12  O   UNL     1       6.266   7.126  16.692  0.00  0.00    +0.000 OA
ATOM     13  H   UNL     1       4.114   4.860  16.355  0.00  0.00    +0.000 HD
BRANCH  11  14
ATOM     14  O   UNL     1       5.595   5.905  14.862  0.00  0.00    +0.000 OA
BRANCH  14  15
ATOM     15  C   UNL     1       6.465   4.809  14.451  0.00  0.00    +0.000 C 
ATOM     16  C   UNL     1       6.951   4.013  15.672  0.00  0.00    +0.000 C 
ATOM     17  C   UNL     1       5.632   3.858  13.570  0.00  0.00    +0.000 C 
ATOM     18  C   UNL     1       7.635   5.313  13.591  0.00  0.00    +0.000 C 
ENDBRANCH  14  15
ENDBRANCH  11  14
ENDBRANCH   7  10
TORSDOF 3
ENDMDL
