MODEL 1
REMARK VINA RESULT:      -8.1      0.000      0.000
REMARK  Name = 
REMARK  8 active torsions:
REMARK  status: ('A' for Active; 'I' for Inactive)
REMARK    1  A    between atoms: C_1  and  O_2
REMARK    2  A    between atoms: O_2  and  C_3
REMARK    3  A    between atoms: C_6  and  N_7
REMARK    4  A    between atoms: C_9  and  C_10
REMARK    5  A    between atoms: C_17  and  C_18
REMARK    6  A    between atoms: C_23  and  O_24
REMARK    7  A    between atoms: O_24  and  C_25
REMARK    8  A    between atoms: C_25  and  C_26
REMARK                            x       y       z     vdW  Elec       q    Type
REMARK                         _______ _______ _______ _____ _____    ______ ____
ROOT
ATOM      1  N   UNL     1       0.956   8.959  19.115  0.00  0.00    +0.000 N 
ATOM      2  N   UNL     1       0.293   9.465  18.052  0.00  0.00    +0.000 NA
ATOM      3  C   UNL     1      -0.629  10.277  18.566  0.00  0.00    +0.000 A 
ATOM      4  C   UNL     1      -1.653  10.822  17.660  0.00  0.00    +0.000 C 
ATOM      5  C   UNL     1      -0.462  10.469  19.960  0.00  0.00    +0.000 A 
ATOM      6  C   UNL     1       0.491   9.524  20.288  0.00  0.00    +0.000 A 
ATOM      7  N   UNL     1       0.853   9.282  21.596  0.00  0.00    +0.000 N 
ATOM      8  C   UNL     1       0.204   9.964  22.660  0.00  0.00    +0.000 C 
ATOM      9  O   UNL     1       0.517   9.591  23.780  0.00  0.00    +0.000 OA
ATOM     10  C   UNL     1      -0.724  11.126  22.394  0.00  0.00    +0.000 C 
ATOM     11  C   UNL     1      -1.201  11.346  20.927  0.00  0.00    +0.000 C 
ATOM     12  H   UNL     1       1.552   8.597  21.847  0.00  0.00    +0.000 HD
ENDROOT
BRANCH   1  16
ATOM     13  C   UNL     1       4.120   6.268  18.361  0.00  0.00    +0.000 A 
ATOM     14  C   UNL     1       3.845   7.316  17.487  0.00  0.00    +0.000 A 
ATOM     15  C   UNL     1       2.781   8.178  17.738  0.00  0.00    +0.000 A 
ATOM     16  C   UNL     1       1.993   8.019  18.890  0.00  0.00    +0.000 A 
ATOM     17  C   UNL     1       2.234   6.941  19.744  0.00  0.00    +0.000 A 
ATOM     18  C   UNL     1       3.297   6.063  19.471  0.00  0.00    +0.000 A 
BRANCH  13  20
ATOM     19  C   UNL     1       5.198   4.169  18.535  0.00  0.00    +0.000 C 
ATOM     20  O   UNL     1       5.183   5.487  18.000  0.00  0.00    +0.000 OA
ENDBRANCH  13  20
ENDBRANCH   1  16
BRANCH  11  21
ATOM     21  C   UNL     1      -1.050  12.816  20.462  0.00  0.00    +0.000 A 
ATOM     22  C   UNL     1       0.098  13.163  19.707  0.00  0.00    +0.000 A 
ATOM     23  C   UNL     1       0.427  14.490  19.418  0.00  0.00    +0.000 A 
ATOM     24  C   UNL     1      -0.402  15.515  19.834  0.00  0.00    +0.000 A 
ATOM     25  C   UNL     1      -1.578  15.212  20.509  0.00  0.00    +0.000 A 
ATOM     26  C   UNL     1      -1.939  13.880  20.791  0.00  0.00    +0.000 A 
BRANCH  26  27
ATOM     27  O   UNL     1      -3.147  13.647  21.421  0.00  0.00    +0.000 OA
BRANCH  27  28
ATOM     28  C   UNL     1      -4.325  13.976  20.626  0.00  0.00    +0.000 C 
BRANCH  28  29
ATOM     29  C   UNL     1      -5.136  12.798  20.117  0.00  0.00    +0.000 A 
ATOM     30  C   UNL     1      -6.239  12.310  20.819  0.00  0.00    +0.000 A 
ATOM     31  C   UNL     1      -6.958  11.206  20.346  0.00  0.00    +0.000 A 
ATOM     32  C   UNL     1      -6.557  10.581  19.171  0.00  0.00    +0.000 A 
ATOM     33  F   UNL     1      -7.254   9.531  18.710  0.00  0.00    +0.000 F 
ATOM     34  C   UNL     1      -5.448  11.024  18.467  0.00  0.00    +0.000 A 
ATOM     35  C   UNL     1      -4.732  12.127  18.942  0.00  0.00    +0.000 A 
ENDBRANCH  28  29
ENDBRANCH  27  28
ENDBRANCH  26  27
ENDBRANCH  11  21
TORSDOF 6
ENDMDL
MODEL 2
REMARK VINA RESULT:      -7.9      2.226      3.785
REMARK  Name = 
REMARK  8 active torsions:
REMARK  status: ('A' for Active; 'I' for Inactive)
REMARK    1  A    between atoms: C_1  and  O_2
REMARK    2  A    between atoms: O_2  and  C_3
REMARK    3  A    between atoms: C_6  and  N_7
REMARK    4  A    between atoms: C_9  and  C_10
REMARK    5  A    between atoms: C_17  and  C_18
REMARK    6  A    between atoms: C_23  and  O_24
REMARK    7  A    between atoms: O_24  and  C_25
REMARK    8  A    between atoms: C_25  and  C_26
REMARK                            x       y       z     vdW  Elec       q    Type
REMARK                         _______ _______ _______ _____ _____    ______ ____
ROOT
ATOM      1  N   UNL     1       1.057   9.424  20.486  0.00  0.00    +0.000 N 
ATOM      2  N   UNL     1       0.325   8.993  21.536  0.00  0.00    +0.000 NA
ATOM      3  C   UNL     1      -0.086  10.098  22.155  0.00  0.00    +0.000 A 
ATOM      4  C   UNL     1      -0.738   9.953  23.468  0.00  0.00    +0.000 C 
ATOM      5  C   UNL     1       0.204  11.270  21.415  0.00  0.00    +0.000 A 
ATOM      6  C   UNL     1       1.031  10.804  20.412  0.00  0.00    +0.000 A 
ATOM      7  N   UNL     1       1.657  11.659  19.531  0.00  0.00    +0.000 N 
ATOM      8  C   UNL     1       1.516  13.066  19.671  0.00  0.00    +0.000 C 
ATOM      9  O   UNL     1       2.204  13.733  18.913  0.00  0.00    +0.000 OA
ATOM     10  C   UNL     1       0.507  13.660  20.625  0.00  0.00    +0.000 C 
ATOM     11  C   UNL     1      -0.137  12.708  21.678  0.00  0.00    +0.000 C 
ATOM     12  H   UNL     1       2.260  11.329  18.791  0.00  0.00    +0.000 HD
ENDROOT
BRANCH   1  16
ATOM     13  C   UNL     1       2.826   6.454  18.061  0.00  0.00    +0.000 A 
ATOM     14  C   UNL     1       2.580   6.226  19.412  0.00  0.00    +0.000 A 
ATOM     15  C   UNL     1       2.021   7.227  20.203  0.00  0.00    +0.000 A 
ATOM     16  C   UNL     1       1.670   8.465  19.640  0.00  0.00    +0.000 A 
ATOM     17  C   UNL     1       1.958   8.715  18.297  0.00  0.00    +0.000 A 
ATOM     18  C   UNL     1       2.544   7.708  17.512  0.00  0.00    +0.000 A 
BRANCH  13  20
ATOM     19  C   UNL     1       4.808   5.344  17.401  0.00  0.00    +0.000 C 
ATOM     20  O   UNL     1       3.386   5.399  17.396  0.00  0.00    +0.000 OA
ENDBRANCH  13  20
ENDBRANCH   1  16
BRANCH  11  21
ATOM     21  C   UNL     1      -1.679  12.837  21.739  0.00  0.00    +0.000 A 
ATOM     22  C   UNL     1      -2.277  13.119  22.994  0.00  0.00    +0.000 A 
ATOM     23  C   UNL     1      -3.658  13.052  23.193  0.00  0.00    +0.000 A 
ATOM     24  C   UNL     1      -4.496  12.744  22.137  0.00  0.00    +0.000 A 
ATOM     25  C   UNL     1      -3.956  12.539  20.874  0.00  0.00    +0.000 A 
ATOM     26  C   UNL     1      -2.568  12.623  20.647  0.00  0.00    +0.000 A 
BRANCH  26  27
ATOM     27  O   UNL     1      -2.104  12.456  19.356  0.00  0.00    +0.000 OA
BRANCH  27  28
ATOM     28  C   UNL     1      -2.056  11.071  18.898  0.00  0.00    +0.000 C 
BRANCH  28  29
ATOM     29  C   UNL     1      -2.657  10.800  17.531  0.00  0.00    +0.000 A 
ATOM     30  C   UNL     1      -2.017   9.981  16.599  0.00  0.00    +0.000 A 
ATOM     31  C   UNL     1      -2.577   9.765  15.333  0.00  0.00    +0.000 A 
ATOM     32  C   UNL     1      -3.774  10.386  14.999  0.00  0.00    +0.000 A 
ATOM     33  F   UNL     1      -4.316  10.168  13.790  0.00  0.00    +0.000 F 
ATOM     34  C   UNL     1      -4.417  11.228  15.892  0.00  0.00    +0.000 A 
ATOM     35  C   UNL     1      -3.857  11.442  17.155  0.00  0.00    +0.000 A 
ENDBRANCH  28  29
ENDBRANCH  27  28
ENDBRANCH  26  27
ENDBRANCH  11  21
TORSDOF 6
ENDMDL
MODEL 3
REMARK VINA RESULT:      -7.8      2.261      4.139
REMARK  Name = 
REMARK  8 active torsions:
REMARK  status: ('A' for Active; 'I' for Inactive)
REMARK    1  A    between atoms: C_1  and  O_2
REMARK    2  A    between atoms: O_2  and  C_3
REMARK    3  A    between atoms: C_6  and  N_7
REMARK    4  A    between atoms: C_9  and  C_10
REMARK    5  A    between atoms: C_17  and  C_18
REMARK    6  A    between atoms: C_23  and  O_24
REMARK    7  A    between atoms: O_24  and  C_25
REMARK    8  A    between atoms: C_25  and  C_26
REMARK                            x       y       z     vdW  Elec       q    Type
REMARK                         _______ _______ _______ _____ _____    ______ ____
ROOT
ATOM      1  N   UNL     1       0.300  10.507  20.487  0.00  0.00    +0.000 N 
ATOM      2  N   UNL     1      -0.413  10.113  21.565  0.00  0.00    +0.000 NA
ATOM      3  C   UNL     1      -0.920  11.232  22.080  0.00  0.00    +0.000 A 
ATOM      4  C   UNL     1      -1.580  11.152  23.394  0.00  0.00    +0.000 C 
ATOM      5  C   UNL     1      -0.711  12.354  21.241  0.00  0.00    +0.000 A 
ATOM      6  C   UNL     1       0.167  11.869  20.291  0.00  0.00    +0.000 A 
ATOM      7  N   UNL     1       0.738  12.690  19.343  0.00  0.00    +0.000 N 
ATOM      8  C   UNL     1       0.484  14.088  19.356  0.00  0.00    +0.000 C 
ATOM      9  O   UNL     1       1.131  14.738  18.549  0.00  0.00    +0.000 OA
ATOM     10  C   UNL     1      -0.583  14.681  20.245  0.00  0.00    +0.000 C 
ATOM     11  C   UNL     1      -1.167  13.777  21.372  0.00  0.00    +0.000 C 
ATOM     12  H   UNL     1       1.377  12.345  18.641  0.00  0.00    +0.000 HD
ENDROOT
BRANCH   1  16
ATOM     13  C   UNL     1       2.344   7.487  18.358  0.00  0.00    +0.000 A 
ATOM     14  C   UNL     1       2.167   7.400  19.737  0.00  0.00    +0.000 A 
ATOM     15  C   UNL     1       1.514   8.419  20.426  0.00  0.00    +0.000 A 
ATOM     16  C   UNL     1       0.999   9.529  19.736  0.00  0.00    +0.000 A 
ATOM     17  C   UNL     1       1.216   9.644  18.361  0.00  0.00    +0.000 A 
ATOM     18  C   UNL     1       1.897   8.622  17.677  0.00  0.00    +0.000 A 
BRANCH  13  20
ATOM     19  C   UNL     1       4.315   6.706  17.308  0.00  0.00    +0.000 C 
ATOM     20  O   UNL     1       3.008   6.431  17.800  0.00  0.00    +0.000 OA
ENDBRANCH  13  20
ENDBRANCH   1  16
BRANCH  11  21
ATOM     21  C   UNL     1      -2.715  13.788  21.408  0.00  0.00    +0.000 A 
ATOM     22  C   UNL     1      -3.356  14.563  22.408  0.00  0.00    +0.000 A 
ATOM     23  C   UNL     1      -4.729  14.478  22.651  0.00  0.00    +0.000 A 
ATOM     24  C   UNL     1      -5.519  13.649  21.877  0.00  0.00    +0.000 A 
ATOM     25  C   UNL     1      -4.943  12.933  20.836  0.00  0.00    +0.000 A 
ATOM     26  C   UNL     1      -3.565  13.021  20.560  0.00  0.00    +0.000 A 
BRANCH  26  27
ATOM     27  O   UNL     1      -3.067  12.319  19.478  0.00  0.00    +0.000 OA
BRANCH  27  28
ATOM     28  C   UNL     1      -4.049  11.499  18.776  0.00  0.00    +0.000 C 
BRANCH  28  29
ATOM     29  C   UNL     1      -3.621  10.958  17.425  0.00  0.00    +0.000 A 
ATOM     30  C   UNL     1      -2.488  10.155  17.282  0.00  0.00    +0.000 A 
ATOM     31  C   UNL     1      -2.097   9.687  16.021  0.00  0.00    +0.000 A 
ATOM     32  C   UNL     1      -2.837  10.039  14.900  0.00  0.00    +0.000 A 
ATOM     33  F   UNL     1      -2.469   9.580  13.694  0.00  0.00    +0.000 F 
ATOM     34  C   UNL     1      -3.951  10.859  15.006  0.00  0.00    +0.000 A 
ATOM     35  C   UNL     1      -4.339  11.325  16.266  0.00  0.00    +0.000 A 
ENDBRANCH  28  29
ENDBRANCH  27  28
ENDBRANCH  26  27
ENDBRANCH  11  21
TORSDOF 6
ENDMDL
MODEL 4
REMARK VINA RESULT:      -7.7      3.059      5.091
REMARK  Name = 
REMARK  8 active torsions:
REMARK  status: ('A' for Active; 'I' for Inactive)
REMARK    1  A    between atoms: C_1  and  O_2
REMARK    2  A    between atoms: O_2  and  C_3
REMARK    3  A    between atoms: C_6  and  N_7
REMARK    4  A    between atoms: C_9  and  C_10
REMARK    5  A    between atoms: C_17  and  C_18
REMARK    6  A    between atoms: C_23  and  O_24
REMARK    7  A    between atoms: O_24  and  C_25
REMARK    8  A    between atoms: C_25  and  C_26
REMARK                            x       y       z     vdW  Elec       q    Type
REMARK                         _______ _______ _______ _____ _____    ______ ____
ROOT
ATOM      1  N   UNL     1       0.552  10.674  20.048  0.00  0.00    +0.000 N 
ATOM      2  N   UNL     1       1.205  11.539  20.855  0.00  0.00    +0.000 NA
ATOM      3  C   UNL     1       0.390  12.585  20.981  0.00  0.00    +0.000 A 
ATOM      4  C   UNL     1       0.913  13.793  21.640  0.00  0.00    +0.000 C 
ATOM      5  C   UNL     1      -0.888  12.343  20.421  0.00  0.00    +0.000 A 
ATOM      6  C   UNL     1      -0.706  11.156  19.738  0.00  0.00    +0.000 A 
ATOM      7  N   UNL     1      -1.687  10.625  18.929  0.00  0.00    +0.000 N 
ATOM      8  C   UNL     1      -2.906  11.325  18.724  0.00  0.00    +0.000 C 
ATOM      9  O   UNL     1      -3.657  10.825  17.900  0.00  0.00    +0.000 OA
ATOM     10  C   UNL     1      -3.261  12.537  19.552  0.00  0.00    +0.000 C 
ATOM     11  C   UNL     1      -2.128  13.188  20.400  0.00  0.00    +0.000 C 
ATOM     12  H   UNL     1      -1.566   9.755  18.430  0.00  0.00    +0.000 HD
ENDROOT
BRANCH   1  16
ATOM     13  C   UNL     1       2.371   6.982  19.104  0.00  0.00    +0.000 A 
ATOM     14  C   UNL     1       1.921   7.252  20.394  0.00  0.00    +0.000 A 
ATOM     15  C   UNL     1       1.348   8.486  20.693  0.00  0.00    +0.000 A 
ATOM     16  C   UNL     1       1.189   9.458  19.692  0.00  0.00    +0.000 A 
ATOM     17  C   UNL     1       1.682   9.210  18.409  0.00  0.00    +0.000 A 
ATOM     18  C   UNL     1       2.279   7.971  18.122  0.00  0.00    +0.000 A 
BRANCH  13  20
ATOM     19  C   UNL     1       2.434   4.983  17.840  0.00  0.00    +0.000 C 
ATOM     20  O   UNL     1       2.922   5.742  18.941  0.00  0.00    +0.000 OA
ENDBRANCH  13  20
ENDBRANCH   1  16
BRANCH  11  21
ATOM     21  C   UNL     1      -2.555  13.458  21.864  0.00  0.00    +0.000 A 
ATOM     22  C   UNL     1      -3.131  12.393  22.601  0.00  0.00    +0.000 A 
ATOM     23  C   UNL     1      -3.730  12.586  23.848  0.00  0.00    +0.000 A 
ATOM     24  C   UNL     1      -3.738  13.843  24.424  0.00  0.00    +0.000 A 
ATOM     25  C   UNL     1      -3.115  14.898  23.771  0.00  0.00    +0.000 A 
ATOM     26  C   UNL     1      -2.486  14.720  22.523  0.00  0.00    +0.000 A 
BRANCH  26  27
ATOM     27  O   UNL     1      -1.843  15.802  21.953  0.00  0.00    +0.000 OA
BRANCH  27  28
ATOM     28  C   UNL     1      -2.644  16.553  20.992  0.00  0.00    +0.000 C 
BRANCH  28  29
ATOM     29  C   UNL     1      -1.924  17.012  19.738  0.00  0.00    +0.000 A 
ATOM     30  C   UNL     1      -0.787  16.357  19.264  0.00  0.00    +0.000 A 
ATOM     31  C   UNL     1      -0.122  16.813  18.119  0.00  0.00    +0.000 A 
ATOM     32  C   UNL     1      -0.593  17.941  17.458  0.00  0.00    +0.000 A 
ATOM     33  F   UNL     1       0.036  18.370  16.353  0.00  0.00    +0.000 F 
ATOM     34  C   UNL     1      -1.703  18.631  17.921  0.00  0.00    +0.000 A 
ATOM     35  C   UNL     1      -2.364  18.173  19.064  0.00  0.00    +0.000 A 
ENDBRANCH  28  29
ENDBRANCH  27  28
ENDBRANCH  26  27
ENDBRANCH  11  21
TORSDOF 6
ENDMDL
MODEL 5
REMARK VINA RESULT:      -7.7      3.023      4.888
REMARK  Name = 
REMARK  8 active torsions:
REMARK  status: ('A' for Active; 'I' for Inactive)
REMARK    1  A    between atoms: C_1  and  O_2
REMARK    2  A    between atoms: O_2  and  C_3
REMARK    3  A    between atoms: C_6  and  N_7
REMARK    4  A    between atoms: C_9  and  C_10
REMARK    5  A    between atoms: C_17  and  C_18
REMARK    6  A    between atoms: C_23  and  O_24
REMARK    7  A    between atoms: O_24  and  C_25
REMARK    8  A    between atoms: C_25  and  C_26
REMARK                            x       y       z     vdW  Elec       q    Type
REMARK                         _______ _______ _______ _____ _____    ______ ____
ROOT
ATOM      1  N   UNL     1       0.620  10.249  19.737  0.00  0.00    +0.000 N 
ATOM      2  N   UNL     1       1.207  11.195  20.503  0.00  0.00    +0.000 NA
ATOM      3  C   UNL     1       0.349  12.213  20.522  0.00  0.00    +0.000 A 
ATOM      4  C   UNL     1       0.799  13.486  21.110  0.00  0.00    +0.000 C 
ATOM      5  C   UNL     1      -0.896  11.881  19.934  0.00  0.00    +0.000 A 
ATOM      6  C   UNL     1      -0.642  10.656  19.347  0.00  0.00    +0.000 A 
ATOM      7  N   UNL     1      -1.569  10.029  18.542  0.00  0.00    +0.000 N 
ATOM      8  C   UNL     1      -2.805  10.662  18.242  0.00  0.00    +0.000 C 
ATOM      9  O   UNL     1      -3.502  10.075  17.428  0.00  0.00    +0.000 OA
ATOM     10  C   UNL     1      -3.238  11.915  18.965  0.00  0.00    +0.000 C 
ATOM     11  C   UNL     1      -2.165  12.671  19.805  0.00  0.00    +0.000 C 
ATOM     12  H   UNL     1      -1.395   9.132  18.113  0.00  0.00    +0.000 HD
ENDROOT
BRANCH   1  16
ATOM     13  C   UNL     1       2.773   6.714  18.901  0.00  0.00    +0.000 A 
ATOM     14  C   UNL     1       2.553   7.672  17.914  0.00  0.00    +0.000 A 
ATOM     15  C   UNL     1       1.818   8.819  18.201  0.00  0.00    +0.000 A 
ATOM     16  C   UNL     1       1.317   9.038  19.495  0.00  0.00    +0.000 A 
ATOM     17  C   UNL     1       1.493   8.058  20.474  0.00  0.00    +0.000 A 
ATOM     18  C   UNL     1       2.216   6.893  20.169  0.00  0.00    +0.000 A 
BRANCH  13  20
ATOM     19  C   UNL     1       2.809   4.689  17.677  0.00  0.00    +0.000 C 
ATOM     20  O   UNL     1       3.498   5.630  18.492  0.00  0.00    +0.000 OA
ENDBRANCH  13  20
ENDBRANCH   1  16
BRANCH  11  21
ATOM     21  C   UNL     1      -2.660  13.027  21.229  0.00  0.00    +0.000 A 
ATOM     22  C   UNL     1      -2.428  12.094  22.271  0.00  0.00    +0.000 A 
ATOM     23  C   UNL     1      -3.009  12.227  23.534  0.00  0.00    +0.000 A 
ATOM     24  C   UNL     1      -3.808  13.319  23.817  0.00  0.00    +0.000 A 
ATOM     25  C   UNL     1      -3.997  14.297  22.848  0.00  0.00    +0.000 A 
ATOM     26  C   UNL     1      -3.403  14.193  21.576  0.00  0.00    +0.000 A 
BRANCH  26  27
ATOM     27  O   UNL     1      -3.593  15.225  20.677  0.00  0.00    +0.000 OA
BRANCH  27  28
ATOM     28  C   UNL     1      -2.775  16.408  20.923  0.00  0.00    +0.000 C 
BRANCH  28  29
ATOM     29  C   UNL     1      -1.958  16.910  19.746  0.00  0.00    +0.000 A 
ATOM     30  C   UNL     1      -0.828  16.226  19.294  0.00  0.00    +0.000 A 
ATOM     31  C   UNL     1      -0.073  16.721  18.223  0.00  0.00    +0.000 A 
ATOM     32  C   UNL     1      -0.446  17.913  17.616  0.00  0.00    +0.000 A 
ATOM     33  F   UNL     1       0.270  18.380  16.581  0.00  0.00    +0.000 F 
ATOM     34  C   UNL     1      -1.545  18.630  18.062  0.00  0.00    +0.000 A 
ATOM     35  C   UNL     1      -2.297  18.134  19.131  0.00  0.00    +0.000 A 
ENDBRANCH  28  29
ENDBRANCH  27  28
ENDBRANCH  26  27
ENDBRANCH  11  21
TORSDOF 6
ENDMDL
MODEL 6
REMARK VINA RESULT:      -7.6      2.058      2.345
REMARK  Name = 
REMARK  8 active torsions:
REMARK  status: ('A' for Active; 'I' for Inactive)
REMARK    1  A    between atoms: C_1  and  O_2
REMARK    2  A    between atoms: O_2  and  C_3
REMARK    3  A    between atoms: C_6  and  N_7
REMARK    4  A    between atoms: C_9  and  C_10
REMARK    5  A    between atoms: C_17  and  C_18
REMARK    6  A    between atoms: C_23  and  O_24
REMARK    7  A    between atoms: O_24  and  C_25
REMARK    8  A    between atoms: C_25  and  C_26
REMARK                            x       y       z     vdW  Elec       q    Type
REMARK                         _______ _______ _______ _____ _____    ______ ____
ROOT
ATOM      1  N   UNL     1       0.881   9.218  19.291  0.00  0.00    +0.000 N 
ATOM      2  N   UNL     1       0.296   9.864  18.259  0.00  0.00    +0.000 NA
ATOM      3  C   UNL     1      -0.573  10.705  18.818  0.00  0.00    +0.000 A 
ATOM      4  C   UNL     1      -1.520  11.407  17.936  0.00  0.00    +0.000 C 
ATOM      5  C   UNL     1      -0.435  10.766  20.226  0.00  0.00    +0.000 A 
ATOM      6  C   UNL     1       0.427   9.720  20.496  0.00  0.00    +0.000 A 
ATOM      7  N   UNL     1       0.726   9.340  21.787  0.00  0.00    +0.000 N 
ATOM      8  C   UNL     1       0.101   9.983  22.889  0.00  0.00    +0.000 C 
ATOM      9  O   UNL     1       0.347   9.493  23.981  0.00  0.00    +0.000 OA
ATOM     10  C   UNL     1      -0.720  11.237  22.700  0.00  0.00    +0.000 C 
ATOM     11  C   UNL     1      -1.131  11.618  21.246  0.00  0.00    +0.000 C 
ATOM     12  H   UNL     1       1.359   8.581  21.995  0.00  0.00    +0.000 HD
ENDROOT
BRANCH   1  16
ATOM     13  C   UNL     1       3.830   6.338  18.375  0.00  0.00    +0.000 A 
ATOM     14  C   UNL     1       3.588   7.414  17.524  0.00  0.00    +0.000 A 
ATOM     15  C   UNL     1       2.593   8.339  17.830  0.00  0.00    +0.000 A 
ATOM     16  C   UNL     1       1.844   8.216  19.012  0.00  0.00    +0.000 A 
ATOM     17  C   UNL     1       2.051   7.112  19.843  0.00  0.00    +0.000 A 
ATOM     18  C   UNL     1       3.041   6.172  19.515  0.00  0.00    +0.000 A 
BRANCH  13  20
ATOM     19  C   UNL     1       5.248   4.521  18.906  0.00  0.00    +0.000 C 
ATOM     20  O   UNL     1       4.824   5.496  17.961  0.00  0.00    +0.000 OA
ENDBRANCH  13  20
ENDBRANCH   1  16
BRANCH  11  21
ATOM     21  C   UNL     1      -0.846  13.103  20.912  0.00  0.00    +0.000 A 
ATOM     22  C   UNL     1       0.500  13.546  20.928  0.00  0.00    +0.000 A 
ATOM     23  C   UNL     1       0.842  14.898  20.843  0.00  0.00    +0.000 A 
ATOM     24  C   UNL     1      -0.146  15.853  20.696  0.00  0.00    +0.000 A 
ATOM     25  C   UNL     1      -1.473  15.455  20.597  0.00  0.00    +0.000 A 
ATOM     26  C   UNL     1      -1.837  14.095  20.658  0.00  0.00    +0.000 A 
BRANCH  26  27
ATOM     27  O   UNL     1      -3.170  13.766  20.503  0.00  0.00    +0.000 OA
BRANCH  27  28
ATOM     28  C   UNL     1      -4.108  14.815  20.888  0.00  0.00    +0.000 C 
BRANCH  28  29
ATOM     29  C   UNL     1      -5.103  14.453  21.976  0.00  0.00    +0.000 A 
ATOM     30  C   UNL     1      -4.863  13.410  22.871  0.00  0.00    +0.000 A 
ATOM     31  C   UNL     1      -5.807  13.076  23.850  0.00  0.00    +0.000 A 
ATOM     32  C   UNL     1      -7.001  13.783  23.920  0.00  0.00    +0.000 A 
ATOM     33  F   UNL     1      -7.900  13.471  24.867  0.00  0.00    +0.000 F 
ATOM     34  C   UNL     1      -7.281  14.804  23.025  0.00  0.00    +0.000 A 
ATOM     35  C   UNL     1      -6.337  15.136  22.049  0.00  0.00    +0.000 A 
ENDBRANCH  28  29
ENDBRANCH  27  28
ENDBRANCH  26  27
ENDBRANCH  11  21
TORSDOF 6
ENDMDL
MODEL 7
REMARK VINA RESULT:      -7.6      2.329      3.004
REMARK  Name = 
REMARK  8 active torsions:
REMARK  status: ('A' for Active; 'I' for Inactive)
REMARK    1  A    between atoms: C_1  and  O_2
REMARK    2  A    between atoms: O_2  and  C_3
REMARK    3  A    between atoms: C_6  and  N_7
REMARK    4  A    between atoms: C_9  and  C_10
REMARK    5  A    between atoms: C_17  and  C_18
REMARK    6  A    between atoms: C_23  and  O_24
REMARK    7  A    between atoms: O_24  and  C_25
REMARK    8  A    between atoms: C_25  and  C_26
REMARK                            x       y       z     vdW  Elec       q    Type
REMARK                         _______ _______ _______ _____ _____    ______ ____
ROOT
ATOM      1  N   UNL     1       1.123   8.861  19.203  0.00  0.00    +0.000 N 
ATOM      2  N   UNL     1       0.519   9.432  18.138  0.00  0.00    +0.000 NA
ATOM      3  C   UNL     1      -0.362  10.289  18.652  0.00  0.00    +0.000 A 
ATOM      4  C   UNL     1      -1.329  10.919  17.737  0.00  0.00    +0.000 C 
ATOM      5  C   UNL     1      -0.216  10.438  20.053  0.00  0.00    +0.000 A 
ATOM      6  C   UNL     1       0.667   9.426  20.379  0.00  0.00    +0.000 A 
ATOM      7  N   UNL     1       0.982   9.132  21.688  0.00  0.00    +0.000 N 
ATOM      8  C   UNL     1       0.352   9.828  22.754  0.00  0.00    +0.000 C 
ATOM      9  O   UNL     1       0.615   9.410  23.871  0.00  0.00    +0.000 OA
ATOM     10  C   UNL     1      -0.494  11.053  22.496  0.00  0.00    +0.000 C 
ATOM     11  C   UNL     1      -0.922  11.337  21.025  0.00  0.00    +0.000 C 
ATOM     12  H   UNL     1       1.631   8.398  21.937  0.00  0.00    +0.000 HD
ENDROOT
BRANCH   1  16
ATOM     13  C   UNL     1       4.130   5.992  18.455  0.00  0.00    +0.000 A 
ATOM     14  C   UNL     1       3.948   7.081  17.605  0.00  0.00    +0.000 A 
ATOM     15  C   UNL     1       2.934   8.002  17.853  0.00  0.00    +0.000 A 
ATOM     16  C   UNL     1       2.104   7.862  18.978  0.00  0.00    +0.000 A 
ATOM     17  C   UNL     1       2.251   6.746  19.805  0.00  0.00    +0.000 A 
ATOM     18  C   UNL     1       3.262   5.809  19.534  0.00  0.00    +0.000 A 
BRANCH  13  20
ATOM     19  C   UNL     1       6.388   5.362  18.769  0.00  0.00    +0.000 C 
ATOM     20  O   UNL     1       5.150   5.155  18.099  0.00  0.00    +0.000 OA
ENDBRANCH  13  20
ENDBRANCH   1  16
BRANCH  11  21
ATOM     21  C   UNL     1      -0.668  12.804  20.599  0.00  0.00    +0.000 A 
ATOM     22  C   UNL     1       0.658  13.300  20.667  0.00  0.00    +0.000 A 
ATOM     23  C   UNL     1       0.957  14.655  20.503  0.00  0.00    +0.000 A 
ATOM     24  C   UNL     1      -0.052  15.557  20.222  0.00  0.00    +0.000 A 
ATOM     25  C   UNL     1      -1.354  15.100  20.070  0.00  0.00    +0.000 A 
ATOM     26  C   UNL     1      -1.674  13.735  20.210  0.00  0.00    +0.000 A 
BRANCH  26  27
ATOM     27  O   UNL     1      -2.981  13.342  19.996  0.00  0.00    +0.000 OA
BRANCH  27  28
ATOM     28  C   UNL     1      -3.977  14.094  20.753  0.00  0.00    +0.000 C 
BRANCH  28  29
ATOM     29  C   UNL     1      -3.745  14.186  22.251  0.00  0.00    +0.000 A 
ATOM     30  C   UNL     1      -3.468  15.403  22.875  0.00  0.00    +0.000 A 
ATOM     31  C   UNL     1      -3.231  15.462  24.254  0.00  0.00    +0.000 A 
ATOM     32  C   UNL     1      -3.258  14.293  25.004  0.00  0.00    +0.000 A 
ATOM     33  F   UNL     1      -3.044  14.352  26.328  0.00  0.00    +0.000 F 
ATOM     34  C   UNL     1      -3.501  13.066  24.408  0.00  0.00    +0.000 A 
ATOM     35  C   UNL     1      -3.737  13.009  23.031  0.00  0.00    +0.000 A 
ENDBRANCH  28  29
ENDBRANCH  27  28
ENDBRANCH  26  27
ENDBRANCH  11  21
TORSDOF 6
ENDMDL
MODEL 8
REMARK VINA RESULT:      -7.6      2.668      5.372
REMARK  Name = 
REMARK  8 active torsions:
REMARK  status: ('A' for Active; 'I' for Inactive)
REMARK    1  A    between atoms: C_1  and  O_2
REMARK    2  A    between atoms: O_2  and  C_3
REMARK    3  A    between atoms: C_6  and  N_7
REMARK    4  A    between atoms: C_9  and  C_10
REMARK    5  A    between atoms: C_17  and  C_18
REMARK    6  A    between atoms: C_23  and  O_24
REMARK    7  A    between atoms: O_24  and  C_25
REMARK    8  A    between atoms: C_25  and  C_26
REMARK                            x       y       z     vdW  Elec       q    Type
REMARK                         _______ _______ _______ _____ _____    ______ ____
ROOT
ATOM      1  N   UNL     1      -1.745  11.819  22.421  0.00  0.00    +0.000 N 
ATOM      2  N   UNL     1      -2.648  11.453  23.357  0.00  0.00    +0.000 NA
ATOM      3  C   UNL     1      -3.332  12.561  23.638  0.00  0.00    +0.000 A 
ATOM      4  C   UNL     1      -4.258  12.531  24.783  0.00  0.00    +0.000 C 
ATOM      5  C   UNL     1      -3.024  13.624  22.754  0.00  0.00    +0.000 A 
ATOM      6  C   UNL     1      -1.927  13.143  22.065  0.00  0.00    +0.000 A 
ATOM      7  N   UNL     1      -1.220  13.931  21.183  0.00  0.00    +0.000 N 
ATOM      8  C   UNL     1      -1.568  15.296  21.001  0.00  0.00    +0.000 C 
ATOM      9  O   UNL     1      -0.807  15.933  20.288  0.00  0.00    +0.000 OA
ATOM     10  C   UNL     1      -2.843  15.862  21.579  0.00  0.00    +0.000 C 
ATOM     11  C   UNL     1      -3.596  15.007  22.641  0.00  0.00    +0.000 C 
ATOM     12  H   UNL     1      -0.420  13.587  20.671  0.00  0.00    +0.000 HD
ENDROOT
BRANCH   1  16
ATOM     13  C   UNL     1       0.943   8.840  21.106  0.00  0.00    +0.000 A 
ATOM     14  C   UNL     1       0.624   8.975  22.455  0.00  0.00    +0.000 A 
ATOM     15  C   UNL     1      -0.244   9.981  22.873  0.00  0.00    +0.000 A 
ATOM     16  C   UNL     1      -0.831  10.850  21.938  0.00  0.00    +0.000 A 
ATOM     17  C   UNL     1      -0.477  10.749  20.591  0.00  0.00    +0.000 A 
ATOM     18  C   UNL     1       0.417   9.746  20.181  0.00  0.00    +0.000 A 
BRANCH  13  20
ATOM     19  C   UNL     1       2.148   7.654  19.451  0.00  0.00    +0.000 C 
ATOM     20  O   UNL     1       1.811   7.824  20.823  0.00  0.00    +0.000 OA
ENDBRANCH  13  20
ENDBRANCH   1  16
BRANCH  11  21
ATOM     21  C   UNL     1      -5.111  14.881  22.346  0.00  0.00    +0.000 A 
ATOM     22  C   UNL     1      -6.024  15.374  23.312  0.00  0.00    +0.000 A 
ATOM     23  C   UNL     1      -7.396  15.127  23.235  0.00  0.00    +0.000 A 
ATOM     24  C   UNL     1      -7.913  14.414  22.170  0.00  0.00    +0.000 A 
ATOM     25  C   UNL     1      -7.062  13.980  21.161  0.00  0.00    +0.000 A 
ATOM     26  C   UNL     1      -5.679  14.238  21.208  0.00  0.00    +0.000 A 
BRANCH  26  27
ATOM     27  O   UNL     1      -4.898  13.820  20.147  0.00  0.00    +0.000 OA
BRANCH  27  28
ATOM     28  C   UNL     1      -4.924  12.383  19.897  0.00  0.00    +0.000 C 
BRANCH  28  29
ATOM     29  C   UNL     1      -4.271  11.918  18.608  0.00  0.00    +0.000 A 
ATOM     30  C   UNL     1      -5.028  11.527  17.503  0.00  0.00    +0.000 A 
ATOM     31  C   UNL     1      -4.406  11.076  16.332  0.00  0.00    +0.000 A 
ATOM     32  C   UNL     1      -3.020  11.005  16.278  0.00  0.00    +0.000 A 
ATOM     33  F   UNL     1      -2.423  10.585  15.151  0.00  0.00    +0.000 F 
ATOM     34  C   UNL     1      -2.241  11.359  17.369  0.00  0.00    +0.000 A 
ATOM     35  C   UNL     1      -2.865  11.808  18.537  0.00  0.00    +0.000 A 
ENDBRANCH  28  29
ENDBRANCH  27  28
ENDBRANCH  26  27
ENDBRANCH  11  21
TORSDOF 6
ENDMDL
MODEL 9
REMARK VINA RESULT:      -7.6      2.337      2.906
REMARK  Name = 
REMARK  8 active torsions:
REMARK  status: ('A' for Active; 'I' for Inactive)
REMARK    1  A    between atoms: C_1  and  O_2
REMARK    2  A    between atoms: O_2  and  C_3
REMARK    3  A    between atoms: C_6  and  N_7
REMARK    4  A    between atoms: C_9  and  C_10
REMARK    5  A    between atoms: C_17  and  C_18
REMARK    6  A    between atoms: C_23  and  O_24
REMARK    7  A    between atoms: O_24  and  C_25
REMARK    8  A    between atoms: C_25  and  C_26
REMARK                            x       y       z     vdW  Elec       q    Type
REMARK                         _______ _______ _______ _____ _____    ______ ____
ROOT
ATOM      1  N   UNL     1       0.930   9.218  19.264  0.00  0.00    +0.000 N 
ATOM      2  N   UNL     1       0.380   9.876  18.220  0.00  0.00    +0.000 NA
ATOM      3  C   UNL     1      -0.475  10.742  18.761  0.00  0.00    +0.000 A 
ATOM      4  C   UNL     1      -1.388  11.466  17.861  0.00  0.00    +0.000 C 
ATOM      5  C   UNL     1      -0.360  10.804  20.171  0.00  0.00    +0.000 A 
ATOM      6  C   UNL     1       0.468   9.736  20.459  0.00  0.00    +0.000 A 
ATOM      7  N   UNL     1       0.735   9.353  21.756  0.00  0.00    +0.000 N 
ATOM      8  C   UNL     1       0.109  10.016  22.845  0.00  0.00    +0.000 C 
ATOM      9  O   UNL     1       0.322   9.524  23.943  0.00  0.00    +0.000 OA
ATOM     10  C   UNL     1      -0.675  11.291  22.638  0.00  0.00    +0.000 C 
ATOM     11  C   UNL     1      -1.050  11.678  21.177  0.00  0.00    +0.000 C 
ATOM     12  H   UNL     1       1.343   8.577  21.978  0.00  0.00    +0.000 HD
ENDROOT
BRANCH   1  16
ATOM     13  C   UNL     1       3.815   6.256  18.406  0.00  0.00    +0.000 A 
ATOM     14  C   UNL     1       3.603   7.326  17.539  0.00  0.00    +0.000 A 
ATOM     15  C   UNL     1       2.628   8.278  17.825  0.00  0.00    +0.000 A 
ATOM     16  C   UNL     1       1.870   8.189  19.004  0.00  0.00    +0.000 A 
ATOM     17  C   UNL     1       2.046   7.093  19.852  0.00  0.00    +0.000 A 
ATOM     18  C   UNL     1       3.016   6.125  19.544  0.00  0.00    +0.000 A 
BRANCH  13  20
ATOM     19  C   UNL     1       5.410   5.670  16.760  0.00  0.00    +0.000 C 
ATOM     20  O   UNL     1       4.790   5.385  18.009  0.00  0.00    +0.000 OA
ENDBRANCH  13  20
ENDBRANCH   1  16
BRANCH  11  21
ATOM     21  C   UNL     1      -0.720  13.154  20.843  0.00  0.00    +0.000 A 
ATOM     22  C   UNL     1       0.615  13.596  21.018  0.00  0.00    +0.000 A 
ATOM     23  C   UNL     1       0.970  14.945  20.942  0.00  0.00    +0.000 A 
ATOM     24  C   UNL     1       0.012  15.897  20.646  0.00  0.00    +0.000 A 
ATOM     25  C   UNL     1      -1.293  15.496  20.390  0.00  0.00    +0.000 A 
ATOM     26  C   UNL     1      -1.667  14.139  20.440  0.00  0.00    +0.000 A 
BRANCH  26  27
ATOM     27  O   UNL     1      -2.971  13.806  20.126  0.00  0.00    +0.000 OA
BRANCH  27  28
ATOM     28  C   UNL     1      -3.979  14.392  21.002  0.00  0.00    +0.000 C 
BRANCH  28  29
ATOM     29  C   UNL     1      -3.872  14.035  22.474  0.00  0.00    +0.000 A 
ATOM     30  C   UNL     1      -4.178  12.756  22.942  0.00  0.00    +0.000 A 
ATOM     31  C   UNL     1      -4.097  12.455  24.307  0.00  0.00    +0.000 A 
ATOM     32  C   UNL     1      -3.722  13.447  25.205  0.00  0.00    +0.000 A 
ATOM     33  F   UNL     1      -3.632  13.154  26.512  0.00  0.00    +0.000 F 
ATOM     34  C   UNL     1      -3.441  14.734  24.774  0.00  0.00    +0.000 A 
ATOM     35  C   UNL     1      -3.522  15.032  23.411  0.00  0.00    +0.000 A 
ENDBRANCH  28  29
ENDBRANCH  27  28
ENDBRANCH  26  27
ENDBRANCH  11  21
TORSDOF 6
ENDMDL
