MODEL 1
REMARK VINA RESULT:      -8.0      0.000      0.000
REMARK  Name = 
REMARK  11 active torsions:
REMARK  status: ('A' for Active; 'I' for Inactive)
REMARK    1  A    between atoms: C_1  and  O_2
REMARK    2  A    between atoms: O_2  and  C_3
REMARK    3  A    between atoms: C_3  and  C_5
REMARK    4  A    between atoms: C_5  and  C_6
REMARK    5  A    between atoms: C_6  and  N_7
REMARK    6  A    between atoms: N_7  and  C_8
REMARK    7  A    between atoms: N_7  and  C_12
REMARK    8  A    between atoms: C_8  and  C_9
REMARK    9  A    between atoms: C_9  and  C_10
REMARK   10  A    between atoms: C_9  and  C_11
REMARK   11  A    between atoms: C_14  and  C_15
REMARK                            x       y       z     vdW  Elec       q    Type
REMARK                         _______ _______ _______ _____ _____    ______ ____
ROOT
ATOM      1  C   UNL     1       4.177   5.719  18.401  0.00  0.00    +0.000 A 
ATOM      2  N   UNL     1       3.479   6.875  18.396  0.00  0.00    +0.000 NA
ATOM      3  C   UNL     1       2.468   6.995  19.275  0.00  0.00    +0.000 A 
ATOM      4  N   UNL     1       2.078   6.036  20.127  0.00  0.00    +0.000 NA
ATOM      5  C   UNL     1       2.741   4.887  20.116  0.00  0.00    +0.000 A 
ATOM      6  C   UNL     1       2.324   3.901  21.001  0.00  0.00    +0.000 A 
ATOM      7  C   UNL     1       2.962   2.662  21.081  0.00  0.00    +0.000 A 
ATOM      8  C   UNL     1       4.030   2.395  20.241  0.00  0.00    +0.000 A 
ATOM      9  C   UNL     1       4.447   3.367  19.333  0.00  0.00    +0.000 A 
ATOM     10  C   UNL     1       3.822   4.645  19.264  0.00  0.00    +0.000 A 
ENDROOT
BRANCH   3  11
ATOM     11  C   UNL     1       1.746   8.275  19.365  0.00  0.00    +0.000 A 
ATOM     12  C   UNL     1       1.587   9.125  18.251  0.00  0.00    +0.000 A 
ATOM     13  C   UNL     1       0.878  10.320  18.352  0.00  0.00    +0.000 A 
ATOM     14  C   UNL     1       0.338  10.652  19.579  0.00  0.00    +0.000 A 
ATOM     15  N   UNL     1       0.463   9.884  20.681  0.00  0.00    +0.000 NA
ATOM     16  C   UNL     1       1.162   8.724  20.546  0.00  0.00    +0.000 A 
ENDBRANCH   3  11
BRANCH   1  17
ATOM     17  N   UNL     1       5.291   5.603  17.528  0.00  0.00    +0.000 N 
BRANCH  17  18
ATOM     18  C   UNL     1       5.147   4.615  16.430  0.00  0.00    +0.000 C 
BRANCH  18  19
ATOM     19  C   UNL     1       5.377   5.261  15.061  0.00  0.00    +0.000 C 
BRANCH  19  20
ATOM     20  C   UNL     1       6.621   4.763  14.361  0.00  0.00    +0.000 C 
ATOM     21  O   UNL     1       7.721   5.290  14.377  0.00  0.00    +0.000 OA
BRANCH  20  23
ATOM     22  C   UNL     1       6.508   3.589  12.301  0.00  0.00    +0.000 C 
ATOM     23  O   UNL     1       6.311   3.597  13.717  0.00  0.00    +0.000 OA
ENDBRANCH  20  23
ENDBRANCH  19  20
ENDBRANCH  18  19
ENDBRANCH  17  18
BRANCH  17  24
ATOM     24  C   UNL     1       5.995   6.884  17.298  0.00  0.00    +0.000 C 
BRANCH  24  25
ATOM     25  C   UNL     1       7.501   6.927  17.611  0.00  0.00    +0.000 C 
ATOM     26  C   UNL     1       8.033   8.337  17.850  0.00  0.00    +0.000 C 
ATOM     27  C   UNL     1       7.783   6.066  18.852  0.00  0.00    +0.000 C 
ENDBRANCH  24  25
ENDBRANCH  17  24
ENDBRANCH   1  17
TORSDOF 8
ENDMDL
MODEL 2
REMARK VINA RESULT:      -8.0      1.288      1.443
REMARK  Name = 
REMARK  11 active torsions:
REMARK  status: ('A' for Active; 'I' for Inactive)
REMARK    1  A    between atoms: C_1  and  O_2
REMARK    2  A    between atoms: O_2  and  C_3
REMARK    3  A    between atoms: C_3  and  C_5
REMARK    4  A    between atoms: C_5  and  C_6
REMARK    5  A    between atoms: C_6  and  N_7
REMARK    6  A    between atoms: N_7  and  C_8
REMARK    7  A    between atoms: N_7  and  C_12
REMARK    8  A    between atoms: C_8  and  C_9
REMARK    9  A    between atoms: C_9  and  C_10
REMARK   10  A    between atoms: C_9  and  C_11
REMARK   11  A    between atoms: C_14  and  C_15
REMARK                            x       y       z     vdW  Elec       q    Type
REMARK                         _______ _______ _______ _____ _____    ______ ____
ROOT
ATOM      1  C   UNL     1       4.233   5.773  17.364  0.00  0.00    +0.000 A 
ATOM      2  N   UNL     1       3.664   6.950  17.699  0.00  0.00    +0.000 NA
ATOM      3  C   UNL     1       2.572   6.912  18.485  0.00  0.00    +0.000 A 
ATOM      4  N   UNL     1       1.986   5.789  18.925  0.00  0.00    +0.000 NA
ATOM      5  C   UNL     1       2.525   4.628  18.574  0.00  0.00    +0.000 A 
ATOM      6  C   UNL     1       1.905   3.473  19.034  0.00  0.00    +0.000 A 
ATOM      7  C   UNL     1       2.398   2.202  18.736  0.00  0.00    +0.000 A 
ATOM      8  C   UNL     1       3.526   2.082  17.941  0.00  0.00    +0.000 A 
ATOM      9  C   UNL     1       4.146   3.233  17.454  0.00  0.00    +0.000 A 
ATOM     10  C   UNL     1       3.669   4.534  17.778  0.00  0.00    +0.000 A 
ENDROOT
BRANCH   3  11
ATOM     11  C   UNL     1       1.980   8.177  18.950  0.00  0.00    +0.000 A 
ATOM     12  C   UNL     1       1.829   9.291  18.099  0.00  0.00    +0.000 A 
ATOM     13  C   UNL     1       1.244  10.471  18.553  0.00  0.00    +0.000 A 
ATOM     14  C   UNL     1       0.818  10.520  19.865  0.00  0.00    +0.000 A 
ATOM     15  N   UNL     1       0.942   9.490  20.729  0.00  0.00    +0.000 NA
ATOM     16  C   UNL     1       1.519   8.354  20.252  0.00  0.00    +0.000 A 
ENDBRANCH   3  11
BRANCH   1  17
ATOM     17  N   UNL     1       5.425   5.799  16.593  0.00  0.00    +0.000 N 
BRANCH  17  18
ATOM     18  C   UNL     1       5.239   5.826  15.121  0.00  0.00    +0.000 C 
BRANCH  18  19
ATOM     19  C   UNL     1       5.810   4.567  14.461  0.00  0.00    +0.000 C 
BRANCH  19  20
ATOM     20  C   UNL     1       7.101   4.812  13.714  0.00  0.00    +0.000 C 
ATOM     21  O   UNL     1       8.044   5.485  14.096  0.00  0.00    +0.000 OA
BRANCH  20  23
ATOM     22  C   UNL     1       5.887   3.313  12.329  0.00  0.00    +0.000 C 
ATOM     23  O   UNL     1       7.047   4.125  12.532  0.00  0.00    +0.000 OA
ENDBRANCH  20  23
ENDBRANCH  19  20
ENDBRANCH  18  19
ENDBRANCH  17  18
BRANCH  17  24
ATOM     24  C   UNL     1       6.519   6.571  17.225  0.00  0.00    +0.000 C 
BRANCH  24  25
ATOM     25  C   UNL     1       7.512   5.794  18.107  0.00  0.00    +0.000 C 
ATOM     26  C   UNL     1       7.029   5.600  19.542  0.00  0.00    +0.000 C 
ATOM     27  C   UNL     1       7.777   4.417  17.477  0.00  0.00    +0.000 C 
ENDBRANCH  24  25
ENDBRANCH  17  24
ENDBRANCH   1  17
TORSDOF 8
ENDMDL
MODEL 3
REMARK VINA RESULT:      -7.4      1.089      1.500
REMARK  Name = 
REMARK  11 active torsions:
REMARK  status: ('A' for Active; 'I' for Inactive)
REMARK    1  A    between atoms: C_1  and  O_2
REMARK    2  A    between atoms: O_2  and  C_3
REMARK    3  A    between atoms: C_3  and  C_5
REMARK    4  A    between atoms: C_5  and  C_6
REMARK    5  A    between atoms: C_6  and  N_7
REMARK    6  A    between atoms: N_7  and  C_8
REMARK    7  A    between atoms: N_7  and  C_12
REMARK    8  A    between atoms: C_8  and  C_9
REMARK    9  A    between atoms: C_9  and  C_10
REMARK   10  A    between atoms: C_9  and  C_11
REMARK   11  A    between atoms: C_14  and  C_15
REMARK                            x       y       z     vdW  Elec       q    Type
REMARK                         _______ _______ _______ _____ _____    ______ ____
ROOT
ATOM      1  C   UNL     1       4.134   4.894  18.362  0.00  0.00    +0.000 A 
ATOM      2  N   UNL     1       3.625   6.126  18.147  0.00  0.00    +0.000 NA
ATOM      3  C   UNL     1       2.697   6.576  19.011  0.00  0.00    +0.000 A 
ATOM      4  N   UNL     1       2.212   5.874  20.045  0.00  0.00    +0.000 NA
ATOM      5  C   UNL     1       2.688   4.651  20.244  0.00  0.00    +0.000 A 
ATOM      6  C   UNL     1       2.173   3.934  21.318  0.00  0.00    +0.000 A 
ATOM      7  C   UNL     1       2.615   2.646  21.624  0.00  0.00    +0.000 A 
ATOM      8  C   UNL     1       3.579   2.052  20.826  0.00  0.00    +0.000 A 
ATOM      9  C   UNL     1       4.088   2.752  19.733  0.00  0.00    +0.000 A 
ATOM     10  C   UNL     1       3.667   4.078  19.430  0.00  0.00    +0.000 A 
ENDROOT
BRANCH   3  11
ATOM     11  C   UNL     1       2.189   7.950  18.865  0.00  0.00    +0.000 A 
ATOM     12  C   UNL     1       1.440   8.584  19.878  0.00  0.00    +0.000 A 
ATOM     13  C   UNL     1       0.990   9.893  19.729  0.00  0.00    +0.000 A 
ATOM     14  C   UNL     1       1.294  10.554  18.556  0.00  0.00    +0.000 A 
ATOM     15  N   UNL     1       2.000   9.998  17.548  0.00  0.00    +0.000 NA
ATOM     16  C   UNL     1       2.424   8.718  17.727  0.00  0.00    +0.000 A 
ENDBRANCH   3  11
BRANCH   1  17
ATOM     17  N   UNL     1       5.164   4.434  17.501  0.00  0.00    +0.000 N 
BRANCH  17  18
ATOM     18  C   UNL     1       4.930   4.643  16.050  0.00  0.00    +0.000 C 
BRANCH  18  19
ATOM     19  C   UNL     1       5.808   3.718  15.201  0.00  0.00    +0.000 C 
BRANCH  19  20
ATOM     20  C   UNL     1       6.712   4.458  14.242  0.00  0.00    +0.000 C 
ATOM     21  O   UNL     1       7.552   5.292  14.535  0.00  0.00    +0.000 OA
BRANCH  20  23
ATOM     22  C   UNL     1       7.343   4.454  11.953  0.00  0.00    +0.000 C 
ATOM     23  O   UNL     1       6.445   4.014  12.976  0.00  0.00    +0.000 OA
ENDBRANCH  20  23
ENDBRANCH  19  20
ENDBRANCH  18  19
ENDBRANCH  17  18
BRANCH  17  24
ATOM     24  C   UNL     1       6.521   4.583  18.072  0.00  0.00    +0.000 C 
BRANCH  24  25
ATOM     25  C   UNL     1       6.878   5.946  18.691  0.00  0.00    +0.000 C 
ATOM     26  C   UNL     1       8.013   5.873  19.709  0.00  0.00    +0.000 C 
ATOM     27  C   UNL     1       7.269   6.923  17.572  0.00  0.00    +0.000 C 
ENDBRANCH  24  25
ENDBRANCH  17  24
ENDBRANCH   1  17
TORSDOF 8
ENDMDL
MODEL 4
REMARK VINA RESULT:      -7.3      1.168      1.473
REMARK  Name = 
REMARK  11 active torsions:
REMARK  status: ('A' for Active; 'I' for Inactive)
REMARK    1  A    between atoms: C_1  and  O_2
REMARK    2  A    between atoms: O_2  and  C_3
REMARK    3  A    between atoms: C_3  and  C_5
REMARK    4  A    between atoms: C_5  and  C_6
REMARK    5  A    between atoms: C_6  and  N_7
REMARK    6  A    between atoms: N_7  and  C_8
REMARK    7  A    between atoms: N_7  and  C_12
REMARK    8  A    between atoms: C_8  and  C_9
REMARK    9  A    between atoms: C_9  and  C_10
REMARK   10  A    between atoms: C_9  and  C_11
REMARK   11  A    between atoms: C_14  and  C_15
REMARK                            x       y       z     vdW  Elec       q    Type
REMARK                         _______ _______ _______ _____ _____    ______ ____
ROOT
ATOM      1  C   UNL     1       4.201   5.694  17.651  0.00  0.00    +0.000 A 
ATOM      2  N   UNL     1       3.609   6.835  18.064  0.00  0.00    +0.000 NA
ATOM      3  C   UNL     1       2.516   6.723  18.841  0.00  0.00    +0.000 A 
ATOM      4  N   UNL     1       1.948   5.562  19.199  0.00  0.00    +0.000 NA
ATOM      5  C   UNL     1       2.509   4.438  18.770  0.00  0.00    +0.000 A 
ATOM      6  C   UNL     1       1.908   3.243  19.146  0.00  0.00    +0.000 A 
ATOM      7  C   UNL     1       2.425   2.004  18.763  0.00  0.00    +0.000 A 
ATOM      8  C   UNL     1       3.558   1.960  17.967  0.00  0.00    +0.000 A 
ATOM      9  C   UNL     1       4.159   3.152  17.565  0.00  0.00    +0.000 A 
ATOM     10  C   UNL     1       3.658   4.420  17.976  0.00  0.00    +0.000 A 
ENDROOT
BRANCH   3  11
ATOM     11  C   UNL     1       1.899   7.942  19.389  0.00  0.00    +0.000 A 
ATOM     12  C   UNL     1       1.508   8.041  20.740  0.00  0.00    +0.000 A 
ATOM     13  C   UNL     1       0.949   9.213  21.245  0.00  0.00    +0.000 A 
ATOM     14  C   UNL     1       0.784  10.277  20.381  0.00  0.00    +0.000 A 
ATOM     15  N   UNL     1       1.132  10.240  19.077  0.00  0.00    +0.000 NA
ATOM     16  C   UNL     1       1.675   9.080  18.618  0.00  0.00    +0.000 A 
ENDBRANCH   3  11
BRANCH   1  17
ATOM     17  N   UNL     1       5.395   5.795  16.890  0.00  0.00    +0.000 N 
BRANCH  17  18
ATOM     18  C   UNL     1       5.363   5.145  15.555  0.00  0.00    +0.000 C 
BRANCH  18  19
ATOM     19  C   UNL     1       6.774   4.813  15.060  0.00  0.00    +0.000 C 
BRANCH  19  20
ATOM     20  C   UNL     1       6.844   4.544  13.575  0.00  0.00    +0.000 C 
ATOM     21  O   UNL     1       7.684   4.971  12.799  0.00  0.00    +0.000 OA
BRANCH  20  23
ATOM     22  C   UNL     1       5.929   3.032  11.989  0.00  0.00    +0.000 C 
ATOM     23  O   UNL     1       5.811   3.711  13.242  0.00  0.00    +0.000 OA
ENDBRANCH  20  23
ENDBRANCH  19  20
ENDBRANCH  18  19
ENDBRANCH  17  18
BRANCH  17  24
ATOM     24  C   UNL     1       6.112   7.075  17.084  0.00  0.00    +0.000 C 
BRANCH  24  25
ATOM     25  C   UNL     1       7.567   6.999  17.577  0.00  0.00    +0.000 C 
ATOM     26  C   UNL     1       8.151   8.355  17.964  0.00  0.00    +0.000 C 
ATOM     27  C   UNL     1       7.642   6.056  18.788  0.00  0.00    +0.000 C 
ENDBRANCH  24  25
ENDBRANCH  17  24
ENDBRANCH   1  17
TORSDOF 8
ENDMDL
MODEL 5
REMARK VINA RESULT:      -7.2      0.864      1.483
REMARK  Name = 
REMARK  11 active torsions:
REMARK  status: ('A' for Active; 'I' for Inactive)
REMARK    1  A    between atoms: C_1  and  O_2
REMARK    2  A    between atoms: O_2  and  C_3
REMARK    3  A    between atoms: C_3  and  C_5
REMARK    4  A    between atoms: C_5  and  C_6
REMARK    5  A    between atoms: C_6  and  N_7
REMARK    6  A    between atoms: N_7  and  C_8
REMARK    7  A    between atoms: N_7  and  C_12
REMARK    8  A    between atoms: C_8  and  C_9
REMARK    9  A    between atoms: C_9  and  C_10
REMARK   10  A    between atoms: C_9  and  C_11
REMARK   11  A    between atoms: C_14  and  C_15
REMARK                            x       y       z     vdW  Elec       q    Type
REMARK                         _______ _______ _______ _____ _____    ______ ____
ROOT
ATOM      1  C   UNL     1       3.852   5.699  18.621  0.00  0.00    +0.000 A 
ATOM      2  N   UNL     1       3.203   6.882  18.643  0.00  0.00    +0.000 NA
ATOM      3  C   UNL     1       2.235   7.044  19.564  0.00  0.00    +0.000 A 
ATOM      4  N   UNL     1       1.842   6.102  20.433  0.00  0.00    +0.000 NA
ATOM      5  C   UNL     1       2.457   4.926  20.396  0.00  0.00    +0.000 A 
ATOM      6  C   UNL     1       2.037   3.959  21.301  0.00  0.00    +0.000 A 
ATOM      7  C   UNL     1       2.626   2.695  21.357  0.00  0.00    +0.000 A 
ATOM      8  C   UNL     1       3.647   2.384  20.473  0.00  0.00    +0.000 A 
ATOM      9  C   UNL     1       4.064   3.339  19.546  0.00  0.00    +0.000 A 
ATOM     10  C   UNL     1       3.491   4.641  19.501  0.00  0.00    +0.000 A 
ENDROOT
BRANCH   3  11
ATOM     11  C   UNL     1       1.570   8.352  19.681  0.00  0.00    +0.000 A 
ATOM     12  C   UNL     1       0.978   8.787  20.884  0.00  0.00    +0.000 A 
ATOM     13  C   UNL     1       0.375  10.039  20.981  0.00  0.00    +0.000 A 
ATOM     14  C   UNL     1       0.371  10.844  19.859  0.00  0.00    +0.000 A 
ATOM     15  N   UNL     1       0.914  10.481  18.678  0.00  0.00    +0.000 NA
ATOM     16  C   UNL     1       1.494   9.251  18.620  0.00  0.00    +0.000 A 
ENDBRANCH   3  11
BRANCH   1  17
ATOM     17  N   UNL     1       4.923   5.537  17.703  0.00  0.00    +0.000 N 
BRANCH  17  18
ATOM     18  C   UNL     1       4.544   5.044  16.355  0.00  0.00    +0.000 C 
BRANCH  18  19
ATOM     19  C   UNL     1       5.424   5.662  15.265  0.00  0.00    +0.000 C 
BRANCH  19  20
ATOM     20  C   UNL     1       6.406   4.686  14.657  0.00  0.00    +0.000 C 
ATOM     21  O   UNL     1       6.197   3.511  14.403  0.00  0.00    +0.000 OA
BRANCH  20  23
ATOM     22  C   UNL     1       8.010   5.384  13.052  0.00  0.00    +0.000 C 
ATOM     23  O   UNL     1       7.575   5.352  14.414  0.00  0.00    +0.000 OA
ENDBRANCH  20  23
ENDBRANCH  19  20
ENDBRANCH  18  19
ENDBRANCH  17  18
BRANCH  17  24
ATOM     24  C   UNL     1       5.992   6.549  17.860  0.00  0.00    +0.000 C 
BRANCH  24  25
ATOM     25  C   UNL     1       7.255   6.126  18.630  0.00  0.00    +0.000 C 
ATOM     26  C   UNL     1       7.876   4.830  18.116  0.00  0.00    +0.000 C 
ATOM     27  C   UNL     1       8.298   7.251  18.547  0.00  0.00    +0.000 C 
ENDBRANCH  24  25
ENDBRANCH  17  24
ENDBRANCH   1  17
TORSDOF 8
ENDMDL
MODEL 6
REMARK VINA RESULT:      -7.2      1.361      1.687
REMARK  Name = 
REMARK  11 active torsions:
REMARK  status: ('A' for Active; 'I' for Inactive)
REMARK    1  A    between atoms: C_1  and  O_2
REMARK    2  A    between atoms: O_2  and  C_3
REMARK    3  A    between atoms: C_3  and  C_5
REMARK    4  A    between atoms: C_5  and  C_6
REMARK    5  A    between atoms: C_6  and  N_7
REMARK    6  A    between atoms: N_7  and  C_8
REMARK    7  A    between atoms: N_7  and  C_12
REMARK    8  A    between atoms: C_8  and  C_9
REMARK    9  A    between atoms: C_9  and  C_10
REMARK   10  A    between atoms: C_9  and  C_11
REMARK   11  A    between atoms: C_14  and  C_15
REMARK                            x       y       z     vdW  Elec       q    Type
REMARK                         _______ _______ _______ _____ _____    ______ ____
ROOT
ATOM      1  C   UNL     1       4.393   5.159  17.557  0.00  0.00    +0.000 A 
ATOM      2  N   UNL     1       3.898   6.409  17.674  0.00  0.00    +0.000 NA
ATOM      3  C   UNL     1       2.704   6.551  18.278  0.00  0.00    +0.000 A 
ATOM      4  N   UNL     1       1.952   5.539  18.734  0.00  0.00    +0.000 NA
ATOM      5  C   UNL     1       2.421   4.305  18.594  0.00  0.00    +0.000 A 
ATOM      6  C   UNL     1       1.630   3.265  19.068  0.00  0.00    +0.000 A 
ATOM      7  C   UNL     1       2.035   1.932  18.985  0.00  0.00    +0.000 A 
ATOM      8  C   UNL     1       3.251   1.630  18.395  0.00  0.00    +0.000 A 
ATOM      9  C   UNL     1       4.046   2.661  17.896  0.00  0.00    +0.000 A 
ATOM     10  C   UNL     1       3.656   4.027  18.004  0.00  0.00    +0.000 A 
ENDROOT
BRANCH   3  11
ATOM     11  C   UNL     1       2.175   7.906  18.509  0.00  0.00    +0.000 A 
ATOM     12  C   UNL     1       1.488   8.250  19.691  0.00  0.00    +0.000 A 
ATOM     13  C   UNL     1       1.018   9.544  19.901  0.00  0.00    +0.000 A 
ATOM     14  C   UNL     1       1.241  10.483  18.913  0.00  0.00    +0.000 A 
ATOM     15  N   UNL     1       1.885  10.212  17.758  0.00  0.00    +0.000 NA
ATOM     16  C   UNL     1       2.330   8.937  17.587  0.00  0.00    +0.000 A 
ENDBRANCH   3  11
BRANCH   1  17
ATOM     17  N   UNL     1       5.683   4.998  16.987  0.00  0.00    +0.000 N 
BRANCH  17  18
ATOM     18  C   UNL     1       5.787   3.984  15.908  0.00  0.00    +0.000 C 
BRANCH  18  19
ATOM     19  C   UNL     1       5.626   4.619  14.524  0.00  0.00    +0.000 C 
BRANCH  19  20
ATOM     20  C   UNL     1       6.928   4.756  13.767  0.00  0.00    +0.000 C 
ATOM     21  O   UNL     1       7.918   5.368  14.133  0.00  0.00    +0.000 OA
BRANCH  20  23
ATOM     22  C   UNL     1       5.603   3.322  12.416  0.00  0.00    +0.000 C 
ATOM     23  O   UNL     1       6.820   4.051  12.601  0.00  0.00    +0.000 OA
ENDBRANCH  20  23
ENDBRANCH  19  20
ENDBRANCH  18  19
ENDBRANCH  17  18
BRANCH  17  24
ATOM     24  C   UNL     1       6.454   6.259  16.908  0.00  0.00    +0.000 C 
BRANCH  24  25
ATOM     25  C   UNL     1       7.115   6.762  18.204  0.00  0.00    +0.000 C 
ATOM     26  C   UNL     1       7.935   5.695  18.923  0.00  0.00    +0.000 C 
ATOM     27  C   UNL     1       8.024   7.957  17.876  0.00  0.00    +0.000 C 
ENDBRANCH  24  25
ENDBRANCH  17  24
ENDBRANCH   1  17
TORSDOF 8
ENDMDL
MODEL 7
REMARK VINA RESULT:      -7.1      1.019      1.232
REMARK  Name = 
REMARK  11 active torsions:
REMARK  status: ('A' for Active; 'I' for Inactive)
REMARK    1  A    between atoms: C_1  and  O_2
REMARK    2  A    between atoms: O_2  and  C_3
REMARK    3  A    between atoms: C_3  and  C_5
REMARK    4  A    between atoms: C_5  and  C_6
REMARK    5  A    between atoms: C_6  and  N_7
REMARK    6  A    between atoms: N_7  and  C_8
REMARK    7  A    between atoms: N_7  and  C_12
REMARK    8  A    between atoms: C_8  and  C_9
REMARK    9  A    between atoms: C_9  and  C_10
REMARK   10  A    between atoms: C_9  and  C_11
REMARK   11  A    between atoms: C_14  and  C_15
REMARK                            x       y       z     vdW  Elec       q    Type
REMARK                         _______ _______ _______ _____ _____    ______ ____
ROOT
ATOM      1  C   UNL     1       4.160   5.376  17.940  0.00  0.00    +0.000 A 
ATOM      2  N   UNL     1       3.662   6.619  18.115  0.00  0.00    +0.000 NA
ATOM      3  C   UNL     1       2.505   6.735  18.792  0.00  0.00    +0.000 A 
ATOM      4  N   UNL     1       1.791   5.706  19.269  0.00  0.00    +0.000 NA
ATOM      5  C   UNL     1       2.261   4.480  19.074  0.00  0.00    +0.000 A 
ATOM      6  C   UNL     1       1.509   3.422  19.570  0.00  0.00    +0.000 A 
ATOM      7  C   UNL     1       1.920   2.096  19.433  0.00  0.00    +0.000 A 
ATOM      8  C   UNL     1       3.101   1.818  18.764  0.00  0.00    +0.000 A 
ATOM      9  C   UNL     1       3.856   2.869  18.242  0.00  0.00    +0.000 A 
ATOM     10  C   UNL     1       3.461   4.227  18.404  0.00  0.00    +0.000 A 
ENDROOT
BRANCH   3  11
ATOM     11  C   UNL     1       1.980   8.079  19.086  0.00  0.00    +0.000 A 
ATOM     12  C   UNL     1       1.934   9.096  18.110  0.00  0.00    +0.000 A 
ATOM     13  C   UNL     1       1.411  10.353  18.401  0.00  0.00    +0.000 A 
ATOM     14  C   UNL     1       0.940  10.578  19.680  0.00  0.00    +0.000 A 
ATOM     15  N   UNL     1       0.965   9.648  20.658  0.00  0.00    +0.000 NA
ATOM     16  C   UNL     1       1.483   8.432  20.338  0.00  0.00    +0.000 A 
ENDBRANCH   3  11
BRANCH   1  17
ATOM     17  N   UNL     1       5.415   5.241  17.290  0.00  0.00    +0.000 N 
BRANCH  17  18
ATOM     18  C   UNL     1       5.512   4.136  16.303  0.00  0.00    +0.000 C 
BRANCH  18  19
ATOM     19  C   UNL     1       6.859   4.152  15.575  0.00  0.00    +0.000 C 
BRANCH  19  20
ATOM     20  C   UNL     1       6.746   4.476  14.103  0.00  0.00    +0.000 C 
ATOM     21  O   UNL     1       6.068   3.882  13.281  0.00  0.00    +0.000 OA
BRANCH  20  23
ATOM     22  C   UNL     1       8.183   5.593  12.580  0.00  0.00    +0.000 C 
ATOM     23  O   UNL     1       7.520   5.573  13.847  0.00  0.00    +0.000 OA
ENDBRANCH  20  23
ENDBRANCH  19  20
ENDBRANCH  18  19
ENDBRANCH  17  18
BRANCH  17  24
ATOM     24  C   UNL     1       6.091   6.534  17.039  0.00  0.00    +0.000 C 
BRANCH  24  25
ATOM     25  C   UNL     1       7.513   6.706  17.601  0.00  0.00    +0.000 C 
ATOM     26  C   UNL     1       7.934   8.165  17.755  0.00  0.00    +0.000 C 
ATOM     27  C   UNL     1       7.603   6.011  18.969  0.00  0.00    +0.000 C 
ENDBRANCH  24  25
ENDBRANCH  17  24
ENDBRANCH   1  17
TORSDOF 8
ENDMDL
MODEL 8
REMARK VINA RESULT:      -7.1      1.964      3.304
REMARK  Name = 
REMARK  11 active torsions:
REMARK  status: ('A' for Active; 'I' for Inactive)
REMARK    1  A    between atoms: C_1  and  O_2
REMARK    2  A    between atoms: O_2  and  C_3
REMARK    3  A    between atoms: C_3  and  C_5
REMARK    4  A    between atoms: C_5  and  C_6
REMARK    5  A    between atoms: C_6  and  N_7
REMARK    6  A    between atoms: N_7  and  C_8
REMARK    7  A    between atoms: N_7  and  C_12
REMARK    8  A    between atoms: C_8  and  C_9
REMARK    9  A    between atoms: C_9  and  C_10
REMARK   10  A    between atoms: C_9  and  C_11
REMARK   11  A    between atoms: C_14  and  C_15
REMARK                            x       y       z     vdW  Elec       q    Type
REMARK                         _______ _______ _______ _____ _____    ______ ____
ROOT
ATOM      1  C   UNL     1       4.185   5.251  17.370  0.00  0.00    +0.000 A 
ATOM      2  N   UNL     1       3.729   6.499  17.609  0.00  0.00    +0.000 NA
ATOM      3  C   UNL     1       2.592   6.620  18.319  0.00  0.00    +0.000 A 
ATOM      4  N   UNL     1       1.860   5.593  18.771  0.00  0.00    +0.000 NA
ATOM      5  C   UNL     1       2.288   4.363  18.513  0.00  0.00    +0.000 A 
ATOM      6  C   UNL     1       1.517   3.307  18.984  0.00  0.00    +0.000 A 
ATOM      7  C   UNL     1       1.885   1.977  18.782  0.00  0.00    +0.000 A 
ATOM      8  C   UNL     1       3.041   1.694  18.073  0.00  0.00    +0.000 A 
ATOM      9  C   UNL     1       3.814   2.743  17.576  0.00  0.00    +0.000 A 
ATOM     10  C   UNL     1       3.464   4.104  17.804  0.00  0.00    +0.000 A 
ENDROOT
BRANCH   3  11
ATOM     11  C   UNL     1       2.115   7.965  18.681  0.00  0.00    +0.000 A 
ATOM     12  C   UNL     1       2.144   9.041  17.770  0.00  0.00    +0.000 A 
ATOM     13  C   UNL     1       1.664  10.300  18.124  0.00  0.00    +0.000 A 
ATOM     14  C   UNL     1       1.161  10.466  19.400  0.00  0.00    +0.000 A 
ATOM     15  N   UNL     1       1.114   9.477  20.317  0.00  0.00    +0.000 NA
ATOM     16  C   UNL     1       1.591   8.261  19.936  0.00  0.00    +0.000 A 
ENDBRANCH   3  11
BRANCH   1  17
ATOM     17  N   UNL     1       5.419   5.108  16.683  0.00  0.00    +0.000 N 
BRANCH  17  18
ATOM     18  C   UNL     1       6.394   4.172  17.300  0.00  0.00    +0.000 C 
BRANCH  18  19
ATOM     19  C   UNL     1       7.662   4.902  17.751  0.00  0.00    +0.000 C 
BRANCH  19  20
ATOM     20  C   UNL     1       7.462   5.752  18.985  0.00  0.00    +0.000 C 
ATOM     21  O   UNL     1       7.663   5.412  20.140  0.00  0.00    +0.000 OA
BRANCH  20  23
ATOM     22  C   UNL     1       7.827   7.635  17.586  0.00  0.00    +0.000 C 
ATOM     23  O   UNL     1       7.036   6.989  18.587  0.00  0.00    +0.000 OA
ENDBRANCH  20  23
ENDBRANCH  19  20
ENDBRANCH  18  19
ENDBRANCH  17  18
BRANCH  17  24
ATOM     24  C   UNL     1       5.288   5.192  15.211  0.00  0.00    +0.000 C 
BRANCH  24  25
ATOM     25  C   UNL     1       6.173   4.255  14.371  0.00  0.00    +0.000 C 
ATOM     26  C   UNL     1       5.451   3.650  13.170  0.00  0.00    +0.000 C 
ATOM     27  C   UNL     1       7.405   5.031  13.878  0.00  0.00    +0.000 C 
ENDBRANCH  24  25
ENDBRANCH  17  24
ENDBRANCH   1  17
TORSDOF 8
ENDMDL
MODEL 9
REMARK VINA RESULT:      -7.1      0.823      1.142
REMARK  Name = 
REMARK  11 active torsions:
REMARK  status: ('A' for Active; 'I' for Inactive)
REMARK    1  A    between atoms: C_1  and  O_2
REMARK    2  A    between atoms: O_2  and  C_3
REMARK    3  A    between atoms: C_3  and  C_5
REMARK    4  A    between atoms: C_5  and  C_6
REMARK    5  A    between atoms: C_6  and  N_7
REMARK    6  A    between atoms: N_7  and  C_8
REMARK    7  A    between atoms: N_7  and  C_12
REMARK    8  A    between atoms: C_8  and  C_9
REMARK    9  A    between atoms: C_9  and  C_10
REMARK   10  A    between atoms: C_9  and  C_11
REMARK   11  A    between atoms: C_14  and  C_15
REMARK                            x       y       z     vdW  Elec       q    Type
REMARK                         _______ _______ _______ _____ _____    ______ ____
ROOT
ATOM      1  C   UNL     1       4.289   4.825  18.189  0.00  0.00    +0.000 A 
ATOM      2  N   UNL     1       3.725   6.044  18.051  0.00  0.00    +0.000 NA
ATOM      3  C   UNL     1       2.838   6.428  18.987  0.00  0.00    +0.000 A 
ATOM      4  N   UNL     1       2.445   5.673  20.023  0.00  0.00    +0.000 NA
ATOM      5  C   UNL     1       2.975   4.462  20.147  0.00  0.00    +0.000 A 
ATOM      6  C   UNL     1       2.555   3.690  21.223  0.00  0.00    +0.000 A 
ATOM      7  C   UNL     1       3.060   2.409  21.453  0.00  0.00    +0.000 A 
ATOM      8  C   UNL     1       3.992   1.880  20.575  0.00  0.00    +0.000 A 
ATOM      9  C   UNL     1       4.406   2.636  19.479  0.00  0.00    +0.000 A 
ATOM     10  C   UNL     1       3.920   3.955  19.252  0.00  0.00    +0.000 A 
ENDROOT
BRANCH   3  11
ATOM     11  C   UNL     1       2.273   7.786  18.924  0.00  0.00    +0.000 A 
ATOM     12  C   UNL     1       2.419   8.606  17.786  0.00  0.00    +0.000 A 
ATOM     13  C   UNL     1       1.855   9.879  17.737  0.00  0.00    +0.000 A 
ATOM     14  C   UNL     1       1.151  10.318  18.841  0.00  0.00    +0.000 A 
ATOM     15  N   UNL     1       0.984   9.583  19.960  0.00  0.00    +0.000 NA
ATOM     16  C   UNL     1       1.548   8.345  19.973  0.00  0.00    +0.000 A 
ENDBRANCH   3  11
BRANCH   1  17
ATOM     17  N   UNL     1       5.278   4.434  17.249  0.00  0.00    +0.000 N 
BRANCH  17  18
ATOM     18  C   UNL     1       4.911   4.605  15.820  0.00  0.00    +0.000 C 
BRANCH  18  19
ATOM     19  C   UNL     1       5.888   5.538  15.099  0.00  0.00    +0.000 C 
BRANCH  19  20
ATOM     20  C   UNL     1       6.651   4.865  13.981  0.00  0.00    +0.000 C 
ATOM     21  O   UNL     1       7.724   5.219  13.520  0.00  0.00    +0.000 OA
BRANCH  20  23
ATOM     22  C   UNL     1       6.186   3.309  12.249  0.00  0.00    +0.000 C 
ATOM     23  O   UNL     1       5.944   3.764  13.583  0.00  0.00    +0.000 OA
ENDBRANCH  20  23
ENDBRANCH  19  20
ENDBRANCH  18  19
ENDBRANCH  17  18
BRANCH  17  24
ATOM     24  C   UNL     1       6.662   4.695  17.705  0.00  0.00    +0.000 C 
BRANCH  24  25
ATOM     25  C   UNL     1       6.887   5.925  18.602  0.00  0.00    +0.000 C 
ATOM     26  C   UNL     1       7.846   5.666  19.760  0.00  0.00    +0.000 C 
ATOM     27  C   UNL     1       7.431   7.081  17.748  0.00  0.00    +0.000 C 
ENDBRANCH  24  25
ENDBRANCH  17  24
ENDBRANCH   1  17
TORSDOF 8
ENDMDL
