MODEL 1
REMARK VINA RESULT:      -7.4      0.000      0.000
REMARK  Name = 
REMARK  2 active torsions:
REMARK  status: ('A' for Active; 'I' for Inactive)
REMARK    1  A    between atoms: C_1  and  C_2
REMARK    2  A    between atoms: C_13  and  C_14
REMARK                            x       y       z     vdW  Elec       q    Type
REMARK                         _______ _______ _______ _____ _____    ______ ____
ROOT
ATOM      1  C   UNL     1       5.633   5.864  14.373  0.00  0.00    +0.000 C 
ATOM      2  C   UNL     1       6.344   5.409  15.591  0.00  0.00    +0.000 A 
ATOM      3  N   UNL     1       7.485   4.749  15.574  0.00  0.00    +0.000 NA
ATOM      4  N   UNL     1       7.780   4.363  16.848  0.00  0.00    +0.000 NA
ATOM      5  C   UNL     1       6.812   4.787  17.629  0.00  0.00    +0.000 A 
ATOM      6  N   UNL     1       5.871   5.486  16.896  0.00  0.00    +0.000 N 
ATOM      7  C   UNL     1       4.753   6.111  17.460  0.00  0.00    +0.000 A 
ATOM      8  S   UNL     1       4.084   7.482  16.717  0.00  0.00    +0.000 S 
ATOM      9  C   UNL     1       2.985   7.692  17.983  0.00  0.00    +0.000 A 
ATOM     10  I   UNL     1       1.594   9.199  18.016  0.00  0.00    +0.000 I 
ATOM     11  C   UNL     1       3.104   6.737  18.960  0.00  0.00    +0.000 A 
ATOM     12  C   UNL     1       4.116   5.756  18.641  0.00  0.00    +0.000 A 
ATOM     13  C   UNL     1       4.362   4.509  19.389  0.00  0.00    +0.000 C 
ATOM     14  N   UNL     1       5.537   4.011  19.546  0.00  0.00    +0.000 NA
ATOM     15  C   UNL     1       6.743   4.695  19.104  0.00  0.00    +0.000 C 
ENDROOT
BRANCH  13  16
ATOM     16  C   UNL     1       3.173   3.750  19.910  0.00  0.00    +0.000 A 
ATOM     17  C   UNL     1       2.891   3.795  21.291  0.00  0.00    +0.000 A 
ATOM     18  C   UNL     1       1.789   3.124  21.826  0.00  0.00    +0.000 A 
ATOM     19  C   UNL     1       0.925   2.432  20.986  0.00  0.00    +0.000 A 
ATOM     20  C   UNL     1       1.173   2.398  19.615  0.00  0.00    +0.000 A 
ATOM     21  C   UNL     1       2.295   3.041  19.071  0.00  0.00    +0.000 A 
ATOM     22 CL   UNL     1       2.532   2.838  17.370  0.00  0.00    +0.000 Cl
ENDBRANCH  13  16
TORSDOF 1
ENDMDL
MODEL 2
REMARK VINA RESULT:      -7.0      2.663      5.515
REMARK  Name = 
REMARK  2 active torsions:
REMARK  status: ('A' for Active; 'I' for Inactive)
REMARK    1  A    between atoms: C_1  and  C_2
REMARK    2  A    between atoms: C_13  and  C_14
REMARK                            x       y       z     vdW  Elec       q    Type
REMARK                         _______ _______ _______ _____ _____    ______ ____
ROOT
ATOM      1  C   UNL     1       1.380   2.678  21.860  0.00  0.00    +0.000 C 
ATOM      2  C   UNL     1       1.663   2.467  20.421  0.00  0.00    +0.000 A 
ATOM      3  N   UNL     1       1.651   1.288  19.833  0.00  0.00    +0.000 NA
ATOM      4  N   UNL     1       2.093   1.439  18.552  0.00  0.00    +0.000 NA
ATOM      5  C   UNL     1       2.375   2.710  18.374  0.00  0.00    +0.000 A 
ATOM      6  N   UNL     1       2.100   3.432  19.520  0.00  0.00    +0.000 N 
ATOM      7  C   UNL     1       2.242   4.821  19.618  0.00  0.00    +0.000 A 
ATOM      8  S   UNL     1       1.264   5.699  20.690  0.00  0.00    +0.000 S 
ATOM      9  C   UNL     1       1.891   7.167  20.137  0.00  0.00    +0.000 A 
ATOM     10  I   UNL     1       1.314   8.985  20.894  0.00  0.00    +0.000 I 
ATOM     11  C   UNL     1       2.840   7.010  19.159  0.00  0.00    +0.000 A 
ATOM     12  C   UNL     1       3.101   5.618  18.873  0.00  0.00    +0.000 A 
ATOM     13  C   UNL     1       4.186   5.112  18.013  0.00  0.00    +0.000 C 
ATOM     14  N   UNL     1       4.057   4.071  17.268  0.00  0.00    +0.000 NA
ATOM     15  C   UNL     1       2.792   3.369  17.116  0.00  0.00    +0.000 C 
ENDROOT
BRANCH  13  16
ATOM     16  C   UNL     1       5.523   5.797  18.082  0.00  0.00    +0.000 A 
ATOM     17  C   UNL     1       6.390   5.488  19.151  0.00  0.00    +0.000 A 
ATOM     18  C   UNL     1       7.650   6.080  19.254  0.00  0.00    +0.000 A 
ATOM     19  C   UNL     1       8.085   6.960  18.270  0.00  0.00    +0.000 A 
ATOM     20  C   UNL     1       7.252   7.258  17.192  0.00  0.00    +0.000 A 
ATOM     21  C   UNL     1       5.972   6.693  17.096  0.00  0.00    +0.000 A 
ATOM     22 CL   UNL     1       5.011   7.223  15.759  0.00  0.00    +0.000 Cl
ENDBRANCH  13  16
TORSDOF 1
ENDMDL
MODEL 3
REMARK VINA RESULT:      -6.4      3.376      5.605
REMARK  Name = 
REMARK  2 active torsions:
REMARK  status: ('A' for Active; 'I' for Inactive)
REMARK    1  A    between atoms: C_1  and  C_2
REMARK    2  A    between atoms: C_13  and  C_14
REMARK                            x       y       z     vdW  Elec       q    Type
REMARK                         _______ _______ _______ _____ _____    ______ ____
ROOT
ATOM      1  C   UNL     1       2.774   2.043  17.076  0.00  0.00    +0.000 C 
ATOM      2  C   UNL     1       2.330   2.429  18.436  0.00  0.00    +0.000 A 
ATOM      3  N   UNL     1       1.451   1.750  19.144  0.00  0.00    +0.000 NA
ATOM      4  N   UNL     1       1.167   2.457  20.275  0.00  0.00    +0.000 NA
ATOM      5  C   UNL     1       1.873   3.566  20.241  0.00  0.00    +0.000 A 
ATOM      6  N   UNL     1       2.659   3.603  19.105  0.00  0.00    +0.000 N 
ATOM      7  C   UNL     1       3.565   4.631  18.819  0.00  0.00    +0.000 A 
ATOM      8  S   UNL     1       4.946   4.308  17.888  0.00  0.00    +0.000 S 
ATOM      9  C   UNL     1       5.529   5.877  18.121  0.00  0.00    +0.000 A 
ATOM     10  I   UNL     1       7.285   6.549  17.300  0.00  0.00    +0.000 I 
ATOM     11  C   UNL     1       4.694   6.651  18.884  0.00  0.00    +0.000 A 
ATOM     12  C   UNL     1       3.493   5.943  19.266  0.00  0.00    +0.000 A 
ATOM     13  C   UNL     1       2.320   6.545  19.926  0.00  0.00    +0.000 C 
ATOM     14  N   UNL     1       1.612   5.916  20.796  0.00  0.00    +0.000 NA
ATOM     15  C   UNL     1       1.973   4.598  21.296  0.00  0.00    +0.000 C 
ENDROOT
BRANCH  13  16
ATOM     16  C   UNL     1       1.892   7.920  19.494  0.00  0.00    +0.000 A 
ATOM     17  C   UNL     1       1.998   8.267  18.131  0.00  0.00    +0.000 A 
ATOM     18  C   UNL     1       1.597   9.523  17.671  0.00  0.00    +0.000 A 
ATOM     19  C   UNL     1       1.044  10.440  18.556  0.00  0.00    +0.000 A 
ATOM     20  C   UNL     1       0.907  10.106  19.903  0.00  0.00    +0.000 A 
ATOM     21  C   UNL     1       1.337   8.859  20.381  0.00  0.00    +0.000 A 
ATOM     22 CL   UNL     1       1.195   8.614  22.087  0.00  0.00    +0.000 Cl
ENDBRANCH  13  16
TORSDOF 1
ENDMDL
MODEL 4
REMARK VINA RESULT:      -6.2      7.165      9.387
REMARK  Name = 
REMARK  2 active torsions:
REMARK  status: ('A' for Active; 'I' for Inactive)
REMARK    1  A    between atoms: C_1  and  C_2
REMARK    2  A    between atoms: C_13  and  C_14
REMARK                            x       y       z     vdW  Elec       q    Type
REMARK                         _______ _______ _______ _____ _____    ______ ____
ROOT
ATOM      1  C   UNL     1      -3.578  13.393  21.387  0.00  0.00    +0.000 C 
ATOM      2  C   UNL     1      -3.636  12.718  20.070  0.00  0.00    +0.000 A 
ATOM      3  N   UNL     1      -4.749  12.288  19.511  0.00  0.00    +0.000 NA
ATOM      4  N   UNL     1      -4.425  11.593  18.383  0.00  0.00    +0.000 NA
ATOM      5  C   UNL     1      -3.116  11.601  18.269  0.00  0.00    +0.000 A 
ATOM      6  N   UNL     1      -2.546  12.324  19.300  0.00  0.00    +0.000 N 
ATOM      7  C   UNL     1      -1.172  12.562  19.417  0.00  0.00    +0.000 A 
ATOM      8  S   UNL     1      -0.619  13.964  20.195  0.00  0.00    +0.000 S 
ATOM      9  C   UNL     1       0.986  13.606  19.805  0.00  0.00    +0.000 A 
ATOM     10  I   UNL     1       2.565  14.788  20.371  0.00  0.00    +0.000 I 
ATOM     11  C   UNL     1       1.118  12.436  19.103  0.00  0.00    +0.000 A 
ATOM     12  C   UNL     1      -0.151  11.772  18.907  0.00  0.00    +0.000 A 
ATOM     13  C   UNL     1      -0.329  10.416  18.356  0.00  0.00    +0.000 C 
ATOM     14  N   UNL     1      -1.329  10.092  17.614  0.00  0.00    +0.000 NA
ATOM     15  C   UNL     1      -2.309  11.063  17.152  0.00  0.00    +0.000 C 
ENDROOT
BRANCH  13  16
ATOM     16  C   UNL     1       0.656   9.354  18.757  0.00  0.00    +0.000 A 
ATOM     17  C   UNL     1       1.557   8.863  17.788  0.00  0.00    +0.000 A 
ATOM     18  C   UNL     1       2.506   7.891  18.110  0.00  0.00    +0.000 A 
ATOM     19  C   UNL     1       2.601   7.421  19.415  0.00  0.00    +0.000 A 
ATOM     20  C   UNL     1       1.737   7.913  20.391  0.00  0.00    +0.000 A 
ATOM     21  C   UNL     1       0.758   8.866  20.071  0.00  0.00    +0.000 A 
ATOM     22 CL   UNL     1      -0.306   9.318  21.358  0.00  0.00    +0.000 Cl
ENDBRANCH  13  16
TORSDOF 1
ENDMDL
MODEL 5
REMARK VINA RESULT:      -6.2     10.181     11.685
REMARK  Name = 
REMARK  2 active torsions:
REMARK  status: ('A' for Active; 'I' for Inactive)
REMARK    1  A    between atoms: C_1  and  C_2
REMARK    2  A    between atoms: C_13  and  C_14
REMARK                            x       y       z     vdW  Elec       q    Type
REMARK                         _______ _______ _______ _____ _____    ______ ____
ROOT
ATOM      1  C   UNL     1       3.980  15.483  19.786  0.00  0.00    +0.000 C 
ATOM      2  C   UNL     1       5.202  16.311  19.654  0.00  0.00    +0.000 A 
ATOM      3  N   UNL     1       5.263  17.428  18.958  0.00  0.00    +0.000 NA
ATOM      4  N   UNL     1       6.559  17.849  18.931  0.00  0.00    +0.000 NA
ATOM      5  C   UNL     1       7.277  16.980  19.606  0.00  0.00    +0.000 A 
ATOM      6  N   UNL     1       6.470  15.982  20.119  0.00  0.00    +0.000 N 
ATOM      7  C   UNL     1       6.938  14.945  20.934  0.00  0.00    +0.000 A 
ATOM      8  S   UNL     1       5.905  14.231  22.074  0.00  0.00    +0.000 S 
ATOM      9  C   UNL     1       7.158  13.279  22.688  0.00  0.00    +0.000 A 
ATOM     10  I   UNL     1       6.896  11.933  24.214  0.00  0.00    +0.000 I 
ATOM     11  C   UNL     1       8.350  13.481  22.040  0.00  0.00    +0.000 A 
ATOM     12  C   UNL     1       8.228  14.430  20.958  0.00  0.00    +0.000 A 
ATOM     13  C   UNL     1       9.271  14.727  19.959  0.00  0.00    +0.000 C 
ATOM     14  N   UNL     1       9.449  15.901  19.465  0.00  0.00    +0.000 NA
ATOM     15  C   UNL     1       8.718  17.068  19.935  0.00  0.00    +0.000 C 
ENDROOT
BRANCH  13  16
ATOM     16  C   UNL     1      10.099  13.584  19.439  0.00  0.00    +0.000 A 
ATOM     17  C   UNL     1      11.352  13.328  20.033  0.00  0.00    +0.000 A 
ATOM     18  C   UNL     1      12.153  12.269  19.603  0.00  0.00    +0.000 A 
ATOM     19  C   UNL     1      11.699  11.419  18.601  0.00  0.00    +0.000 A 
ATOM     20  C   UNL     1      10.451  11.641  18.020  0.00  0.00    +0.000 A 
ATOM     21  C   UNL     1       9.653  12.722  18.422  0.00  0.00    +0.000 A 
ATOM     22 CL   UNL     1       8.172  12.933  17.553  0.00  0.00    +0.000 Cl
ENDBRANCH  13  16
TORSDOF 1
ENDMDL
MODEL 6
REMARK VINA RESULT:      -6.1      2.647      5.550
REMARK  Name = 
REMARK  2 active torsions:
REMARK  status: ('A' for Active; 'I' for Inactive)
REMARK    1  A    between atoms: C_1  and  C_2
REMARK    2  A    between atoms: C_13  and  C_14
REMARK                            x       y       z     vdW  Elec       q    Type
REMARK                         _______ _______ _______ _____ _____    ______ ____
ROOT
ATOM      1  C   UNL     1       1.509   2.668  21.568  0.00  0.00    +0.000 C 
ATOM      2  C   UNL     1       1.746   2.550  20.110  0.00  0.00    +0.000 A 
ATOM      3  N   UNL     1       1.725   1.410  19.450  0.00  0.00    +0.000 NA
ATOM      4  N   UNL     1       2.124   1.645  18.168  0.00  0.00    +0.000 NA
ATOM      5  C   UNL     1       2.390   2.927  18.060  0.00  0.00    +0.000 A 
ATOM      6  N   UNL     1       2.147   3.573  19.258  0.00  0.00    +0.000 N 
ATOM      7  C   UNL     1       2.281   4.955  19.437  0.00  0.00    +0.000 A 
ATOM      8  S   UNL     1       1.330   5.754  20.593  0.00  0.00    +0.000 S 
ATOM      9  C   UNL     1       1.927   7.260  20.113  0.00  0.00    +0.000 A 
ATOM     10  I   UNL     1       1.361   9.021  21.001  0.00  0.00    +0.000 I 
ATOM     11  C   UNL     1       2.845   7.174  19.098  0.00  0.00    +0.000 A 
ATOM     12  C   UNL     1       3.108   5.805  18.717  0.00  0.00    +0.000 A 
ATOM     13  C   UNL     1       4.169   5.365  17.792  0.00  0.00    +0.000 C 
ATOM     14  N   UNL     1       4.024   4.371  16.989  0.00  0.00    +0.000 NA
ATOM     15  C   UNL     1       2.760   3.668  16.833  0.00  0.00    +0.000 C 
ENDROOT
BRANCH  13  16
ATOM     16  C   UNL     1       5.501   6.058  17.862  0.00  0.00    +0.000 A 
ATOM     17  C   UNL     1       5.713   7.204  17.066  0.00  0.00    +0.000 A 
ATOM     18  C   UNL     1       6.924   7.897  17.106  0.00  0.00    +0.000 A 
ATOM     19  C   UNL     1       7.931   7.485  17.971  0.00  0.00    +0.000 A 
ATOM     20  C   UNL     1       7.730   6.370  18.783  0.00  0.00    +0.000 A 
ATOM     21  C   UNL     1       6.529   5.647  18.728  0.00  0.00    +0.000 A 
ATOM     22 CL   UNL     1       6.452   4.233  19.720  0.00  0.00    +0.000 Cl
ENDBRANCH  13  16
TORSDOF 1
ENDMDL
MODEL 7
REMARK VINA RESULT:      -6.1      3.404      4.892
REMARK  Name = 
REMARK  2 active torsions:
REMARK  status: ('A' for Active; 'I' for Inactive)
REMARK    1  A    between atoms: C_1  and  C_2
REMARK    2  A    between atoms: C_13  and  C_14
REMARK                            x       y       z     vdW  Elec       q    Type
REMARK                         _______ _______ _______ _____ _____    ______ ____
ROOT
ATOM      1  C   UNL     1       7.244   5.248  19.459  0.00  0.00    +0.000 C 
ATOM      2  C   UNL     1       6.507   5.955  18.386  0.00  0.00    +0.000 A 
ATOM      3  N   UNL     1       7.089   6.622  17.409  0.00  0.00    +0.000 NA
ATOM      4  N   UNL     1       6.124   7.263  16.690  0.00  0.00    +0.000 NA
ATOM      5  C   UNL     1       4.963   6.986  17.240  0.00  0.00    +0.000 A 
ATOM      6  N   UNL     1       5.130   6.133  18.315  0.00  0.00    +0.000 N 
ATOM      7  C   UNL     1       4.070   5.612  19.065  0.00  0.00    +0.000 A 
ATOM      8  S   UNL     1       4.233   4.105  19.828  0.00  0.00    +0.000 S 
ATOM      9  C   UNL     1       2.621   4.132  20.334  0.00  0.00    +0.000 A 
ATOM     10  I   UNL     1       1.775   2.633  21.451  0.00  0.00    +0.000 I 
ATOM     11  C   UNL     1       1.957   5.267  19.947  0.00  0.00    +0.000 A 
ATOM     12  C   UNL     1       2.817   6.185  19.235  0.00  0.00    +0.000 A 
ATOM     13  C   UNL     1       2.462   7.563  18.848  0.00  0.00    +0.000 C 
ATOM     14  N   UNL     1       2.871   8.107  17.757  0.00  0.00    +0.000 NA
ATOM     15  C   UNL     1       3.622   7.373  16.749  0.00  0.00    +0.000 C 
ENDROOT
BRANCH  13  16
ATOM     16  C   UNL     1       1.659   8.386  19.817  0.00  0.00    +0.000 A 
ATOM     17  C   UNL     1       1.836   8.171  21.200  0.00  0.00    +0.000 A 
ATOM     18  C   UNL     1       1.131   8.920  22.144  0.00  0.00    +0.000 A 
ATOM     19  C   UNL     1       0.268   9.926  21.725  0.00  0.00    +0.000 A 
ATOM     20  C   UNL     1       0.100  10.170  20.363  0.00  0.00    +0.000 A 
ATOM     21  C   UNL     1       0.778   9.402  19.406  0.00  0.00    +0.000 A 
ATOM     22 CL   UNL     1       0.404   9.750  17.754  0.00  0.00    +0.000 Cl
ENDBRANCH  13  16
TORSDOF 1
ENDMDL
MODEL 8
REMARK VINA RESULT:      -6.1      6.503      8.325
REMARK  Name = 
REMARK  2 active torsions:
REMARK  status: ('A' for Active; 'I' for Inactive)
REMARK    1  A    between atoms: C_1  and  C_2
REMARK    2  A    between atoms: C_13  and  C_14
REMARK                            x       y       z     vdW  Elec       q    Type
REMARK                         _______ _______ _______ _____ _____    ______ ____
ROOT
ATOM      1  C   UNL     1       0.222  14.938  18.861  0.00  0.00    +0.000 C 
ATOM      2  C   UNL     1       0.137  14.217  20.153  0.00  0.00    +0.000 A 
ATOM      3  N   UNL     1       0.488  14.738  21.311  0.00  0.00    +0.000 NA
ATOM      4  N   UNL     1       0.420  13.763  22.262  0.00  0.00    +0.000 NA
ATOM      5  C   UNL     1       0.034  12.654  21.671  0.00  0.00    +0.000 A 
ATOM      6  N   UNL     1      -0.190  12.877  20.325  0.00  0.00    +0.000 N 
ATOM      7  C   UNL     1      -0.668  11.900  19.444  0.00  0.00    +0.000 A 
ATOM      8  S   UNL     1      -1.578  12.356  18.087  0.00  0.00    +0.000 S 
ATOM      9  C   UNL     1      -1.871  10.742  17.681  0.00  0.00    +0.000 A 
ATOM     10  I   UNL     1      -2.957  10.184  16.032  0.00  0.00    +0.000 I 
ATOM     11  C   UNL     1      -1.284   9.856  18.548  0.00  0.00    +0.000 A 
ATOM     12  C   UNL     1      -0.519  10.526  19.575  0.00  0.00    +0.000 A 
ATOM     13  C   UNL     1       0.374   9.863  20.543  0.00  0.00    +0.000 C 
ATOM     14  N   UNL     1       0.518  10.275  21.753  0.00  0.00    +0.000 NA
ATOM     15  C   UNL     1      -0.278  11.357  22.312  0.00  0.00    +0.000 C 
ENDROOT
BRANCH  13  16
ATOM     16  C   UNL     1       1.213   8.713  20.060  0.00  0.00    +0.000 A 
ATOM     17  C   UNL     1       1.223   7.518  20.809  0.00  0.00    +0.000 A 
ATOM     18  C   UNL     1       1.970   6.412  20.397  0.00  0.00    +0.000 A 
ATOM     19  C   UNL     1       2.686   6.465  19.206  0.00  0.00    +0.000 A 
ATOM     20  C   UNL     1       2.667   7.628  18.439  0.00  0.00    +0.000 A 
ATOM     21  C   UNL     1       1.947   8.756  18.861  0.00  0.00    +0.000 A 
ATOM     22 CL   UNL     1       2.087  10.160  17.861  0.00  0.00    +0.000 Cl
ENDBRANCH  13  16
TORSDOF 1
ENDMDL
MODEL 9
REMARK VINA RESULT:      -6.1      7.243      9.474
REMARK  Name = 
REMARK  2 active torsions:
REMARK  status: ('A' for Active; 'I' for Inactive)
REMARK    1  A    between atoms: C_1  and  C_2
REMARK    2  A    between atoms: C_13  and  C_14
REMARK                            x       y       z     vdW  Elec       q    Type
REMARK                         _______ _______ _______ _____ _____    ______ ____
ROOT
ATOM      1  C   UNL     1      -2.196  13.908  22.646  0.00  0.00    +0.000 C 
ATOM      2  C   UNL     1      -2.611  13.348  21.339  0.00  0.00    +0.000 A 
ATOM      3  N   UNL     1      -3.862  13.106  21.005  0.00  0.00    +0.000 NA
ATOM      4  N   UNL     1      -3.873  12.464  19.802  0.00  0.00    +0.000 NA
ATOM      5  C   UNL     1      -2.625  12.316  19.417  0.00  0.00    +0.000 A 
ATOM      6  N   UNL     1      -1.764  12.880  20.340  0.00  0.00    +0.000 N 
ATOM      7  C   UNL     1      -0.375  12.932  20.177  0.00  0.00    +0.000 A 
ATOM      8  S   UNL     1       0.514  14.189  20.889  0.00  0.00    +0.000 S 
ATOM      9  C   UNL     1       1.941  13.662  20.155  0.00  0.00    +0.000 A 
ATOM     10  I   UNL     1       3.751  14.587  20.435  0.00  0.00    +0.000 I 
ATOM     11  C   UNL     1       1.765  12.541  19.384  0.00  0.00    +0.000 A 
ATOM     12  C   UNL     1       0.402  12.060  19.427  0.00  0.00    +0.000 A 
ATOM     13  C   UNL     1      -0.071  10.784  18.861  0.00  0.00    +0.000 C 
ATOM     14  N   UNL     1      -1.234  10.646  18.330  0.00  0.00    +0.000 NA
ATOM     15  C   UNL     1      -2.142  11.766  18.131  0.00  0.00    +0.000 C 
ENDROOT
BRANCH  13  16
ATOM     16  C   UNL     1       0.817   9.578  18.994  0.00  0.00    +0.000 A 
ATOM     17  C   UNL     1       1.562   9.156  17.872  0.00  0.00    +0.000 A 
ATOM     18  C   UNL     1       2.416   8.054  17.945  0.00  0.00    +0.000 A 
ATOM     19  C   UNL     1       2.575   7.379  19.150  0.00  0.00    +0.000 A 
ATOM     20  C   UNL     1       1.867   7.797  20.275  0.00  0.00    +0.000 A 
ATOM     21  C   UNL     1       0.981   8.883  20.205  0.00  0.00    +0.000 A 
ATOM     22 CL   UNL     1       0.099   9.233  21.650  0.00  0.00    +0.000 Cl
ENDBRANCH  13  16
TORSDOF 1
ENDMDL
