MODEL 1
REMARK VINA RESULT:      -7.9      0.000      0.000
REMARK  Name = 
REMARK  4 active torsions:
REMARK  status: ('A' for Active; 'I' for Inactive)
REMARK    1  A    between atoms: C_1  and  O_2
REMARK    2  A    between atoms: O_2  and  C_3
REMARK    3  A    between atoms: C_6  and  C_7
REMARK    4  A    between atoms: N_15  and  C_16
REMARK                            x       y       z     vdW  Elec       q    Type
REMARK                         _______ _______ _______ _____ _____    ______ ____
ROOT
ATOM      1  C   UNL     1       6.725   6.272  17.879  0.00  0.00    +0.000 A 
ATOM      2  C   UNL     1       7.782   6.261  18.766  0.00  0.00    +0.000 A 
ATOM      3  C   UNL     1       8.528   7.421  18.929  0.00  0.00    +0.000 A 
ATOM      4  C   UNL     1       8.202   8.547  18.189  0.00  0.00    +0.000 A 
ATOM      5  N   UNL     1       8.870   9.734  18.397  0.00  0.00    +0.000 N 
ATOM      6  C   UNL     1       8.509  10.883  17.572  0.00  0.00    +0.000 C 
ATOM      7  C   UNL     1       9.416  11.960  18.138  0.00  0.00    +0.000 C 
ATOM      8  C   UNL     1      10.877  11.785  17.736  0.00  0.00    +0.000 C 
ATOM      9  N   UNL     1      11.655  12.310  18.871  0.00  0.00    +0.000 NA
ATOM     10  C   UNL     1      12.061  13.690  18.627  0.00  0.00    +0.000 C 
ATOM     11  C   UNL     1      10.810  12.194  20.076  0.00  0.00    +0.000 C 
ATOM     12  C   UNL     1       9.445  11.681  19.635  0.00  0.00    +0.000 C 
ATOM     13  C   UNL     1       9.271  10.155  19.735  0.00  0.00    +0.000 C 
ATOM     14  N   UNL     1       7.230   8.475  17.259  0.00  0.00    +0.000 NA
ATOM     15  N   UNL     1       6.484   7.355  17.109  0.00  0.00    +0.000 NA
ENDROOT
BRANCH   1  19
ATOM     16  C   UNL     1       3.734   3.209  17.629  0.00  0.00    +0.000 A 
ATOM     17  C   UNL     1       4.392   3.473  18.832  0.00  0.00    +0.000 A 
ATOM     18  C   UNL     1       5.348   4.481  18.923  0.00  0.00    +0.000 A 
ATOM     19  C   UNL     1       5.747   5.186  17.783  0.00  0.00    +0.000 A 
ATOM     20  C   UNL     1       5.124   4.865  16.564  0.00  0.00    +0.000 A 
ATOM     21  C   UNL     1       4.115   3.899  16.488  0.00  0.00    +0.000 A 
BRANCH  16  23
ATOM     22  C   UNL     1       1.607   2.551  18.477  0.00  0.00    +0.000 C 
ATOM     23  O   UNL     1       2.751   2.261  17.673  0.00  0.00    +0.000 OA
ENDBRANCH  16  23
ENDBRANCH   1  19
TORSDOF 2
ENDMDL
MODEL 2
REMARK VINA RESULT:      -7.8      0.210      1.015
REMARK  Name = 
REMARK  4 active torsions:
REMARK  status: ('A' for Active; 'I' for Inactive)
REMARK    1  A    between atoms: C_1  and  O_2
REMARK    2  A    between atoms: O_2  and  C_3
REMARK    3  A    between atoms: C_6  and  C_7
REMARK    4  A    between atoms: N_15  and  C_16
REMARK                            x       y       z     vdW  Elec       q    Type
REMARK                         _______ _______ _______ _____ _____    ______ ____
ROOT
ATOM      1  C   UNL     1       6.654   6.406  17.936  0.00  0.00    +0.000 A 
ATOM      2  C   UNL     1       7.758   6.350  18.763  0.00  0.00    +0.000 A 
ATOM      3  C   UNL     1       8.546   7.484  18.901  0.00  0.00    +0.000 A 
ATOM      4  C   UNL     1       8.215   8.631  18.195  0.00  0.00    +0.000 A 
ATOM      5  N   UNL     1       8.929   9.794  18.381  0.00  0.00    +0.000 N 
ATOM      6  C   UNL     1       8.559  10.965  17.593  0.00  0.00    +0.000 C 
ATOM      7  C   UNL     1       9.529  12.006  18.122  0.00  0.00    +0.000 C 
ATOM      8  C   UNL     1      10.959  11.793  17.637  0.00  0.00    +0.000 C 
ATOM      9  N   UNL     1      11.814  12.278  18.734  0.00  0.00    +0.000 NA
ATOM     10  C   UNL     1      12.249  13.649  18.486  0.00  0.00    +0.000 C 
ATOM     11  C   UNL     1      11.033  12.169  19.982  0.00  0.00    +0.000 C 
ATOM     12  C   UNL     1       9.632  11.704  19.611  0.00  0.00    +0.000 C 
ATOM     13  C   UNL     1       9.417  10.182  19.700  0.00  0.00    +0.000 C 
ATOM     14  N   UNL     1       7.192   8.601  17.319  0.00  0.00    +0.000 NA
ATOM     15  N   UNL     1       6.405   7.506  17.196  0.00  0.00    +0.000 NA
ENDROOT
BRANCH   1  19
ATOM     16  C   UNL     1       3.811   3.199  17.774  0.00  0.00    +0.000 A 
ATOM     17  C   UNL     1       4.258   3.822  16.607  0.00  0.00    +0.000 A 
ATOM     18  C   UNL     1       5.197   4.848  16.653  0.00  0.00    +0.000 A 
ATOM     19  C   UNL     1       5.639   5.351  17.881  0.00  0.00    +0.000 A 
ATOM     20  C   UNL     1       5.131   4.759  19.051  0.00  0.00    +0.000 A 
ATOM     21  C   UNL     1       4.240   3.682  19.001  0.00  0.00    +0.000 A 
BRANCH  16  23
ATOM     22  C   UNL     1       1.787   2.124  18.425  0.00  0.00    +0.000 C 
ATOM     23  O   UNL     1       2.958   2.144  17.608  0.00  0.00    +0.000 OA
ENDBRANCH  16  23
ENDBRANCH   1  19
TORSDOF 2
ENDMDL
MODEL 3
REMARK VINA RESULT:      -7.4      6.955      8.124
REMARK  Name = 
REMARK  4 active torsions:
REMARK  status: ('A' for Active; 'I' for Inactive)
REMARK    1  A    between atoms: C_1  and  O_2
REMARK    2  A    between atoms: O_2  and  C_3
REMARK    3  A    between atoms: C_6  and  C_7
REMARK    4  A    between atoms: N_15  and  C_16
REMARK                            x       y       z     vdW  Elec       q    Type
REMARK                         _______ _______ _______ _____ _____    ______ ____
ROOT
ATOM      1  C   UNL     1       2.428   7.598  18.396  0.00  0.00    +0.000 A 
ATOM      2  C   UNL     1       1.934   8.672  17.683  0.00  0.00    +0.000 A 
ATOM      3  C   UNL     1       1.236   9.660  18.364  0.00  0.00    +0.000 A 
ATOM      4  C   UNL     1       1.040   9.534  19.731  0.00  0.00    +0.000 A 
ATOM      5  N   UNL     1       0.428  10.541  20.443  0.00  0.00    +0.000 N 
ATOM      6  C   UNL     1       0.221  10.347  21.875  0.00  0.00    +0.000 C 
ATOM      7  C   UNL     1      -0.417  11.667  22.270  0.00  0.00    +0.000 C 
ATOM      8  C   UNL     1      -1.862  11.798  21.802  0.00  0.00    +0.000 C 
ATOM      9  N   UNL     1      -2.054  13.234  21.540  0.00  0.00    +0.000 NA
ATOM     10  C   UNL     1      -2.676  13.892  22.685  0.00  0.00    +0.000 C 
ATOM     11  C   UNL     1      -0.727  13.808  21.236  0.00  0.00    +0.000 C 
ATOM     12  C   UNL     1       0.306  12.705  21.422  0.00  0.00    +0.000 C 
ATOM     13  C   UNL     1       0.673  11.946  20.134  0.00  0.00    +0.000 C 
ATOM     14  N   UNL     1       1.449   8.415  20.361  0.00  0.00    +0.000 NA
ATOM     15  N   UNL     1       2.150   7.458  19.709  0.00  0.00    +0.000 NA
ENDROOT
BRANCH   1  19
ATOM     16  C   UNL     1       5.044   4.723  16.583  0.00  0.00    +0.000 A 
ATOM     17  C   UNL     1       3.974   4.316  17.384  0.00  0.00    +0.000 A 
ATOM     18  C   UNL     1       3.110   5.245  17.957  0.00  0.00    +0.000 A 
ATOM     19  C   UNL     1       3.354   6.616  17.827  0.00  0.00    +0.000 A 
ATOM     20  C   UNL     1       4.473   7.012  17.072  0.00  0.00    +0.000 A 
ATOM     21  C   UNL     1       5.300   6.079  16.441  0.00  0.00    +0.000 A 
BRANCH  16  23
ATOM     22  C   UNL     1       6.336   4.005  14.715  0.00  0.00    +0.000 C 
ATOM     23  O   UNL     1       5.774   3.727  15.998  0.00  0.00    +0.000 OA
ENDBRANCH  16  23
ENDBRANCH   1  19
TORSDOF 2
ENDMDL
MODEL 4
REMARK VINA RESULT:      -7.2      7.153      8.272
REMARK  Name = 
REMARK  4 active torsions:
REMARK  status: ('A' for Active; 'I' for Inactive)
REMARK    1  A    between atoms: C_1  and  O_2
REMARK    2  A    between atoms: O_2  and  C_3
REMARK    3  A    between atoms: C_6  and  C_7
REMARK    4  A    between atoms: N_15  and  C_16
REMARK                            x       y       z     vdW  Elec       q    Type
REMARK                         _______ _______ _______ _____ _____    ______ ____
ROOT
ATOM      1  C   UNL     1       2.240   7.844  18.449  0.00  0.00    +0.000 A 
ATOM      2  C   UNL     1       1.801   8.938  17.732  0.00  0.00    +0.000 A 
ATOM      3  C   UNL     1       1.119   9.945  18.401  0.00  0.00    +0.000 A 
ATOM      4  C   UNL     1       0.883   9.817  19.762  0.00  0.00    +0.000 A 
ATOM      5  N   UNL     1       0.287  10.840  20.465  0.00  0.00    +0.000 N 
ATOM      6  C   UNL     1       0.036  10.644  21.890  0.00  0.00    +0.000 C 
ATOM      7  C   UNL     1      -0.567  11.981  22.278  0.00  0.00    +0.000 C 
ATOM      8  C   UNL     1      -1.994  12.165  21.773  0.00  0.00    +0.000 C 
ATOM      9  N   UNL     1      -2.131  13.608  21.517  0.00  0.00    +0.000 NA
ATOM     10  C   UNL     1      -2.761  14.279  22.649  0.00  0.00    +0.000 C 
ATOM     11  C   UNL     1      -0.778  14.138  21.251  0.00  0.00    +0.000 C 
ATOM     12  C   UNL     1       0.212  13.000  21.457  0.00  0.00    +0.000 C 
ATOM     13  C   UNL     1       0.587  12.237  20.173  0.00  0.00    +0.000 C 
ATOM     14  N   UNL     1       1.238   8.681  20.395  0.00  0.00    +0.000 NA
ATOM     15  N   UNL     1       1.923   7.705  19.754  0.00  0.00    +0.000 NA
ENDROOT
BRANCH   1  19
ATOM     16  C   UNL     1       4.979   4.885  16.988  0.00  0.00    +0.000 A 
ATOM     17  C   UNL     1       5.211   6.246  16.776  0.00  0.00    +0.000 A 
ATOM     18  C   UNL     1       4.336   7.211  17.267  0.00  0.00    +0.000 A 
ATOM     19  C   UNL     1       3.146   6.834  17.898  0.00  0.00    +0.000 A 
ATOM     20  C   UNL     1       2.891   5.459  18.046  0.00  0.00    +0.000 A 
ATOM     21  C   UNL     1       3.805   4.492  17.613  0.00  0.00    +0.000 A 
BRANCH  16  23
ATOM     22  C   UNL     1       6.682   4.431  15.385  0.00  0.00    +0.000 C 
ATOM     23  O   UNL     1       5.946   4.029  16.541  0.00  0.00    +0.000 OA
ENDBRANCH  16  23
ENDBRANCH   1  19
TORSDOF 2
ENDMDL
MODEL 5
REMARK VINA RESULT:      -7.1      6.469      7.332
REMARK  Name = 
REMARK  4 active torsions:
REMARK  status: ('A' for Active; 'I' for Inactive)
REMARK    1  A    between atoms: C_1  and  O_2
REMARK    2  A    between atoms: O_2  and  C_3
REMARK    3  A    between atoms: C_6  and  C_7
REMARK    4  A    between atoms: N_15  and  C_16
REMARK                            x       y       z     vdW  Elec       q    Type
REMARK                         _______ _______ _______ _____ _____    ______ ____
ROOT
ATOM      1  C   UNL     1       1.991   7.765  18.956  0.00  0.00    +0.000 A 
ATOM      2  C   UNL     1       2.124   8.578  17.849  0.00  0.00    +0.000 A 
ATOM      3  C   UNL     1       1.801   9.923  17.967  0.00  0.00    +0.000 A 
ATOM      4  C   UNL     1       1.342  10.407  19.183  0.00  0.00    +0.000 A 
ATOM      5  N   UNL     1       1.099  11.752  19.350  0.00  0.00    +0.000 N 
ATOM      6  C   UNL     1       0.591  12.207  20.640  0.00  0.00    +0.000 C 
ATOM      7  C   UNL     1       0.510  13.707  20.423  0.00  0.00    +0.000 C 
ATOM      8  C   UNL     1      -0.643  14.120  19.515  0.00  0.00    +0.000 C 
ATOM      9  N   UNL     1      -0.166  15.318  18.805  0.00  0.00    +0.000 NA
ATOM     10  C   UNL     1      -0.638  16.533  19.462  0.00  0.00    +0.000 C 
ATOM     11  C   UNL     1       1.309  15.253  18.773  0.00  0.00    +0.000 C 
ATOM     12  C   UNL     1       1.734  14.032  19.578  0.00  0.00    +0.000 C 
ATOM     13  C   UNL     1       1.961  12.760  18.742  0.00  0.00    +0.000 C 
ATOM     14  N   UNL     1       1.129   9.552  20.202  0.00  0.00    +0.000 NA
ATOM     15  N   UNL     1       1.462   8.243  20.102  0.00  0.00    +0.000 NA
ENDROOT
BRANCH   1  19
ATOM     16  C   UNL     1       3.622   3.804  19.192  0.00  0.00    +0.000 A 
ATOM     17  C   UNL     1       3.829   4.600  18.063  0.00  0.00    +0.000 A 
ATOM     18  C   UNL     1       3.320   5.894  17.991  0.00  0.00    +0.000 A 
ATOM     19  C   UNL     1       2.500   6.392  19.008  0.00  0.00    +0.000 A 
ATOM     20  C   UNL     1       2.244   5.555  20.110  0.00  0.00    +0.000 A 
ATOM     21  C   UNL     1       2.812   4.281  20.212  0.00  0.00    +0.000 A 
BRANCH  16  23
ATOM     22  C   UNL     1       3.572   1.519  18.521  0.00  0.00    +0.000 C 
ATOM     23  O   UNL     1       4.240   2.586  19.194  0.00  0.00    +0.000 OA
ENDBRANCH  16  23
ENDBRANCH   1  19
TORSDOF 2
ENDMDL
MODEL 6
REMARK VINA RESULT:      -7.0      7.754      8.880
REMARK  Name = 
REMARK  4 active torsions:
REMARK  status: ('A' for Active; 'I' for Inactive)
REMARK    1  A    between atoms: C_1  and  O_2
REMARK    2  A    between atoms: O_2  and  C_3
REMARK    3  A    between atoms: C_6  and  C_7
REMARK    4  A    between atoms: N_15  and  C_16
REMARK                            x       y       z     vdW  Elec       q    Type
REMARK                         _______ _______ _______ _____ _____    ______ ____
ROOT
ATOM      1  C   UNL     1       1.844   7.945  19.461  0.00  0.00    +0.000 A 
ATOM      2  C   UNL     1       1.454   9.027  18.697  0.00  0.00    +0.000 A 
ATOM      3  C   UNL     1       0.713  10.035  19.299  0.00  0.00    +0.000 A 
ATOM      4  C   UNL     1       0.373   9.921  20.638  0.00  0.00    +0.000 A 
ATOM      5  N   UNL     1      -0.286  10.947  21.280  0.00  0.00    +0.000 N 
ATOM      6  C   UNL     1      -0.646  10.766  22.682  0.00  0.00    +0.000 C 
ATOM      7  C   UNL     1      -1.288  12.103  23.005  0.00  0.00    +0.000 C 
ATOM      8  C   UNL     1      -2.673  12.267  22.388  0.00  0.00    +0.000 C 
ATOM      9  N   UNL     1      -2.801  13.706  22.103  0.00  0.00    +0.000 NA
ATOM     10  C   UNL     1      -3.523  14.385  23.175  0.00  0.00    +0.000 C 
ATOM     11  C   UNL     1      -1.436  14.245  21.937  0.00  0.00    +0.000 C 
ATOM     12  C   UNL     1      -0.456  13.118  22.234  0.00  0.00    +0.000 C 
ATOM     13  C   UNL     1       0.026  12.344  20.994  0.00  0.00    +0.000 C 
ATOM     14  N   UNL     1       0.686   8.797  21.311  0.00  0.00    +0.000 NA
ATOM     15  N   UNL     1       1.427   7.819  20.738  0.00  0.00    +0.000 NA
ENDROOT
BRANCH   1  19
ATOM     16  C   UNL     1       4.766   5.075  18.188  0.00  0.00    +0.000 A 
ATOM     17  C   UNL     1       4.474   6.197  17.408  0.00  0.00    +0.000 A 
ATOM     18  C   UNL     1       3.542   7.142  17.828  0.00  0.00    +0.000 A 
ATOM     19  C   UNL     1       2.799   6.937  18.995  0.00  0.00    +0.000 A 
ATOM     20  C   UNL     1       3.056   5.771  19.737  0.00  0.00    +0.000 A 
ATOM     21  C   UNL     1       4.041   4.856  19.350  0.00  0.00    +0.000 A 
BRANCH  16  23
ATOM     22  C   UNL     1       7.073   4.818  17.651  0.00  0.00    +0.000 C 
ATOM     23  O   UNL     1       5.760   4.260  17.726  0.00  0.00    +0.000 OA
ENDBRANCH  16  23
ENDBRANCH   1  19
TORSDOF 2
ENDMDL
MODEL 7
REMARK VINA RESULT:      -7.0      6.509      7.353
REMARK  Name = 
REMARK  4 active torsions:
REMARK  status: ('A' for Active; 'I' for Inactive)
REMARK    1  A    between atoms: C_1  and  O_2
REMARK    2  A    between atoms: O_2  and  C_3
REMARK    3  A    between atoms: C_6  and  C_7
REMARK    4  A    between atoms: N_15  and  C_16
REMARK                            x       y       z     vdW  Elec       q    Type
REMARK                         _______ _______ _______ _____ _____    ______ ____
ROOT
ATOM      1  C   UNL     1       2.046   7.648  19.293  0.00  0.00    +0.000 A 
ATOM      2  C   UNL     1       2.145   8.421  18.155  0.00  0.00    +0.000 A 
ATOM      3  C   UNL     1       1.782   9.759  18.223  0.00  0.00    +0.000 A 
ATOM      4  C   UNL     1       1.318  10.276  19.424  0.00  0.00    +0.000 A 
ATOM      5  N   UNL     1       1.035  11.619  19.541  0.00  0.00    +0.000 N 
ATOM      6  C   UNL     1       0.522  12.107  20.817  0.00  0.00    +0.000 C 
ATOM      7  C   UNL     1       0.394  13.595  20.543  0.00  0.00    +0.000 C 
ATOM      8  C   UNL     1      -0.778  13.937  19.630  0.00  0.00    +0.000 C 
ATOM      9  N   UNL     1      -0.343  15.121  18.870  0.00  0.00    +0.000 NA
ATOM     10  C   UNL     1      -0.848  16.345  19.484  0.00  0.00    +0.000 C 
ATOM     11  C   UNL     1       1.132  15.099  18.828  0.00  0.00    +0.000 C 
ATOM     12  C   UNL     1       1.601  13.924  19.675  0.00  0.00    +0.000 C 
ATOM     13  C   UNL     1       1.861  12.628  18.887  0.00  0.00    +0.000 C 
ATOM     14  N   UNL     1       1.139   9.455  20.477  0.00  0.00    +0.000 NA
ATOM     15  N   UNL     1       1.511   8.154  20.424  0.00  0.00    +0.000 NA
ENDROOT
BRANCH   1  19
ATOM     16  C   UNL     1       3.541   3.632  19.469  0.00  0.00    +0.000 A 
ATOM     17  C   UNL     1       2.571   4.077  20.369  0.00  0.00    +0.000 A 
ATOM     18  C   UNL     1       2.067   5.372  20.302  0.00  0.00    +0.000 A 
ATOM     19  C   UNL     1       2.597   6.294  19.394  0.00  0.00    +0.000 A 
ATOM     20  C   UNL     1       3.621   5.853  18.537  0.00  0.00    +0.000 A 
ATOM     21  C   UNL     1       4.078   4.531  18.559  0.00  0.00    +0.000 A 
BRANCH  16  23
ATOM     22  C   UNL     1       3.577   1.474  18.459  0.00  0.00    +0.000 C 
ATOM     23  O   UNL     1       3.899   2.317  19.567  0.00  0.00    +0.000 OA
ENDBRANCH  16  23
ENDBRANCH   1  19
TORSDOF 2
ENDMDL
MODEL 8
REMARK VINA RESULT:      -6.9      7.222      8.115
REMARK  Name = 
REMARK  4 active torsions:
REMARK  status: ('A' for Active; 'I' for Inactive)
REMARK    1  A    between atoms: C_1  and  O_2
REMARK    2  A    between atoms: O_2  and  C_3
REMARK    3  A    between atoms: C_6  and  C_7
REMARK    4  A    between atoms: N_15  and  C_16
REMARK                            x       y       z     vdW  Elec       q    Type
REMARK                         _______ _______ _______ _____ _____    ______ ____
ROOT
ATOM      1  C   UNL     1       1.826   7.694  20.054  0.00  0.00    +0.000 A 
ATOM      2  C   UNL     1       1.286   8.206  21.216  0.00  0.00    +0.000 A 
ATOM      3  C   UNL     1       0.719   9.473  21.187  0.00  0.00    +0.000 A 
ATOM      4  C   UNL     1       0.724  10.192  20.001  0.00  0.00    +0.000 A 
ATOM      5  N   UNL     1       0.091  11.413  19.923  0.00  0.00    +0.000 N 
ATOM      6  C   UNL     1       0.150  12.142  18.661  0.00  0.00    +0.000 C 
ATOM      7  C   UNL     1      -0.685  13.368  18.979  0.00  0.00    +0.000 C 
ATOM      8  C   UNL     1       0.027  14.356  19.898  0.00  0.00    +0.000 C 
ATOM      9  N   UNL     1      -1.042  14.981  20.695  0.00  0.00    +0.000 NA
ATOM     10  C   UNL     1      -1.440  16.261  20.117  0.00  0.00    +0.000 C 
ATOM     11  C   UNL     1      -2.170  14.030  20.743  0.00  0.00    +0.000 C 
ATOM     12  C   UNL     1      -1.809  12.842  19.862  0.00  0.00    +0.000 C 
ATOM     13  C   UNL     1      -1.172  11.657  20.612  0.00  0.00    +0.000 C 
ATOM     14  N   UNL     1       1.358   9.692  18.922  0.00  0.00    +0.000 NA
ATOM     15  N   UNL     1       1.894   8.448  18.936  0.00  0.00    +0.000 NA
ENDROOT
BRANCH   1  19
ATOM     16  C   UNL     1       2.941   3.585  19.539  0.00  0.00    +0.000 A 
ATOM     17  C   UNL     1       2.150   3.984  20.619  0.00  0.00    +0.000 A 
ATOM     18  C   UNL     1       1.768   5.313  20.778  0.00  0.00    +0.000 A 
ATOM     19  C   UNL     1       2.253   6.300  19.914  0.00  0.00    +0.000 A 
ATOM     20  C   UNL     1       3.103   5.894  18.870  0.00  0.00    +0.000 A 
ATOM     21  C   UNL     1       3.431   4.549  18.671  0.00  0.00    +0.000 A 
BRANCH  16  23
ATOM     22  C   UNL     1       3.451   1.740  18.121  0.00  0.00    +0.000 C 
ATOM     23  O   UNL     1       3.182   2.244  19.430  0.00  0.00    +0.000 OA
ENDBRANCH  16  23
ENDBRANCH   1  19
TORSDOF 2
ENDMDL
MODEL 9
REMARK VINA RESULT:      -6.9      7.213      8.162
REMARK  Name = 
REMARK  4 active torsions:
REMARK  status: ('A' for Active; 'I' for Inactive)
REMARK    1  A    between atoms: C_1  and  O_2
REMARK    2  A    between atoms: O_2  and  C_3
REMARK    3  A    between atoms: C_6  and  C_7
REMARK    4  A    between atoms: N_15  and  C_16
REMARK                            x       y       z     vdW  Elec       q    Type
REMARK                         _______ _______ _______ _____ _____    ______ ____
ROOT
ATOM      1  C   UNL     1       1.799   7.628  20.008  0.00  0.00    +0.000 A 
ATOM      2  C   UNL     1       1.293   8.142  21.184  0.00  0.00    +0.000 A 
ATOM      3  C   UNL     1       0.730   9.410  21.171  0.00  0.00    +0.000 A 
ATOM      4  C   UNL     1       0.705  10.130  19.985  0.00  0.00    +0.000 A 
ATOM      5  N   UNL     1       0.074  11.353  19.926  0.00  0.00    +0.000 N 
ATOM      6  C   UNL     1       0.101  12.082  18.662  0.00  0.00    +0.000 C 
ATOM      7  C   UNL     1      -0.721  13.311  19.004  0.00  0.00    +0.000 C 
ATOM      8  C   UNL     1       0.019  14.296  19.903  0.00  0.00    +0.000 C 
ATOM      9  N   UNL     1      -1.026  14.925  20.729  0.00  0.00    +0.000 NA
ATOM     10  C   UNL     1      -1.434  16.206  20.162  0.00  0.00    +0.000 C 
ATOM     11  C   UNL     1      -2.155  13.977  20.808  0.00  0.00    +0.000 C 
ATOM     12  C   UNL     1      -1.822  12.788  19.917  0.00  0.00    +0.000 C 
ATOM     13  C   UNL     1      -1.169  11.601  20.648  0.00  0.00    +0.000 C 
ATOM     14  N   UNL     1       1.307   9.628  18.890  0.00  0.00    +0.000 NA
ATOM     15  N   UNL     1       1.839   8.383  18.889  0.00  0.00    +0.000 NA
ENDROOT
BRANCH   1  19
ATOM     16  C   UNL     1       3.165   3.577  19.663  0.00  0.00    +0.000 A 
ATOM     17  C   UNL     1       3.494   4.531  18.697  0.00  0.00    +0.000 A 
ATOM     18  C   UNL     1       3.071   5.852  18.816  0.00  0.00    +0.000 A 
ATOM     19  C   UNL     1       2.218   6.233  19.856  0.00  0.00    +0.000 A 
ATOM     20  C   UNL     1       1.839   5.248  20.786  0.00  0.00    +0.000 A 
ATOM     21  C   UNL     1       2.321   3.937  20.703  0.00  0.00    +0.000 A 
BRANCH  16  23
ATOM     22  C   UNL     1       3.525   1.716  18.221  0.00  0.00    +0.000 C 
ATOM     23  O   UNL     1       3.707   2.334  19.495  0.00  0.00    +0.000 OA
ENDBRANCH  16  23
ENDBRANCH   1  19
TORSDOF 2
ENDMDL
