MODEL 1
REMARK VINA RESULT:      -6.8      0.000      0.000
REMARK  Name = 
REMARK  1 active torsions:
REMARK  status: ('A' for Active; 'I' for Inactive)
REMARK    1  A    between atoms: C_5  and  N_6
REMARK                            x       y       z     vdW  Elec       q    Type
REMARK                         _______ _______ _______ _____ _____    ______ ____
ROOT
ATOM      1  C   UNL     1       6.580   4.456  14.456  0.00  0.00    +0.000 A 
ATOM      2  C   UNL     1       5.266   4.112  14.729  0.00  0.00    +0.000 A 
ATOM      3  C   UNL     1       4.802   4.164  16.045  0.00  0.00    +0.000 A 
ATOM      4  C   UNL     1       5.651   4.543  17.117  0.00  0.00    +0.000 A 
ATOM      5  C   UNL     1       5.235   4.574  18.474  0.00  0.00    +0.000 A 
ATOM      6  C   UNL     1       6.171   5.048  19.392  0.00  0.00    +0.000 A 
ATOM      7  N   UNL     1       7.419   5.435  19.062  0.00  0.00    +0.000 NA
ATOM      8  N   UNL     1       7.814   5.358  17.765  0.00  0.00    +0.000 NA
ATOM      9  C   UNL     1       6.971   4.932  16.813  0.00  0.00    +0.000 A 
ATOM     10  C   UNL     1       7.413   4.871  15.495  0.00  0.00    +0.000 A 
ENDROOT
BRANCH   5  11
ATOM     11  N   UNL     1       3.942   4.130  18.848  0.00  0.00    +0.000 N 
ATOM     12  C   UNL     1       3.189   4.990  19.789  0.00  0.00    +0.000 C 
ATOM     13  C   UNL     1       1.690   4.680  19.719  0.00  0.00    +0.000 C 
ATOM     14  S   UNL     1       1.317   2.964  20.218  0.00  0.00    +0.000 S 
ATOM     15  C   UNL     1       2.510   2.118  19.124  0.00  0.00    +0.000 C 
ATOM     16  C   UNL     1       3.927   2.696  19.238  0.00  0.00    +0.000 C 
ENDBRANCH   5  11
TORSDOF 1
ENDMDL
MODEL 2
REMARK VINA RESULT:      -6.3      1.726      2.251
REMARK  Name = 
REMARK  1 active torsions:
REMARK  status: ('A' for Active; 'I' for Inactive)
REMARK    1  A    between atoms: C_5  and  N_6
REMARK                            x       y       z     vdW  Elec       q    Type
REMARK                         _______ _______ _______ _____ _____    ______ ____
ROOT
ATOM      1  C   UNL     1       6.386   3.708  12.225  0.00  0.00    +0.000 A 
ATOM      2  C   UNL     1       5.160   3.298  12.723  0.00  0.00    +0.000 A 
ATOM      3  C   UNL     1       4.793   3.657  14.022  0.00  0.00    +0.000 A 
ATOM      4  C   UNL     1       5.654   4.419  14.853  0.00  0.00    +0.000 A 
ATOM      5  C   UNL     1       5.340   4.775  16.191  0.00  0.00    +0.000 A 
ATOM      6  C   UNL     1       6.262   5.594  16.840  0.00  0.00    +0.000 A 
ATOM      7  N   UNL     1       7.411   6.022  16.283  0.00  0.00    +0.000 NA
ATOM      8  N   UNL     1       7.717   5.636  15.018  0.00  0.00    +0.000 NA
ATOM      9  C   UNL     1       6.877   4.863  14.312  0.00  0.00    +0.000 A 
ATOM     10  C   UNL     1       7.224   4.493  13.017  0.00  0.00    +0.000 A 
ENDROOT
BRANCH   5  11
ATOM     11  N   UNL     1       4.157   4.300  16.811  0.00  0.00    +0.000 N 
ATOM     12  C   UNL     1       3.394   5.273  17.624  0.00  0.00    +0.000 C 
ATOM     13  C   UNL     1       1.947   4.802  17.810  0.00  0.00    +0.000 C 
ATOM     14  S   UNL     1       1.849   3.222  18.718  0.00  0.00    +0.000 S 
ATOM     15  C   UNL     1       3.030   2.272  17.699  0.00  0.00    +0.000 C 
ATOM     16  C   UNL     1       4.365   3.004  17.507  0.00  0.00    +0.000 C 
ENDBRANCH   5  11
TORSDOF 1
ENDMDL
MODEL 3
REMARK VINA RESULT:      -6.1      2.645      5.441
REMARK  Name = 
REMARK  1 active torsions:
REMARK  status: ('A' for Active; 'I' for Inactive)
REMARK    1  A    between atoms: C_5  and  N_6
REMARK                            x       y       z     vdW  Elec       q    Type
REMARK                         _______ _______ _______ _____ _____    ______ ____
ROOT
ATOM      1  C   UNL     1       2.495   2.709  21.418  0.00  0.00    +0.000 A 
ATOM      2  C   UNL     1       3.589   2.387  20.631  0.00  0.00    +0.000 A 
ATOM      3  C   UNL     1       4.081   3.329  19.724  0.00  0.00    +0.000 A 
ATOM      4  C   UNL     1       3.476   4.603  19.575  0.00  0.00    +0.000 A 
ATOM      5  C   UNL     1       3.917   5.577  18.641  0.00  0.00    +0.000 A 
ATOM      6  C   UNL     1       3.262   6.806  18.680  0.00  0.00    +0.000 A 
ATOM      7  N   UNL     1       2.244   7.090  19.516  0.00  0.00    +0.000 NA
ATOM      8  N   UNL     1       1.806   6.132  20.373  0.00  0.00    +0.000 NA
ATOM      9  C   UNL     1       2.392   4.926  20.416  0.00  0.00    +0.000 A 
ATOM     10  C   UNL     1       1.917   3.973  21.311  0.00  0.00    +0.000 A 
ENDROOT
BRANCH   5  11
ATOM     11  N   UNL     1       4.958   5.285  17.724  0.00  0.00    +0.000 N 
ATOM     12  C   UNL     1       5.847   6.405  17.347  0.00  0.00    +0.000 C 
ATOM     13  C   UNL     1       7.169   5.876  16.779  0.00  0.00    +0.000 C 
ATOM     14  S   UNL     1       6.924   4.910  15.249  0.00  0.00    +0.000 S 
ATOM     15  C   UNL     1       5.639   3.772  15.874  0.00  0.00    +0.000 C 
ATOM     16  C   UNL     1       4.476   4.510  16.551  0.00  0.00    +0.000 C 
ENDBRANCH   5  11
TORSDOF 1
ENDMDL
MODEL 4
REMARK VINA RESULT:      -6.1      1.673      3.155
REMARK  Name = 
REMARK  1 active torsions:
REMARK  status: ('A' for Active; 'I' for Inactive)
REMARK    1  A    between atoms: C_5  and  N_6
REMARK                            x       y       z     vdW  Elec       q    Type
REMARK                         _______ _______ _______ _____ _____    ______ ____
ROOT
ATOM      1  C   UNL     1       7.959   6.479  18.788  0.00  0.00    +0.000 A 
ATOM      2  C   UNL     1       7.097   5.777  19.614  0.00  0.00    +0.000 A 
ATOM      3  C   UNL     1       6.022   5.084  19.052  0.00  0.00    +0.000 A 
ATOM      4  C   UNL     1       5.778   5.098  17.655  0.00  0.00    +0.000 A 
ATOM      5  C   UNL     1       4.677   4.442  17.043  0.00  0.00    +0.000 A 
ATOM      6  C   UNL     1       4.632   4.488  15.652  0.00  0.00    +0.000 A 
ATOM      7  N   UNL     1       5.537   5.131  14.889  0.00  0.00    +0.000 NA
ATOM      8  N   UNL     1       6.560   5.791  15.493  0.00  0.00    +0.000 NA
ATOM      9  C   UNL     1       6.692   5.782  16.828  0.00  0.00    +0.000 A 
ATOM     10  C   UNL     1       7.755   6.467  17.408  0.00  0.00    +0.000 A 
ENDROOT
BRANCH   5  11
ATOM     11  N   UNL     1       3.690   3.795  17.829  0.00  0.00    +0.000 N 
ATOM     12  C   UNL     1       3.556   2.331  17.657  0.00  0.00    +0.000 C 
ATOM     13  C   UNL     1       2.847   1.711  18.866  0.00  0.00    +0.000 C 
ATOM     14  S   UNL     1       1.144   2.338  19.062  0.00  0.00    +0.000 S 
ATOM     15  C   UNL     1       1.525   4.123  19.002  0.00  0.00    +0.000 C 
ATOM     16  C   UNL     1       2.384   4.503  17.789  0.00  0.00    +0.000 C 
ENDBRANCH   5  11
TORSDOF 1
ENDMDL
MODEL 5
REMARK VINA RESULT:      -6.1      2.770      5.535
REMARK  Name = 
REMARK  1 active torsions:
REMARK  status: ('A' for Active; 'I' for Inactive)
REMARK    1  A    between atoms: C_5  and  N_6
REMARK                            x       y       z     vdW  Elec       q    Type
REMARK                         _______ _______ _______ _____ _____    ______ ____
ROOT
ATOM      1  C   UNL     1       0.824   4.244  20.735  0.00  0.00    +0.000 A 
ATOM      2  C   UNL     1       1.617   5.370  20.589  0.00  0.00    +0.000 A 
ATOM      3  C   UNL     1       2.729   5.321  19.746  0.00  0.00    +0.000 A 
ATOM      4  C   UNL     1       3.079   4.138  19.047  0.00  0.00    +0.000 A 
ATOM      5  C   UNL     1       4.221   4.029  18.209  0.00  0.00    +0.000 A 
ATOM      6  C   UNL     1       4.373   2.820  17.534  0.00  0.00    +0.000 A 
ATOM      7  N   UNL     1       3.531   1.776  17.660  0.00  0.00    +0.000 NA
ATOM      8  N   UNL     1       2.469   1.881  18.499  0.00  0.00    +0.000 NA
ATOM      9  C   UNL     1       2.235   3.017  19.175  0.00  0.00    +0.000 A 
ATOM     10  C   UNL     1       1.133   3.086  20.021  0.00  0.00    +0.000 A 
ENDROOT
BRANCH   5  11
ATOM     11  N   UNL     1       5.142   5.100  18.095  0.00  0.00    +0.000 N 
ATOM     12  C   UNL     1       5.081   5.902  16.853  0.00  0.00    +0.000 C 
ATOM     13  C   UNL     1       5.744   7.268  17.061  0.00  0.00    +0.000 C 
ATOM     14  S   UNL     1       7.520   7.118  17.459  0.00  0.00    +0.000 S 
ATOM     15  C   UNL     1       7.370   5.920  18.830  0.00  0.00    +0.000 C 
ATOM     16  C   UNL     1       6.527   4.695  18.452  0.00  0.00    +0.000 C 
ENDBRANCH   5  11
TORSDOF 1
ENDMDL
MODEL 6
REMARK VINA RESULT:      -6.1      0.643      1.453
REMARK  Name = 
REMARK  1 active torsions:
REMARK  status: ('A' for Active; 'I' for Inactive)
REMARK    1  A    between atoms: C_5  and  N_6
REMARK                            x       y       z     vdW  Elec       q    Type
REMARK                         _______ _______ _______ _____ _____    ______ ____
ROOT
ATOM      1  C   UNL     1       6.673   4.596  14.342  0.00  0.00    +0.000 A 
ATOM      2  C   UNL     1       5.386   4.133  14.563  0.00  0.00    +0.000 A 
ATOM      3  C   UNL     1       4.889   4.085  15.868  0.00  0.00    +0.000 A 
ATOM      4  C   UNL     1       5.678   4.483  16.977  0.00  0.00    +0.000 A 
ATOM      5  C   UNL     1       5.230   4.416  18.323  0.00  0.00    +0.000 A 
ATOM      6  C   UNL     1       6.101   4.922  19.286  0.00  0.00    +0.000 A 
ATOM      7  N   UNL     1       7.319   5.427  19.008  0.00  0.00    +0.000 NA
ATOM      8  N   UNL     1       7.749   5.443  17.720  0.00  0.00    +0.000 NA
ATOM      9  C   UNL     1       6.967   4.993  16.727  0.00  0.00    +0.000 A 
ATOM     10  C   UNL     1       7.444   5.030  15.420  0.00  0.00    +0.000 A 
ENDROOT
BRANCH   5  11
ATOM     11  N   UNL     1       3.970   3.850  18.642  0.00  0.00    +0.000 N 
ATOM     12  C   UNL     1       3.702   2.489  18.127  0.00  0.00    +0.000 C 
ATOM     13  C   UNL     1       2.574   1.824  18.924  0.00  0.00    +0.000 C 
ATOM     14  S   UNL     1       0.995   2.726  18.767  0.00  0.00    +0.000 S 
ATOM     15  C   UNL     1       1.611   4.390  19.205  0.00  0.00    +0.000 C 
ATOM     16  C   UNL     1       2.848   4.793  18.392  0.00  0.00    +0.000 C 
ENDBRANCH   5  11
TORSDOF 1
ENDMDL
MODEL 7
REMARK VINA RESULT:      -6.0      2.565      5.577
REMARK  Name = 
REMARK  1 active torsions:
REMARK  status: ('A' for Active; 'I' for Inactive)
REMARK    1  A    between atoms: C_5  and  N_6
REMARK                            x       y       z     vdW  Elec       q    Type
REMARK                         _______ _______ _______ _____ _____    ______ ____
ROOT
ATOM      1  C   UNL     1       1.510   6.175  20.650  0.00  0.00    +0.000 A 
ATOM      2  C   UNL     1       2.371   6.800  19.763  0.00  0.00    +0.000 A 
ATOM      3  C   UNL     1       3.135   6.024  18.888  0.00  0.00    +0.000 A 
ATOM      4  C   UNL     1       3.065   4.608  18.897  0.00  0.00    +0.000 A 
ATOM      5  C   UNL     1       3.850   3.777  18.054  0.00  0.00    +0.000 A 
ATOM      6  C   UNL     1       3.599   2.409  18.134  0.00  0.00    +0.000 A 
ATOM      7  N   UNL     1       2.698   1.857  18.970  0.00  0.00    +0.000 NA
ATOM      8  N   UNL     1       1.987   2.662  19.801  0.00  0.00    +0.000 NA
ATOM      9  C   UNL     1       2.151   3.994  19.776  0.00  0.00    +0.000 A 
ATOM     10  C   UNL     1       1.401   4.785  20.641  0.00  0.00    +0.000 A 
ENDROOT
BRANCH   5  11
ATOM     11  N   UNL     1       4.833   4.334  17.198  0.00  0.00    +0.000 N 
ATOM     12  C   UNL     1       4.866   3.833  15.806  0.00  0.00    +0.000 C 
ATOM     13  C   UNL     1       5.595   4.825  14.893  0.00  0.00    +0.000 C 
ATOM     14  S   UNL     1       7.343   5.047  15.374  0.00  0.00    +0.000 S 
ATOM     15  C   UNL     1       7.072   5.410  17.144  0.00  0.00    +0.000 C 
ATOM     16  C   UNL     1       6.178   4.369  17.830  0.00  0.00    +0.000 C 
ENDBRANCH   5  11
TORSDOF 1
ENDMDL
MODEL 8
REMARK VINA RESULT:      -6.0      3.212      5.574
REMARK  Name = 
REMARK  1 active torsions:
REMARK  status: ('A' for Active; 'I' for Inactive)
REMARK    1  A    between atoms: C_5  and  N_6
REMARK                            x       y       z     vdW  Elec       q    Type
REMARK                         _______ _______ _______ _____ _____    ______ ____
ROOT
ATOM      1  C   UNL     1       1.394   9.320  18.973  0.00  0.00    +0.000 A 
ATOM      2  C   UNL     1       2.215   9.136  17.873  0.00  0.00    +0.000 A 
ATOM      3  C   UNL     1       2.943   7.950  17.752  0.00  0.00    +0.000 A 
ATOM      4  C   UNL     1       2.878   6.934  18.739  0.00  0.00    +0.000 A 
ATOM      5  C   UNL     1       3.629   5.730  18.679  0.00  0.00    +0.000 A 
ATOM      6  C   UNL     1       3.385   4.804  19.691  0.00  0.00    +0.000 A 
ATOM      7  N   UNL     1       2.522   5.006  20.705  0.00  0.00    +0.000 NA
ATOM      8  N   UNL     1       1.844   6.182  20.772  0.00  0.00    +0.000 NA
ATOM      9  C   UNL     1       2.004   7.123  19.828  0.00  0.00    +0.000 A 
ATOM     10  C   UNL     1       1.289   8.312  19.931  0.00  0.00    +0.000 A 
ENDROOT
BRANCH   5  11
ATOM     11  N   UNL     1       4.573   5.515  17.644  0.00  0.00    +0.000 N 
ATOM     12  C   UNL     1       4.435   4.264  16.867  0.00  0.00    +0.000 C 
ATOM     13  C   UNL     1       5.160   4.384  15.521  0.00  0.00    +0.000 C 
ATOM     14  S   UNL     1       6.956   4.637  15.726  0.00  0.00    +0.000 S 
ATOM     15  C   UNL     1       6.881   6.043  16.890  0.00  0.00    +0.000 C 
ATOM     16  C   UNL     1       5.968   5.766  18.091  0.00  0.00    +0.000 C 
ENDBRANCH   5  11
TORSDOF 1
ENDMDL
MODEL 9
REMARK VINA RESULT:      -6.0      3.196      4.540
REMARK  Name = 
REMARK  1 active torsions:
REMARK  status: ('A' for Active; 'I' for Inactive)
REMARK    1  A    between atoms: C_5  and  N_6
REMARK                            x       y       z     vdW  Elec       q    Type
REMARK                         _______ _______ _______ _____ _____    ______ ____
ROOT
ATOM      1  C   UNL     1       2.323   2.253  17.963  0.00  0.00    +0.000 A 
ATOM      2  C   UNL     1       1.359   3.138  18.418  0.00  0.00    +0.000 A 
ATOM      3  C   UNL     1       1.619   4.511  18.385  0.00  0.00    +0.000 A 
ATOM      4  C   UNL     1       2.855   5.021  17.913  0.00  0.00    +0.000 A 
ATOM      5  C   UNL     1       3.178   6.404  17.896  0.00  0.00    +0.000 A 
ATOM      6  C   UNL     1       4.403   6.741  17.325  0.00  0.00    +0.000 A 
ATOM      7  N   UNL     1       5.277   5.841  16.832  0.00  0.00    +0.000 NA
ATOM      8  N   UNL     1       4.971   4.519  16.896  0.00  0.00    +0.000 NA
ATOM      9  C   UNL     1       3.804   4.107  17.413  0.00  0.00    +0.000 A 
ATOM     10  C   UNL     1       3.526   2.745  17.457  0.00  0.00    +0.000 A 
ENDROOT
BRANCH   5  11
ATOM     11  N   UNL     1       2.292   7.363  18.447  0.00  0.00    +0.000 N 
ATOM     12  C   UNL     1       2.273   8.697  17.807  0.00  0.00    +0.000 C 
ATOM     13  C   UNL     1       0.978   9.441  18.151  0.00  0.00    +0.000 C 
ATOM     14  S   UNL     1       0.818   9.756  19.942  0.00  0.00    +0.000 S 
ATOM     15  C   UNL     1       1.113   8.049  20.524  0.00  0.00    +0.000 C 
ATOM     16  C   UNL     1       2.387   7.435  19.928  0.00  0.00    +0.000 C 
ENDBRANCH   5  11
TORSDOF 1
ENDMDL
