MODEL 1
REMARK VINA RESULT:      -8.0      0.000      0.000
REMARK  Name = 
REMARK  7 active torsions:
REMARK  status: ('A' for Active; 'I' for Inactive)
REMARK    1  A    between atoms: C_2  and  OXT_3
REMARK    2  A    between atoms: C_2  and  CA_4
REMARK    3  A    between atoms: C_13  and  C_14
REMARK    4  A    between atoms: CA_16  and  C_17
REMARK    5  A    between atoms: C_17  and  O_18
REMARK    6  A    between atoms: C_19  and  O_20
REMARK    7  A    between atoms: C_21  and  O_22
REMARK                            x       y       z     vdW  Elec       q    Type
REMARK                         _______ _______ _______ _____ _____    ______ ____
ROOT
ATOM      1  CA  UNL     1       7.303   5.415  18.280  0.00  0.00    +0.000 A 
ATOM      2  N   UNL     1       7.801   5.581  16.998  0.00  0.00    +0.000 N 
ATOM      3  C   UNL     1       6.943   5.023  16.100  0.00  0.00    +0.000 A 
ATOM      4  C   UNL     1       7.045   4.969  14.681  0.00  0.00    +0.000 A 
ATOM      5  O   UNL     1       7.983   5.396  14.021  0.00  0.00    +0.000 OA
ATOM      6  N   UNL     1       5.942   4.375  14.118  0.00  0.00    +0.000 N 
ATOM      7  C   UNL     1       4.896   3.892  14.870  0.00  0.00    +0.000 A 
ATOM      8  N   UNL     1       4.796   3.918  16.163  0.00  0.00    +0.000 NA
ATOM      9  C   UNL     1       5.880   4.525  16.798  0.00  0.00    +0.000 A 
ATOM     10  C   UNL     1       6.049   4.779  18.183  0.00  0.00    +0.000 A 
ATOM     11  H   UNL     1       8.671   6.054  16.772  0.00  0.00    +0.000 HD
ATOM     12  H   UNL     1       5.934   4.311  13.111  0.00  0.00    +0.000 HD
ENDROOT
BRANCH  10  13
ATOM     13  C   UNL     1       5.074   4.540  19.313  0.00  0.00    +0.000 C 
ATOM     14  N   UNL     1       4.864   3.061  19.436  0.00  0.00    +0.000 NA
ATOM     15  CA  UNL     1       3.443   2.805  19.023  0.00  0.00    +0.000 C 
ATOM     16  C   UNL     1       2.857   4.112  18.486  0.00  0.00    +0.000 C 
ATOM     17  C   UNL     1       3.677   5.172  19.212  0.00  0.00    +0.000 C 
ATOM     18  H   UNL     1       4.899   2.837  20.438  0.00  0.00    +0.000 HD
BRANCH  16  19
ATOM     19  O   UNL     1       1.471   4.226  18.805  0.00  0.00    +0.000 OA
ATOM     20  H   UNL     1       0.999   3.636  18.182  0.00  0.00    +0.000 HD
ENDBRANCH  16  19
BRANCH  17  21
ATOM     21  O   UNL     1       3.097   5.388  20.520  0.00  0.00    +0.000 OA
ATOM     22  H   UNL     1       3.288   4.612  21.076  0.00  0.00    +0.000 HD
ENDBRANCH  17  21
BRANCH  15  23
ATOM     23  C   UNL     1       3.339   1.662  18.008  0.00  0.00    +0.000 C 
BRANCH  23  24
ATOM     24  O   UNL     1       4.170   0.576  18.415  0.00  0.00    +0.000 OA
ATOM     25  H   UNL     1       4.805   0.432  17.692  0.00  0.00    +0.000 HD
ENDBRANCH  23  24
ENDBRANCH  15  23
ENDBRANCH  10  13
BRANCH   1  27
ATOM     26  O   UNL     1       8.157   5.349  20.481  0.00  0.00    +0.000 OA
ATOM     27  C   UNL     1       8.052   5.920  19.407  0.00  0.00    +0.000 C 
BRANCH  27  28
ATOM     28  OXT UNL     1       8.568   7.146  19.177  0.00  0.00    +0.000 OA
ATOM     29  HXT UNL     1       8.209   7.804  19.817  0.00  0.00    +0.000 HD
ENDBRANCH  27  28
ENDBRANCH   1  27
TORSDOF 7
ENDMDL
MODEL 2
REMARK VINA RESULT:      -8.0      2.179      5.292
REMARK  Name = 
REMARK  7 active torsions:
REMARK  status: ('A' for Active; 'I' for Inactive)
REMARK    1  A    between atoms: C_2  and  OXT_3
REMARK    2  A    between atoms: C_2  and  CA_4
REMARK    3  A    between atoms: C_13  and  C_14
REMARK    4  A    between atoms: CA_16  and  C_17
REMARK    5  A    between atoms: C_17  and  O_18
REMARK    6  A    between atoms: C_19  and  O_20
REMARK    7  A    between atoms: C_21  and  O_22
REMARK                            x       y       z     vdW  Elec       q    Type
REMARK                         _______ _______ _______ _____ _____    ______ ____
ROOT
ATOM      1  CA  UNL     1       2.622   6.084  18.769  0.00  0.00    +0.000 A 
ATOM      2  N   UNL     1       1.657   5.119  18.998  0.00  0.00    +0.000 N 
ATOM      3  C   UNL     1       2.119   3.905  18.589  0.00  0.00    +0.000 A 
ATOM      4  C   UNL     1       1.473   2.637  18.644  0.00  0.00    +0.000 A 
ATOM      5  O   UNL     1       0.334   2.439  19.044  0.00  0.00    +0.000 OA
ATOM      6  N   UNL     1       2.293   1.633  18.191  0.00  0.00    +0.000 N 
ATOM      7  C   UNL     1       3.571   1.868  17.736  0.00  0.00    +0.000 A 
ATOM      8  N   UNL     1       4.167   3.018  17.664  0.00  0.00    +0.000 NA
ATOM      9  C   UNL     1       3.391   4.083  18.124  0.00  0.00    +0.000 A 
ATOM     10  C   UNL     1       3.765   5.445  18.249  0.00  0.00    +0.000 A 
ATOM     11  H   UNL     1       0.747   5.296  19.414  0.00  0.00    +0.000 HD
ATOM     12  H   UNL     1       1.911   0.699  18.211  0.00  0.00    +0.000 HD
ENDROOT
BRANCH  10  13
ATOM     13  C   UNL     1       5.114   6.080  18.000  0.00  0.00    +0.000 C 
ATOM     14  N   UNL     1       5.299   6.203  16.517  0.00  0.00    +0.000 NA
ATOM     15  CA  UNL     1       6.406   5.254  16.155  0.00  0.00    +0.000 C 
ATOM     16  C   UNL     1       6.763   4.437  17.398  0.00  0.00    +0.000 C 
ATOM     17  C   UNL     1       6.364   5.367  18.538  0.00  0.00    +0.000 C 
ATOM     18  H   UNL     1       5.679   7.141  16.340  0.00  0.00    +0.000 HD
BRANCH  16  19
ATOM     19  O   UNL     1       8.159   4.143  17.439  0.00  0.00    +0.000 OA
ATOM     20  H   UNL     1       8.391   4.058  18.387  0.00  0.00    +0.000 HD
ENDBRANCH  16  19
BRANCH  17  21
ATOM     21  O   UNL     1       7.446   6.297  18.774  0.00  0.00    +0.000 OA
ATOM     22  H   UNL     1       7.963   5.983  19.538  0.00  0.00    +0.000 HD
ENDBRANCH  17  21
BRANCH  15  23
ATOM     23  C   UNL     1       6.032   4.366  14.964  0.00  0.00    +0.000 C 
BRANCH  23  24
ATOM     24  O   UNL     1       6.050   2.995  15.359  0.00  0.00    +0.000 OA
ATOM     25  H   UNL     1       5.206   2.614  15.059  0.00  0.00    +0.000 HD
ENDBRANCH  23  24
ENDBRANCH  15  23
ENDBRANCH  10  13
BRANCH   1  27
ATOM     26  O   UNL     1       2.393   8.394  18.330  0.00  0.00    +0.000 OA
ATOM     27  C   UNL     1       2.352   7.460  19.115  0.00  0.00    +0.000 C 
BRANCH  27  28
ATOM     28  OXT UNL     1       2.123   7.625  20.436  0.00  0.00    +0.000 OA
ATOM     29  HXT UNL     1       2.132   6.758  20.905  0.00  0.00    +0.000 HD
ENDBRANCH  27  28
ENDBRANCH   1  27
TORSDOF 7
ENDMDL
MODEL 3
REMARK VINA RESULT:      -7.9      2.061      5.452
REMARK  Name = 
REMARK  7 active torsions:
REMARK  status: ('A' for Active; 'I' for Inactive)
REMARK    1  A    between atoms: C_2  and  OXT_3
REMARK    2  A    between atoms: C_2  and  CA_4
REMARK    3  A    between atoms: C_13  and  C_14
REMARK    4  A    between atoms: CA_16  and  C_17
REMARK    5  A    between atoms: C_17  and  O_18
REMARK    6  A    between atoms: C_19  and  O_20
REMARK    7  A    between atoms: C_21  and  O_22
REMARK                            x       y       z     vdW  Elec       q    Type
REMARK                         _______ _______ _______ _____ _____    ______ ____
ROOT
ATOM      1  CA  UNL     1       2.683   5.935  18.778  0.00  0.00    +0.000 A 
ATOM      2  N   UNL     1       1.635   5.031  18.803  0.00  0.00    +0.000 N 
ATOM      3  C   UNL     1       2.120   3.766  18.667  0.00  0.00    +0.000 A 
ATOM      4  C   UNL     1       1.409   2.533  18.650  0.00  0.00    +0.000 A 
ATOM      5  O   UNL     1       0.192   2.415  18.713  0.00  0.00    +0.000 OA
ATOM      6  N   UNL     1       2.260   1.460  18.558  0.00  0.00    +0.000 N 
ATOM      7  C   UNL     1       3.627   1.603  18.481  0.00  0.00    +0.000 A 
ATOM      8  N   UNL     1       4.289   2.720  18.479  0.00  0.00    +0.000 NA
ATOM      9  C   UNL     1       3.481   3.852  18.585  0.00  0.00    +0.000 A 
ATOM     10  C   UNL     1       3.886   5.207  18.683  0.00  0.00    +0.000 A 
ATOM     11  H   UNL     1       0.657   5.282  18.912  0.00  0.00    +0.000 HD
ATOM     12  H   UNL     1       1.832   0.546  18.553  0.00  0.00    +0.000 HD
ENDROOT
BRANCH  10  13
ATOM     13  C   UNL     1       5.286   5.769  18.785  0.00  0.00    +0.000 C 
ATOM     14  N   UNL     1       5.560   6.550  17.535  0.00  0.00    +0.000 NA
ATOM     15  CA  UNL     1       6.621   5.789  16.791  0.00  0.00    +0.000 C 
ATOM     16  C   UNL     1       6.853   4.461  17.514  0.00  0.00    +0.000 C 
ATOM     17  C   UNL     1       6.454   4.785  18.949  0.00  0.00    +0.000 C 
ATOM     18  H   UNL     1       6.010   7.427  17.823  0.00  0.00    +0.000 HD
BRANCH  16  19
ATOM     19  O   UNL     1       8.221   4.065  17.438  0.00  0.00    +0.000 OA
ATOM     20  H   UNL     1       8.660   4.448  18.226  0.00  0.00    +0.000 HD
ENDBRANCH  16  19
BRANCH  17  21
ATOM     21  O   UNL     1       7.580   5.404  19.613  0.00  0.00    +0.000 OA
ATOM     22  H   UNL     1       8.032   5.987  18.977  0.00  0.00    +0.000 HD
ENDBRANCH  17  21
BRANCH  15  23
ATOM     23  C   UNL     1       6.255   5.591  15.317  0.00  0.00    +0.000 C 
BRANCH  23  24
ATOM     24  O   UNL     1       7.422   5.255  14.569  0.00  0.00    +0.000 OA
ATOM     25  H   UNL     1       8.179   5.408  15.162  0.00  0.00    +0.000 HD
ENDBRANCH  23  24
ENDBRANCH  15  23
ENDBRANCH  10  13
BRANCH   1  27
ATOM     26  O   UNL     1       1.838   7.867  19.842  0.00  0.00    +0.000 OA
ATOM     27  C   UNL     1       2.409   7.348  18.896  0.00  0.00    +0.000 C 
BRANCH  27  28
ATOM     28  OXT UNL     1       2.784   8.041  17.798  0.00  0.00    +0.000 OA
ATOM     29  HXT UNL     1       2.198   7.832  17.034  0.00  0.00    +0.000 HD
ENDBRANCH  27  28
ENDBRANCH   1  27
TORSDOF 7
ENDMDL
MODEL 4
REMARK VINA RESULT:      -7.8      0.795      1.041
REMARK  Name = 
REMARK  7 active torsions:
REMARK  status: ('A' for Active; 'I' for Inactive)
REMARK    1  A    between atoms: C_2  and  OXT_3
REMARK    2  A    between atoms: C_2  and  CA_4
REMARK    3  A    between atoms: C_13  and  C_14
REMARK    4  A    between atoms: CA_16  and  C_17
REMARK    5  A    between atoms: C_17  and  O_18
REMARK    6  A    between atoms: C_19  and  O_20
REMARK    7  A    between atoms: C_21  and  O_22
REMARK                            x       y       z     vdW  Elec       q    Type
REMARK                         _______ _______ _______ _____ _____    ______ ____
ROOT
ATOM      1  CA  UNL     1       7.281   6.003  17.661  0.00  0.00    +0.000 A 
ATOM      2  N   UNL     1       7.679   6.031  16.335  0.00  0.00    +0.000 N 
ATOM      3  C   UNL     1       6.881   5.206  15.602  0.00  0.00    +0.000 A 
ATOM      4  C   UNL     1       6.919   4.935  14.205  0.00  0.00    +0.000 A 
ATOM      5  O   UNL     1       7.739   5.387  13.417  0.00  0.00    +0.000 OA
ATOM      6  N   UNL     1       5.903   4.093  13.826  0.00  0.00    +0.000 N 
ATOM      7  C   UNL     1       4.989   3.584  14.721  0.00  0.00    +0.000 A 
ATOM      8  N   UNL     1       4.951   3.808  15.999  0.00  0.00    +0.000 NA
ATOM      9  C   UNL     1       5.951   4.672  16.448  0.00  0.00    +0.000 A 
ATOM     10  C   UNL     1       6.146   5.174  17.760  0.00  0.00    +0.000 A 
ATOM     11  H   UNL     1       8.446   6.588  15.972  0.00  0.00    +0.000 HD
ATOM     12  H   UNL     1       5.854   3.862  12.845  0.00  0.00    +0.000 HD
ENDROOT
BRANCH  10  13
ATOM     13  C   UNL     1       5.281   4.977  18.984  0.00  0.00    +0.000 C 
ATOM     14  N   UNL     1       5.184   3.505  19.248  0.00  0.00    +0.000 NA
ATOM     15  CA  UNL     1       3.755   3.126  18.979  0.00  0.00    +0.000 C 
ATOM     16  C   UNL     1       3.041   4.342  18.386  0.00  0.00    +0.000 C 
ATOM     17  C   UNL     1       3.841   5.510  18.949  0.00  0.00    +0.000 C 
ATOM     18  H   UNL     1       5.313   3.373  20.258  0.00  0.00    +0.000 HD
BRANCH  16  19
ATOM     19  O   UNL     1       1.680   4.398  18.811  0.00  0.00    +0.000 OA
ATOM     20  H   UNL     1       1.194   3.755  18.254  0.00  0.00    +0.000 HD
ENDBRANCH  16  19
BRANCH  17  21
ATOM     21  O   UNL     1       3.352   5.805  20.279  0.00  0.00    +0.000 OA
ATOM     22  H   UNL     1       2.889   5.020  20.620  0.00  0.00    +0.000 HD
ENDBRANCH  17  21
BRANCH  15  23
ATOM     23  C   UNL     1       3.650   1.894  18.076  0.00  0.00    +0.000 C 
BRANCH  23  24
ATOM     24  O   UNL     1       2.288   1.673  17.715  0.00  0.00    +0.000 OA
ATOM     25  H   UNL     1       2.299   1.025  16.988  0.00  0.00    +0.000 HD
ENDBRANCH  23  24
ENDBRANCH  15  23
ENDBRANCH  10  13
BRANCH   1  27
ATOM     26  O   UNL     1       8.290   7.972  18.488  0.00  0.00    +0.000 OA
ATOM     27  C   UNL     1       7.992   6.797  18.636  0.00  0.00    +0.000 C 
BRANCH  27  28
ATOM     28  OXT UNL     1       8.371   6.075  19.712  0.00  0.00    +0.000 OA
ATOM     29  HXT UNL     1       9.340   5.894  19.689  0.00  0.00    +0.000 HD
ENDBRANCH  27  28
ENDBRANCH   1  27
TORSDOF 7
ENDMDL
MODEL 5
REMARK VINA RESULT:      -7.5      2.216      5.637
REMARK  Name = 
REMARK  7 active torsions:
REMARK  status: ('A' for Active; 'I' for Inactive)
REMARK    1  A    between atoms: C_2  and  OXT_3
REMARK    2  A    between atoms: C_2  and  CA_4
REMARK    3  A    between atoms: C_13  and  C_14
REMARK    4  A    between atoms: CA_16  and  C_17
REMARK    5  A    between atoms: C_17  and  O_18
REMARK    6  A    between atoms: C_19  and  O_20
REMARK    7  A    between atoms: C_21  and  O_22
REMARK                            x       y       z     vdW  Elec       q    Type
REMARK                         _______ _______ _______ _____ _____    ______ ____
ROOT
ATOM      1  CA  UNL     1       2.906   6.499  18.734  0.00  0.00    +0.000 A 
ATOM      2  N   UNL     1       2.076   5.702  19.505  0.00  0.00    +0.000 N 
ATOM      3  C   UNL     1       2.696   4.518  19.766  0.00  0.00    +0.000 A 
ATOM      4  C   UNL     1       2.225   3.410  20.526  0.00  0.00    +0.000 A 
ATOM      5  O   UNL     1       1.121   3.328  21.049  0.00  0.00    +0.000 OA
ATOM      6  N   UNL     1       3.171   2.420  20.615  0.00  0.00    +0.000 N 
ATOM      7  C   UNL     1       4.407   2.519  20.017  0.00  0.00    +0.000 A 
ATOM      8  N   UNL     1       4.845   3.513  19.308  0.00  0.00    +0.000 NA
ATOM      9  C   UNL     1       3.935   4.564  19.191  0.00  0.00    +0.000 A 
ATOM     10  C   UNL     1       4.124   5.816  18.552  0.00  0.00    +0.000 A 
ATOM     11  H   UNL     1       1.151   5.969  19.826  0.00  0.00    +0.000 HD
ATOM     12  H   UNL     1       2.916   1.603  21.151  0.00  0.00    +0.000 HD
ENDROOT
BRANCH  10  13
ATOM     13  C   UNL     1       5.377   6.369  17.912  0.00  0.00    +0.000 C 
ATOM     14  N   UNL     1       5.175   6.368  16.427  0.00  0.00    +0.000 NA
ATOM     15  CA  UNL     1       6.128   5.346  15.876  0.00  0.00    +0.000 C 
ATOM     16  C   UNL     1       6.775   4.612  17.052  0.00  0.00    +0.000 C 
ATOM     17  C   UNL     1       6.706   5.644  18.172  0.00  0.00    +0.000 C 
ATOM     18  H   UNL     1       5.517   7.272  16.078  0.00  0.00    +0.000 HD
BRANCH  16  19
ATOM     19  O   UNL     1       8.127   4.260  16.760  0.00  0.00    +0.000 OA
ATOM     20  H   UNL     1       8.201   4.253  15.783  0.00  0.00    +0.000 HD
ENDBRANCH  16  19
BRANCH  17  21
ATOM     21  O   UNL     1       7.834   6.540  18.043  0.00  0.00    +0.000 OA
ATOM     22  H   UNL     1       7.844   6.898  17.137  0.00  0.00    +0.000 HD
ENDBRANCH  17  21
BRANCH  15  23
ATOM     23  C   UNL     1       5.438   4.387  14.902  0.00  0.00    +0.000 C 
BRANCH  23  24
ATOM     24  O   UNL     1       6.399   3.496  14.337  0.00  0.00    +0.000 OA
ATOM     25  H   UNL     1       5.929   2.662  14.163  0.00  0.00    +0.000 HD
ENDBRANCH  23  24
ENDBRANCH  15  23
ENDBRANCH  10  13
BRANCH   1  27
ATOM     26  O   UNL     1       2.697   8.314  17.237  0.00  0.00    +0.000 OA
ATOM     27  C   UNL     1       2.455   7.808  18.321  0.00  0.00    +0.000 C 
BRANCH  27  28
ATOM     28  OXT UNL     1       1.793   8.460  19.302  0.00  0.00    +0.000 OA
ATOM     29  HXT UNL     1       1.179   9.132  18.924  0.00  0.00    +0.000 HD
ENDBRANCH  27  28
ENDBRANCH   1  27
TORSDOF 7
ENDMDL
MODEL 6
REMARK VINA RESULT:      -7.5      2.325      3.733
REMARK  Name = 
REMARK  7 active torsions:
REMARK  status: ('A' for Active; 'I' for Inactive)
REMARK    1  A    between atoms: C_2  and  OXT_3
REMARK    2  A    between atoms: C_2  and  CA_4
REMARK    3  A    between atoms: C_13  and  C_14
REMARK    4  A    between atoms: CA_16  and  C_17
REMARK    5  A    between atoms: C_17  and  O_18
REMARK    6  A    between atoms: C_19  and  O_20
REMARK    7  A    between atoms: C_21  and  O_22
REMARK                            x       y       z     vdW  Elec       q    Type
REMARK                         _______ _______ _______ _____ _____    ______ ____
ROOT
ATOM      1  CA  UNL     1       3.526   7.279  18.003  0.00  0.00    +0.000 A 
ATOM      2  N   UNL     1       4.759   7.710  17.543  0.00  0.00    +0.000 N 
ATOM      3  C   UNL     1       5.633   6.666  17.538  0.00  0.00    +0.000 A 
ATOM      4  C   UNL     1       6.998   6.646  17.135  0.00  0.00    +0.000 A 
ATOM      5  O   UNL     1       7.640   7.616  16.755  0.00  0.00    +0.000 OA
ATOM      6  N   UNL     1       7.530   5.382  17.215  0.00  0.00    +0.000 N 
ATOM      7  C   UNL     1       6.802   4.298  17.650  0.00  0.00    +0.000 A 
ATOM      8  N   UNL     1       5.563   4.304  18.036  0.00  0.00    +0.000 NA
ATOM      9  C   UNL     1       4.957   5.559  17.965  0.00  0.00    +0.000 A 
ATOM     10  C   UNL     1       3.607   5.893  18.241  0.00  0.00    +0.000 A 
ATOM     11  H   UNL     1       4.968   8.660  17.251  0.00  0.00    +0.000 HD
ATOM     12  H   UNL     1       8.494   5.283  16.933  0.00  0.00    +0.000 HD
ENDROOT
BRANCH  10  13
ATOM     13  C   UNL     1       2.461   4.974  18.598  0.00  0.00    +0.000 C 
ATOM     14  N   UNL     1       2.721   4.425  19.969  0.00  0.00    +0.000 NA
ATOM     15  CA  UNL     1       2.985   2.957  19.788  0.00  0.00    +0.000 C 
ATOM     16  C   UNL     1       3.055   2.665  18.287  0.00  0.00    +0.000 C 
ATOM     17  C   UNL     1       2.188   3.766  17.689  0.00  0.00    +0.000 C 
ATOM     18  H   UNL     1       1.834   4.478  20.485  0.00  0.00    +0.000 HD
BRANCH  16  19
ATOM     19  O   UNL     1       2.526   1.374  17.988  0.00  0.00    +0.000 OA
ATOM     20  H   UNL     1       1.733   1.267  18.555  0.00  0.00    +0.000 HD
ENDBRANCH  16  19
BRANCH  17  21
ATOM     21  O   UNL     1       0.803   3.352  17.759  0.00  0.00    +0.000 OA
ATOM     22  H   UNL     1       0.469   3.236  16.851  0.00  0.00    +0.000 HD
ENDBRANCH  17  21
BRANCH  15  23
ATOM     23  C   UNL     1       4.249   2.508  20.526  0.00  0.00    +0.000 C 
BRANCH  23  24
ATOM     24  O   UNL     1       5.065   1.725  19.656  0.00  0.00    +0.000 OA
ATOM     25  H   UNL     1       4.790   1.948  18.750  0.00  0.00    +0.000 HD
ENDBRANCH  23  24
ENDBRANCH  15  23
ENDBRANCH  10  13
BRANCH   1  27
ATOM     26  O   UNL     1       2.086   8.978  17.215  0.00  0.00    +0.000 OA
ATOM     27  C   UNL     1       2.435   8.220  18.107  0.00  0.00    +0.000 C 
BRANCH  27  28
ATOM     28  OXT UNL     1       1.881   8.236  19.339  0.00  0.00    +0.000 OA
ATOM     29  HXT UNL     1       2.571   8.140  20.036  0.00  0.00    +0.000 HD
ENDBRANCH  27  28
ENDBRANCH   1  27
TORSDOF 7
ENDMDL
MODEL 7
REMARK VINA RESULT:      -7.4      2.703      4.427
REMARK  Name = 
REMARK  7 active torsions:
REMARK  status: ('A' for Active; 'I' for Inactive)
REMARK    1  A    between atoms: C_2  and  OXT_3
REMARK    2  A    between atoms: C_2  and  CA_4
REMARK    3  A    between atoms: C_13  and  C_14
REMARK    4  A    between atoms: CA_16  and  C_17
REMARK    5  A    between atoms: C_17  and  O_18
REMARK    6  A    between atoms: C_19  and  O_20
REMARK    7  A    between atoms: C_21  and  O_22
REMARK                            x       y       z     vdW  Elec       q    Type
REMARK                         _______ _______ _______ _____ _____    ______ ____
ROOT
ATOM      1  CA  UNL     1       4.685   5.071  16.802  0.00  0.00    +0.000 A 
ATOM      2  N   UNL     1       4.388   6.422  16.736  0.00  0.00    +0.000 N 
ATOM      3  C   UNL     1       3.504   6.744  17.720  0.00  0.00    +0.000 A 
ATOM      4  C   UNL     1       2.935   8.011  18.033  0.00  0.00    +0.000 A 
ATOM      5  O   UNL     1       3.127   9.047  17.409  0.00  0.00    +0.000 OA
ATOM      6  N   UNL     1       2.131   7.944  19.143  0.00  0.00    +0.000 N 
ATOM      7  C   UNL     1       1.916   6.772  19.833  0.00  0.00    +0.000 A 
ATOM      8  N   UNL     1       2.413   5.607  19.551  0.00  0.00    +0.000 NA
ATOM      9  C   UNL     1       3.254   5.609  18.438  0.00  0.00    +0.000 A 
ATOM     10  C   UNL     1       4.007   4.529  17.912  0.00  0.00    +0.000 A 
ATOM     11  H   UNL     1       4.779   7.068  16.057  0.00  0.00    +0.000 HD
ATOM     12  H   UNL     1       1.700   8.808  19.437  0.00  0.00    +0.000 HD
ENDROOT
BRANCH  10  13
ATOM     13  C   UNL     1       4.162   3.129  18.462  0.00  0.00    +0.000 C 
ATOM     14  N   UNL     1       2.893   2.382  18.182  0.00  0.00    +0.000 NA
ATOM     15  CA  UNL     1       2.250   2.134  19.518  0.00  0.00    +0.000 C 
ATOM     16  C   UNL     1       3.051   2.889  20.581  0.00  0.00    +0.000 C 
ATOM     17  C   UNL     1       4.442   2.966  19.964  0.00  0.00    +0.000 C 
ATOM     18  H   UNL     1       3.163   1.453  17.837  0.00  0.00    +0.000 HD
BRANCH  16  19
ATOM     19  O   UNL     1       3.075   2.172  21.814  0.00  0.00    +0.000 OA
ATOM     20  H   UNL     1       2.532   1.368  21.672  0.00  0.00    +0.000 HD
ENDBRANCH  16  19
BRANCH  17  21
ATOM     21  O   UNL     1       5.139   1.729  20.242  0.00  0.00    +0.000 OA
ATOM     22  H   UNL     1       6.081   1.849  20.027  0.00  0.00    +0.000 HD
ENDBRANCH  17  21
BRANCH  15  23
ATOM     23  C   UNL     1       0.769   2.525  19.522  0.00  0.00    +0.000 C 
BRANCH  23  24
ATOM     24  O   UNL     1       0.518   3.458  20.571  0.00  0.00    +0.000 OA
ATOM     25  H   UNL     1       0.007   2.978  21.246  0.00  0.00    +0.000 HD
ENDBRANCH  23  24
ENDBRANCH  15  23
ENDBRANCH  10  13
BRANCH   1  27
ATOM     26  O   UNL     1       5.363   4.359  14.655  0.00  0.00    +0.000 OA
ATOM     27  C   UNL     1       5.599   4.494  15.845  0.00  0.00    +0.000 C 
BRANCH  27  28
ATOM     28  OXT UNL     1       6.732   4.038  16.422  0.00  0.00    +0.000 OA
ATOM     29  HXT UNL     1       7.321   4.785  16.678  0.00  0.00    +0.000 HD
ENDBRANCH  27  28
ENDBRANCH   1  27
TORSDOF 7
ENDMDL
MODEL 8
REMARK VINA RESULT:      -7.4      2.633      5.691
REMARK  Name = 
REMARK  7 active torsions:
REMARK  status: ('A' for Active; 'I' for Inactive)
REMARK    1  A    between atoms: C_2  and  OXT_3
REMARK    2  A    between atoms: C_2  and  CA_4
REMARK    3  A    between atoms: C_13  and  C_14
REMARK    4  A    between atoms: CA_16  and  C_17
REMARK    5  A    between atoms: C_17  and  O_18
REMARK    6  A    between atoms: C_19  and  O_20
REMARK    7  A    between atoms: C_21  and  O_22
REMARK                            x       y       z     vdW  Elec       q    Type
REMARK                         _______ _______ _______ _____ _____    ______ ____
ROOT
ATOM      1  CA  UNL     1       3.262   4.371  20.126  0.00  0.00    +0.000 A 
ATOM      2  N   UNL     1       2.413   5.293  20.715  0.00  0.00    +0.000 N 
ATOM      3  C   UNL     1       2.384   6.429  19.965  0.00  0.00    +0.000 A 
ATOM      4  C   UNL     1       1.644   7.626  20.183  0.00  0.00    +0.000 A 
ATOM      5  O   UNL     1       0.920   7.846  21.145  0.00  0.00    +0.000 OA
ATOM      6  N   UNL     1       1.831   8.528  19.166  0.00  0.00    +0.000 N 
ATOM      7  C   UNL     1       2.654   8.274  18.092  0.00  0.00    +0.000 A 
ATOM      8  N   UNL     1       3.347   7.197  17.887  0.00  0.00    +0.000 NA
ATOM      9  C   UNL     1       3.189   6.229  18.880  0.00  0.00    +0.000 A 
ATOM     10  C   UNL     1       3.743   4.924  18.923  0.00  0.00    +0.000 A 
ATOM     11  H   UNL     1       1.891   5.135  21.571  0.00  0.00    +0.000 HD
ATOM     12  H   UNL     1       1.328   9.400  19.241  0.00  0.00    +0.000 HD
ENDROOT
BRANCH  10  13
ATOM     13  C   UNL     1       4.569   4.215  17.875  0.00  0.00    +0.000 C 
ATOM     14  N   UNL     1       5.894   3.872  18.488  0.00  0.00    +0.000 NA
ATOM     15  CA  UNL     1       6.913   4.720  17.781  0.00  0.00    +0.000 C 
ATOM     16  C   UNL     1       6.171   5.697  16.866  0.00  0.00    +0.000 C 
ATOM     17  C   UNL     1       4.874   4.956  16.565  0.00  0.00    +0.000 C 
ATOM     18  H   UNL     1       6.110   2.906  18.213  0.00  0.00    +0.000 HD
BRANCH  16  19
ATOM     19  O   UNL     1       6.910   5.946  15.671  0.00  0.00    +0.000 OA
ATOM     20  H   UNL     1       7.388   5.115  15.468  0.00  0.00    +0.000 HD
ENDBRANCH  16  19
BRANCH  17  21
ATOM     21  O   UNL     1       5.111   4.034  15.476  0.00  0.00    +0.000 OA
ATOM     22  H   UNL     1       4.439   4.187  14.788  0.00  0.00    +0.000 HD
ENDBRANCH  17  21
BRANCH  15  23
ATOM     23  C   UNL     1       7.841   5.439  18.765  0.00  0.00    +0.000 C 
BRANCH  23  24
ATOM     24  O   UNL     1       7.280   5.400  20.076  0.00  0.00    +0.000 OA
ATOM     25  H   UNL     1       8.022   5.522  20.694  0.00  0.00    +0.000 HD
ENDBRANCH  23  24
ENDBRANCH  15  23
ENDBRANCH  10  13
BRANCH   1  27
ATOM     26  O   UNL     1       4.171   2.198  20.303  0.00  0.00    +0.000 OA
ATOM     27  C   UNL     1       3.462   3.085  20.752  0.00  0.00    +0.000 C 
BRANCH  27  28
ATOM     28  OXT UNL     1       2.710   2.928  21.863  0.00  0.00    +0.000 OA
ATOM     29  HXT UNL     1       3.220   3.174  22.670  0.00  0.00    +0.000 HD
ENDBRANCH  27  28
ENDBRANCH   1  27
TORSDOF 7
ENDMDL
MODEL 9
REMARK VINA RESULT:      -7.4      2.449      4.218
REMARK  Name = 
REMARK  7 active torsions:
REMARK  status: ('A' for Active; 'I' for Inactive)
REMARK    1  A    between atoms: C_2  and  OXT_3
REMARK    2  A    between atoms: C_2  and  CA_4
REMARK    3  A    between atoms: C_13  and  C_14
REMARK    4  A    between atoms: CA_16  and  C_17
REMARK    5  A    between atoms: C_17  and  O_18
REMARK    6  A    between atoms: C_19  and  O_20
REMARK    7  A    between atoms: C_21  and  O_22
REMARK                            x       y       z     vdW  Elec       q    Type
REMARK                         _______ _______ _______ _____ _____    ______ ____
ROOT
ATOM      1  CA  UNL     1       4.563   3.493  19.140  0.00  0.00    +0.000 A 
ATOM      2  N   UNL     1       5.857   3.505  18.645  0.00  0.00    +0.000 N 
ATOM      3  C   UNL     1       5.967   4.461  17.682  0.00  0.00    +0.000 A 
ATOM      4  C   UNL     1       7.109   4.830  16.917  0.00  0.00    +0.000 A 
ATOM      5  O   UNL     1       8.207   4.292  16.975  0.00  0.00    +0.000 OA
ATOM      6  N   UNL     1       6.839   5.890  16.086  0.00  0.00    +0.000 N 
ATOM      7  C   UNL     1       5.599   6.484  16.022  0.00  0.00    +0.000 A 
ATOM      8  N   UNL     1       4.545   6.149  16.701  0.00  0.00    +0.000 NA
ATOM      9  C   UNL     1       4.756   5.085  17.578  0.00  0.00    +0.000 A 
ATOM     10  C   UNL     1       3.843   4.525  18.507  0.00  0.00    +0.000 A 
ATOM     11  H   UNL     1       6.603   2.894  18.962  0.00  0.00    +0.000 HD
ATOM     12  H   UNL     1       7.604   6.220  15.517  0.00  0.00    +0.000 HD
ENDROOT
BRANCH  10  13
ATOM     13  C   UNL     1       2.444   4.983  18.849  0.00  0.00    +0.000 C 
ATOM     14  N   UNL     1       2.034   6.007  17.833  0.00  0.00    +0.000 NA
ATOM     15  CA  UNL     1       1.940   7.313  18.570  0.00  0.00    +0.000 C 
ATOM     16  C   UNL     1       2.466   7.099  19.991  0.00  0.00    +0.000 C 
ATOM     17  C   UNL     1       2.203   5.617  20.227  0.00  0.00    +0.000 C 
ATOM     18  H   UNL     1       1.070   5.784  17.556  0.00  0.00    +0.000 HD
BRANCH  16  19
ATOM     19  O   UNL     1       1.754   7.904  20.930  0.00  0.00    +0.000 OA
ATOM     20  H   UNL     1       1.234   8.544  20.401  0.00  0.00    +0.000 HD
ENDBRANCH  16  19
BRANCH  17  21
ATOM     21  O   UNL     1       0.830   5.454  20.654  0.00  0.00    +0.000 OA
ATOM     22  H   UNL     1       0.820   4.920  21.468  0.00  0.00    +0.000 HD
ENDBRANCH  17  21
BRANCH  15  23
ATOM     23  C   UNL     1       2.683   8.436  17.840  0.00  0.00    +0.000 C 
BRANCH  23  24
ATOM     24  O   UNL     1       1.756   9.433  17.415  0.00  0.00    +0.000 OA
ATOM     25  H   UNL     1       2.087  10.280  17.761  0.00  0.00    +0.000 HD
ENDBRANCH  23  24
ENDBRANCH  15  23
ENDBRANCH  10  13
BRANCH   1  27
ATOM     26  O   UNL     1       3.188   2.612  20.847  0.00  0.00    +0.000 OA
ATOM     27  C   UNL     1       4.203   2.547  20.171  0.00  0.00    +0.000 C 
BRANCH  27  28
ATOM     28  OXT UNL     1       5.156   1.611  20.370  0.00  0.00    +0.000 OA
ATOM     29  HXT UNL     1       6.054   2.018  20.367  0.00  0.00    +0.000 HD
ENDBRANCH  27  28
ENDBRANCH   1  27
TORSDOF 7
ENDMDL
