MODEL 1
REMARK VINA RESULT:      -7.5      0.000      0.000
REMARK  Name = 
REMARK  13 active torsions:
REMARK  status: ('A' for Active; 'I' for Inactive)
REMARK    1  A    between atoms: C_1  and  C_2
REMARK    2  A    between atoms: C_2  and  O_3
REMARK    3  A    between atoms: O_3  and  C_4
REMARK    4  A    between atoms: C_4  and  C_6
REMARK    5  A    between atoms: C_7  and  N_8
REMARK    6  A    between atoms: C_9  and  C_11
REMARK    7  A    between atoms: C_11  and  O_12
REMARK    8  A    between atoms: O_12  and  C_13
REMARK    9  A    between atoms: C_16  and  C_17
REMARK   10  A    between atoms: C_22  and  C_23
REMARK   11  A    between atoms: C_23  and  O_25
REMARK   12  A    between atoms: O_25  and  C_26
REMARK   13  A    between atoms: C_27  and  C_28
REMARK                            x       y       z     vdW  Elec       q    Type
REMARK                         _______ _______ _______ _____ _____    ______ ____
ROOT
ATOM      1  C   UNL     1       3.058   5.227  17.948  0.00  0.00    +0.000 A 
ATOM      2  C   UNL     1       3.305   6.578  17.748  0.00  0.00    +0.000 A 
ATOM      3  S   UNL     1       4.910   6.881  17.249  0.00  0.00    +0.000 S 
ATOM      4  C   UNL     1       5.407   5.257  17.494  0.00  0.00    +0.000 A 
ATOM      5  C   UNL     1       4.308   4.457  17.809  0.00  0.00    +0.000 A 
ATOM      6  C   UNL     1       4.359   2.957  17.980  0.00  0.00    +0.000 C 
ENDROOT
BRANCH   2   7
ATOM      7  N   UNL     1       2.548   7.745  17.826  0.00  0.00    +0.000 N 
ATOM      8  C   UNL     1       2.014   8.181  19.037  0.00  0.00    +0.000 C 
ATOM      9  O   UNL     1       2.170   7.603  20.112  0.00  0.00    +0.000 OA
ATOM     10  H   UNL     1       2.818   8.481  17.183  0.00  0.00    +0.000 HD
BRANCH   8  11
ATOM     11  C   UNL     1       1.221   9.513  18.940  0.00  0.00    +0.000 C 
BRANCH  11  12
ATOM     12  O   UNL     1       0.446   9.557  17.746  0.00  0.00    +0.000 OA
BRANCH  12  13
ATOM     13  C   UNL     1      -0.864   9.960  17.811  0.00  0.00    +0.000 A 
ATOM     14  C   UNL     1      -1.124  10.924  18.794  0.00  0.00    +0.000 A 
ATOM     15  C   UNL     1      -2.379  11.533  18.907  0.00  0.00    +0.000 A 
ATOM     16  C   UNL     1      -3.397  11.188  18.022  0.00  0.00    +0.000 A 
ATOM     17  C   UNL     1      -3.168  10.196  17.059  0.00  0.00    +0.000 A 
ATOM     18  C   UNL     1      -1.904   9.578  16.958  0.00  0.00    +0.000 A 
BRANCH  16  19
ATOM     19  C   UNL     1      -4.697  11.897  18.081  0.00  0.00    +0.000 C 
ATOM     20  O   UNL     1      -5.268  12.299  17.073  0.00  0.00    +0.000 OA
ENDBRANCH  16  19
ENDBRANCH  12  13
ENDBRANCH  11  12
ENDBRANCH   8  11
ENDBRANCH   2   7
BRANCH   1  21
ATOM     21  C   UNL     1       1.758   4.575  18.190  0.00  0.00    +0.000 C 
ATOM     22  O   UNL     1       1.039   4.183  17.271  0.00  0.00    +0.000 OA
BRANCH  21  23
ATOM     23  O   UNL     1       1.356   4.543  19.493  0.00  0.00    +0.000 OA
BRANCH  23  25
ATOM     24  C   UNL     1       1.658   2.760  21.158  0.00  0.00    +0.000 C 
ATOM     25  C   UNL     1       0.886   3.260  19.945  0.00  0.00    +0.000 C 
ENDBRANCH  23  25
ENDBRANCH  21  23
ENDBRANCH   1  21
BRANCH   4  26
ATOM     26  C   UNL     1       6.802   4.827  17.345  0.00  0.00    +0.000 C 
ATOM     27  O   UNL     1       7.388   4.711  16.270  0.00  0.00    +0.000 OA
BRANCH  26  28
ATOM     28  O   UNL     1       7.415   4.550  18.535  0.00  0.00    +0.000 OA
ATOM     29  C   UNL     1       7.814   5.741  19.229  0.00  0.00    +0.000 C 
ENDBRANCH  26  28
ENDBRANCH   4  26
TORSDOF 10
ENDMDL
MODEL 2
REMARK VINA RESULT:      -7.2      2.505      3.100
REMARK  Name = 
REMARK  13 active torsions:
REMARK  status: ('A' for Active; 'I' for Inactive)
REMARK    1  A    between atoms: C_1  and  C_2
REMARK    2  A    between atoms: C_2  and  O_3
REMARK    3  A    between atoms: O_3  and  C_4
REMARK    4  A    between atoms: C_4  and  C_6
REMARK    5  A    between atoms: C_7  and  N_8
REMARK    6  A    between atoms: C_9  and  C_11
REMARK    7  A    between atoms: C_11  and  O_12
REMARK    8  A    between atoms: O_12  and  C_13
REMARK    9  A    between atoms: C_16  and  C_17
REMARK   10  A    between atoms: C_22  and  C_23
REMARK   11  A    between atoms: C_23  and  O_25
REMARK   12  A    between atoms: O_25  and  C_26
REMARK   13  A    between atoms: C_27  and  C_28
REMARK                            x       y       z     vdW  Elec       q    Type
REMARK                         _______ _______ _______ _____ _____    ______ ____
ROOT
ATOM      1  C   UNL     1       3.432   4.574  18.026  0.00  0.00    +0.000 A 
ATOM      2  C   UNL     1       3.697   5.702  18.790  0.00  0.00    +0.000 A 
ATOM      3  S   UNL     1       5.220   6.389  18.434  0.00  0.00    +0.000 S 
ATOM      4  C   UNL     1       5.687   5.092  17.414  0.00  0.00    +0.000 A 
ATOM      5  C   UNL     1       4.618   4.214  17.227  0.00  0.00    +0.000 A 
ATOM      6  C   UNL     1       4.638   3.021  16.300  0.00  0.00    +0.000 C 
ENDROOT
BRANCH   2   7
ATOM      7  N   UNL     1       3.003   6.429  19.756  0.00  0.00    +0.000 N 
ATOM      8  C   UNL     1       2.254   7.553  19.414  0.00  0.00    +0.000 C 
ATOM      9  O   UNL     1       2.128   7.981  18.267  0.00  0.00    +0.000 OA
ATOM     10  H   UNL     1       2.639   5.886  20.530  0.00  0.00    +0.000 HD
BRANCH   8  11
ATOM     11  C   UNL     1       1.529   8.223  20.613  0.00  0.00    +0.000 C 
BRANCH  11  12
ATOM     12  O   UNL     1       0.669   9.267  20.166  0.00  0.00    +0.000 OA
BRANCH  12  13
ATOM     13  C   UNL     1      -0.010  10.019  21.092  0.00  0.00    +0.000 A 
ATOM     14  C   UNL     1      -0.686  11.123  20.555  0.00  0.00    +0.000 A 
ATOM     15  C   UNL     1      -1.528  11.918  21.342  0.00  0.00    +0.000 A 
ATOM     16  C   UNL     1      -1.713  11.608  22.687  0.00  0.00    +0.000 A 
ATOM     17  C   UNL     1      -1.012  10.534  23.250  0.00  0.00    +0.000 A 
ATOM     18  C   UNL     1      -0.156   9.743  22.454  0.00  0.00    +0.000 A 
BRANCH  16  19
ATOM     19  C   UNL     1      -2.674  12.391  23.499  0.00  0.00    +0.000 C 
ATOM     20  O   UNL     1      -3.867  12.115  23.543  0.00  0.00    +0.000 OA
ENDBRANCH  16  19
ENDBRANCH  12  13
ENDBRANCH  11  12
ENDBRANCH   8  11
ENDBRANCH   2   7
BRANCH   1  21
ATOM     21  C   UNL     1       2.160   3.838  17.917  0.00  0.00    +0.000 C 
ATOM     22  O   UNL     1       1.229   4.236  17.217  0.00  0.00    +0.000 OA
BRANCH  21  23
ATOM     23  O   UNL     1       2.043   2.752  18.735  0.00  0.00    +0.000 OA
BRANCH  23  25
ATOM     24  C   UNL     1       1.456   3.309  21.056  0.00  0.00    +0.000 C 
ATOM     25  C   UNL     1       0.973   2.835  19.693  0.00  0.00    +0.000 C 
ENDBRANCH  23  25
ENDBRANCH  21  23
ENDBRANCH   1  21
BRANCH   4  26
ATOM     26  C   UNL     1       7.027   4.994  16.825  0.00  0.00    +0.000 C 
ATOM     27  O   UNL     1       7.950   4.328  17.289  0.00  0.00    +0.000 OA
BRANCH  26  28
ATOM     28  O   UNL     1       7.173   5.733  15.683  0.00  0.00    +0.000 OA
ATOM     29  C   UNL     1       7.136   4.919  14.503  0.00  0.00    +0.000 C 
ENDBRANCH  26  28
ENDBRANCH   4  26
TORSDOF 10
ENDMDL
MODEL 3
REMARK VINA RESULT:      -7.1      2.279      2.686
REMARK  Name = 
REMARK  13 active torsions:
REMARK  status: ('A' for Active; 'I' for Inactive)
REMARK    1  A    between atoms: C_1  and  C_2
REMARK    2  A    between atoms: C_2  and  O_3
REMARK    3  A    between atoms: O_3  and  C_4
REMARK    4  A    between atoms: C_4  and  C_6
REMARK    5  A    between atoms: C_7  and  N_8
REMARK    6  A    between atoms: C_9  and  C_11
REMARK    7  A    between atoms: C_11  and  O_12
REMARK    8  A    between atoms: O_12  and  C_13
REMARK    9  A    between atoms: C_16  and  C_17
REMARK   10  A    between atoms: C_22  and  C_23
REMARK   11  A    between atoms: C_23  and  O_25
REMARK   12  A    between atoms: O_25  and  C_26
REMARK   13  A    between atoms: C_27  and  C_28
REMARK                            x       y       z     vdW  Elec       q    Type
REMARK                         _______ _______ _______ _____ _____    ______ ____
ROOT
ATOM      1  C   UNL     1       2.991   5.086  17.970  0.00  0.00    +0.000 A 
ATOM      2  C   UNL     1       3.187   6.460  17.972  0.00  0.00    +0.000 A 
ATOM      3  S   UNL     1       4.759   6.897  17.464  0.00  0.00    +0.000 S 
ATOM      4  C   UNL     1       5.316   5.275  17.436  0.00  0.00    +0.000 A 
ATOM      5  C   UNL     1       4.258   4.395  17.665  0.00  0.00    +0.000 A 
ATOM      6  C   UNL     1       4.363   2.889  17.601  0.00  0.00    +0.000 C 
ENDROOT
BRANCH   2   7
ATOM      7  N   UNL     1       2.398   7.573  18.257  0.00  0.00    +0.000 N 
ATOM      8  C   UNL     1       1.961   7.835  19.555  0.00  0.00    +0.000 C 
ATOM      9  O   UNL     1       2.237   7.141  20.533  0.00  0.00    +0.000 OA
ATOM     10  H   UNL     1       2.580   8.393  17.689  0.00  0.00    +0.000 HD
BRANCH   8  11
ATOM     11  C   UNL     1       1.114   9.130  19.692  0.00  0.00    +0.000 C 
BRANCH  11  12
ATOM     12  O   UNL     1       1.264   9.699  20.989  0.00  0.00    +0.000 OA
BRANCH  12  13
ATOM     13  C   UNL     1       0.240  10.443  21.517  0.00  0.00    +0.000 A 
ATOM     14  C   UNL     1      -0.336  11.353  20.621  0.00  0.00    +0.000 A 
ATOM     15  C   UNL     1      -1.471  12.097  20.962  0.00  0.00    +0.000 A 
ATOM     16  C   UNL     1      -2.056  11.929  22.215  0.00  0.00    +0.000 A 
ATOM     17  C   UNL     1      -1.470  11.055  23.139  0.00  0.00    +0.000 A 
ATOM     18  C   UNL     1      -0.319  10.317  22.793  0.00  0.00    +0.000 A 
BRANCH  16  19
ATOM     19  C   UNL     1      -3.311  12.647  22.544  0.00  0.00    +0.000 C 
ATOM     20  O   UNL     1      -4.083  12.248  23.409  0.00  0.00    +0.000 OA
ENDBRANCH  16  19
ENDBRANCH  12  13
ENDBRANCH  11  12
ENDBRANCH   8  11
ENDBRANCH   2   7
BRANCH   1  21
ATOM     21  C   UNL     1       1.725   4.357  18.158  0.00  0.00    +0.000 C 
ATOM     22  O   UNL     1       1.057   3.945  17.209  0.00  0.00    +0.000 OA
BRANCH  21  23
ATOM     23  O   UNL     1       1.287   4.273  19.447  0.00  0.00    +0.000 OA
BRANCH  23  25
ATOM     24  C   UNL     1       1.370   2.808  21.419  0.00  0.00    +0.000 C 
ATOM     25  C   UNL     1       2.147   3.526  20.326  0.00  0.00    +0.000 C 
ENDBRANCH  23  25
ENDBRANCH  21  23
ENDBRANCH   1  21
BRANCH   4  26
ATOM     26  C   UNL     1       6.716   4.926  17.168  0.00  0.00    +0.000 C 
ATOM     27  O   UNL     1       7.246   4.953  16.059  0.00  0.00    +0.000 OA
BRANCH  26  28
ATOM     28  O   UNL     1       7.406   4.549  18.288  0.00  0.00    +0.000 OA
ATOM     29  C   UNL     1       7.843   5.676  19.060  0.00  0.00    +0.000 C 
ENDBRANCH  26  28
ENDBRANCH   4  26
TORSDOF 10
ENDMDL
MODEL 4
REMARK VINA RESULT:      -7.1      4.792      8.707
REMARK  Name = 
REMARK  13 active torsions:
REMARK  status: ('A' for Active; 'I' for Inactive)
REMARK    1  A    between atoms: C_1  and  C_2
REMARK    2  A    between atoms: C_2  and  O_3
REMARK    3  A    between atoms: O_3  and  C_4
REMARK    4  A    between atoms: C_4  and  C_6
REMARK    5  A    between atoms: C_7  and  N_8
REMARK    6  A    between atoms: C_9  and  C_11
REMARK    7  A    between atoms: C_11  and  O_12
REMARK    8  A    between atoms: O_12  and  C_13
REMARK    9  A    between atoms: C_16  and  C_17
REMARK   10  A    between atoms: C_22  and  C_23
REMARK   11  A    between atoms: C_23  and  O_25
REMARK   12  A    between atoms: O_25  and  C_26
REMARK   13  A    between atoms: C_27  and  C_28
REMARK                            x       y       z     vdW  Elec       q    Type
REMARK                         _______ _______ _______ _____ _____    ______ ____
ROOT
ATOM      1  C   UNL     1       5.561   4.827  16.721  0.00  0.00    +0.000 A 
ATOM      2  C   UNL     1       5.459   6.116  17.225  0.00  0.00    +0.000 A 
ATOM      3  S   UNL     1       4.061   6.335  18.182  0.00  0.00    +0.000 S 
ATOM      4  C   UNL     1       3.417   4.796  17.784  0.00  0.00    +0.000 A 
ATOM      5  C   UNL     1       4.344   4.059  17.045  0.00  0.00    +0.000 A 
ATOM      6  C   UNL     1       4.157   2.621  16.621  0.00  0.00    +0.000 C 
ENDROOT
BRANCH   2   7
ATOM      7  N   UNL     1       6.242   7.268  17.165  0.00  0.00    +0.000 N 
ATOM      8  C   UNL     1       7.381   7.409  17.954  0.00  0.00    +0.000 C 
ATOM      9  O   UNL     1       7.795   6.552  18.735  0.00  0.00    +0.000 OA
ATOM     10  H   UNL     1       6.287   7.715  16.256  0.00  0.00    +0.000 HD
BRANCH   8  11
ATOM     11  C   UNL     1       8.144   8.744  17.737  0.00  0.00    +0.000 C 
BRANCH  11  12
ATOM     12  O   UNL     1       8.845   9.125  18.917  0.00  0.00    +0.000 OA
BRANCH  12  13
ATOM     13  C   UNL     1       9.380  10.386  19.002  0.00  0.00    +0.000 A 
ATOM     14  C   UNL     1       9.558  10.851  20.312  0.00  0.00    +0.000 A 
ATOM     15  C   UNL     1      10.207  12.062  20.576  0.00  0.00    +0.000 A 
ATOM     16  C   UNL     1      10.701  12.825  19.521  0.00  0.00    +0.000 A 
ATOM     17  C   UNL     1      10.496  12.397  18.203  0.00  0.00    +0.000 A 
ATOM     18  C   UNL     1       9.829  11.180  17.944  0.00  0.00    +0.000 A 
BRANCH  16  19
ATOM     19  C   UNL     1      11.470  14.061  19.802  0.00  0.00    +0.000 C 
ATOM     20  O   UNL     1      10.929  15.094  20.179  0.00  0.00    +0.000 OA
ENDBRANCH  16  19
ENDBRANCH  12  13
ENDBRANCH  11  12
ENDBRANCH   8  11
ENDBRANCH   2   7
BRANCH   1  21
ATOM     21  C   UNL     1       6.709   4.220  16.025  0.00  0.00    +0.000 C 
ATOM     22  O   UNL     1       7.873   4.445  16.358  0.00  0.00    +0.000 OA
BRANCH  21  23
ATOM     23  O   UNL     1       6.398   3.488  14.917  0.00  0.00    +0.000 OA
BRANCH  23  25
ATOM     24  C   UNL     1       6.165   3.441  12.471  0.00  0.00    +0.000 C 
ATOM     25  C   UNL     1       6.101   4.269  13.746  0.00  0.00    +0.000 C 
ENDBRANCH  23  25
ENDBRANCH  21  23
ENDBRANCH   1  21
BRANCH   4  26
ATOM     26  C   UNL     1       2.085   4.361  18.219  0.00  0.00    +0.000 C 
ATOM     27  O   UNL     1       1.068   4.422  17.531  0.00  0.00    +0.000 OA
BRANCH  26  28
ATOM     28  O   UNL     1       2.063   3.872  19.496  0.00  0.00    +0.000 OA
ATOM     29  C   UNL     1       1.213   4.643  20.356  0.00  0.00    +0.000 C 
ENDBRANCH  26  28
ENDBRANCH   4  26
TORSDOF 10
ENDMDL
MODEL 5
REMARK VINA RESULT:      -7.0      2.316      2.831
REMARK  Name = 
REMARK  13 active torsions:
REMARK  status: ('A' for Active; 'I' for Inactive)
REMARK    1  A    between atoms: C_1  and  C_2
REMARK    2  A    between atoms: C_2  and  O_3
REMARK    3  A    between atoms: O_3  and  C_4
REMARK    4  A    between atoms: C_4  and  C_6
REMARK    5  A    between atoms: C_7  and  N_8
REMARK    6  A    between atoms: C_9  and  C_11
REMARK    7  A    between atoms: C_11  and  O_12
REMARK    8  A    between atoms: O_12  and  C_13
REMARK    9  A    between atoms: C_16  and  C_17
REMARK   10  A    between atoms: C_22  and  C_23
REMARK   11  A    between atoms: C_23  and  O_25
REMARK   12  A    between atoms: O_25  and  C_26
REMARK   13  A    between atoms: C_27  and  C_28
REMARK                            x       y       z     vdW  Elec       q    Type
REMARK                         _______ _______ _______ _____ _____    ______ ____
ROOT
ATOM      1  C   UNL     1       2.818   4.985  18.165  0.00  0.00    +0.000 A 
ATOM      2  C   UNL     1       3.091   6.346  18.120  0.00  0.00    +0.000 A 
ATOM      3  S   UNL     1       4.686   6.675  17.605  0.00  0.00    +0.000 S 
ATOM      4  C   UNL     1       5.152   5.024  17.637  0.00  0.00    +0.000 A 
ATOM      5  C   UNL     1       4.044   4.214  17.891  0.00  0.00    +0.000 A 
ATOM      6  C   UNL     1       4.065   2.703  17.881  0.00  0.00    +0.000 C 
ENDROOT
BRANCH   2   7
ATOM      7  N   UNL     1       2.365   7.510  18.362  0.00  0.00    +0.000 N 
ATOM      8  C   UNL     1       1.883   7.809  19.635  0.00  0.00    +0.000 C 
ATOM      9  O   UNL     1       2.063   7.105  20.628  0.00  0.00    +0.000 OA
ATOM     10  H   UNL     1       2.629   8.312  17.801  0.00  0.00    +0.000 HD
BRANCH   8  11
ATOM     11  C   UNL     1       1.119   9.159  19.726  0.00  0.00    +0.000 C 
BRANCH  11  12
ATOM     12  O   UNL     1       1.289   9.753  21.009  0.00  0.00    +0.000 OA
BRANCH  12  13
ATOM     13  C   UNL     1       0.277  10.516  21.535  0.00  0.00    +0.000 A 
ATOM     14  C   UNL     1      -0.218  11.497  20.666  0.00  0.00    +0.000 A 
ATOM     15  C   UNL     1      -1.332  12.275  21.000  0.00  0.00    +0.000 A 
ATOM     16  C   UNL     1      -1.978  12.070  22.217  0.00  0.00    +0.000 A 
ATOM     17  C   UNL     1      -1.471  11.123  23.116  0.00  0.00    +0.000 A 
ATOM     18  C   UNL     1      -0.340  10.350  22.778  0.00  0.00    +0.000 A 
BRANCH  16  19
ATOM     19  C   UNL     1      -3.212  12.828  22.533  0.00  0.00    +0.000 C 
ATOM     20  O   UNL     1      -4.271  12.269  22.796  0.00  0.00    +0.000 OA
ENDBRANCH  16  19
ENDBRANCH  12  13
ENDBRANCH  11  12
ENDBRANCH   8  11
ENDBRANCH   2   7
BRANCH   1  21
ATOM     21  C   UNL     1       1.512   4.335  18.372  0.00  0.00    +0.000 C 
ATOM     22  O   UNL     1       0.824   3.931  17.435  0.00  0.00    +0.000 OA
BRANCH  21  23
ATOM     23  O   UNL     1       1.067   4.319  19.662  0.00  0.00    +0.000 OA
BRANCH  23  25
ATOM     24  C   UNL     1       1.936   2.968  21.522  0.00  0.00    +0.000 C 
ATOM     25  C   UNL     1       1.061   3.019  20.279  0.00  0.00    +0.000 C 
ENDBRANCH  23  25
ENDBRANCH  21  23
ENDBRANCH   1  21
BRANCH   4  26
ATOM     26  C   UNL     1       6.530   4.588  17.389  0.00  0.00    +0.000 C 
ATOM     27  O   UNL     1       7.453   4.688  18.195  0.00  0.00    +0.000 OA
BRANCH  26  28
ATOM     28  O   UNL     1       6.714   4.050  16.145  0.00  0.00    +0.000 OA
ATOM     29  C   UNL     1       6.876   5.058  15.137  0.00  0.00    +0.000 C 
ENDBRANCH  26  28
ENDBRANCH   4  26
TORSDOF 10
ENDMDL
MODEL 6
REMARK VINA RESULT:      -7.0      2.747      3.205
REMARK  Name = 
REMARK  13 active torsions:
REMARK  status: ('A' for Active; 'I' for Inactive)
REMARK    1  A    between atoms: C_1  and  C_2
REMARK    2  A    between atoms: C_2  and  O_3
REMARK    3  A    between atoms: O_3  and  C_4
REMARK    4  A    between atoms: C_4  and  C_6
REMARK    5  A    between atoms: C_7  and  N_8
REMARK    6  A    between atoms: C_9  and  C_11
REMARK    7  A    between atoms: C_11  and  O_12
REMARK    8  A    between atoms: O_12  and  C_13
REMARK    9  A    between atoms: C_16  and  C_17
REMARK   10  A    between atoms: C_22  and  C_23
REMARK   11  A    between atoms: C_23  and  O_25
REMARK   12  A    between atoms: O_25  and  C_26
REMARK   13  A    between atoms: C_27  and  C_28
REMARK                            x       y       z     vdW  Elec       q    Type
REMARK                         _______ _______ _______ _____ _____    ______ ____
ROOT
ATOM      1  C   UNL     1       2.886   4.722  18.371  0.00  0.00    +0.000 A 
ATOM      2  C   UNL     1       3.211   6.052  18.596  0.00  0.00    +0.000 A 
ATOM      3  S   UNL     1       4.779   6.444  18.042  0.00  0.00    +0.000 S 
ATOM      4  C   UNL     1       5.176   4.815  17.683  0.00  0.00    +0.000 A 
ATOM      5  C   UNL     1       4.057   3.997  17.844  0.00  0.00    +0.000 A 
ATOM      6  C   UNL     1       4.014   2.524  17.508  0.00  0.00    +0.000 C 
ENDROOT
BRANCH   2   7
ATOM      7  N   UNL     1       2.553   7.154  19.139  0.00  0.00    +0.000 N 
ATOM      8  C   UNL     1       2.188   8.240  18.344  0.00  0.00    +0.000 C 
ATOM      9  O   UNL     1       2.392   8.313  17.133  0.00  0.00    +0.000 OA
ATOM     10  H   UNL     1       1.924   6.950  19.907  0.00  0.00    +0.000 HD
BRANCH   8  11
ATOM     11  C   UNL     1       1.441   9.366  19.110  0.00  0.00    +0.000 C 
BRANCH  11  12
ATOM     12  O   UNL     1       1.031   8.918  20.399  0.00  0.00    +0.000 OA
BRANCH  12  13
ATOM     13  C   UNL     1       0.434   9.804  21.259  0.00  0.00    +0.000 A 
ATOM     14  C   UNL     1       0.522  11.144  20.861  0.00  0.00    +0.000 A 
ATOM     15  C   UNL     1      -0.143  12.159  21.558  0.00  0.00    +0.000 A 
ATOM     16  C   UNL     1      -0.920  11.840  22.669  0.00  0.00    +0.000 A 
ATOM     17  C   UNL     1      -0.986  10.511  23.106  0.00  0.00    +0.000 A 
ATOM     18  C   UNL     1      -0.304   9.494  22.405  0.00  0.00    +0.000 A 
BRANCH  16  19
ATOM     19  C   UNL     1      -1.698  12.900  23.353  0.00  0.00    +0.000 C 
ATOM     20  O   UNL     1      -1.290  14.052  23.446  0.00  0.00    +0.000 OA
ENDBRANCH  16  19
ENDBRANCH  12  13
ENDBRANCH  11  12
ENDBRANCH   8  11
ENDBRANCH   2   7
BRANCH   1  21
ATOM     21  C   UNL     1       1.572   4.075  18.534  0.00  0.00    +0.000 C 
ATOM     22  O   UNL     1       0.945   3.610  17.582  0.00  0.00    +0.000 OA
BRANCH  21  23
ATOM     23  O   UNL     1       1.046   4.134  19.792  0.00  0.00    +0.000 OA
BRANCH  23  25
ATOM     24  C   UNL     1       2.200   2.984  21.632  0.00  0.00    +0.000 C 
ATOM     25  C   UNL     1       1.143   2.909  20.541  0.00  0.00    +0.000 C 
ENDBRANCH  23  25
ENDBRANCH  21  23
ENDBRANCH   1  21
BRANCH   4  26
ATOM     26  C   UNL     1       6.515   4.408  17.241  0.00  0.00    +0.000 C 
ATOM     27  O   UNL     1       7.526   4.450  17.938  0.00  0.00    +0.000 OA
BRANCH  26  28
ATOM     28  O   UNL     1       6.549   3.968  15.946  0.00  0.00    +0.000 OA
ATOM     29  C   UNL     1       6.926   5.007  15.032  0.00  0.00    +0.000 C 
ENDBRANCH  26  28
ENDBRANCH   4  26
TORSDOF 10
ENDMDL
MODEL 7
REMARK VINA RESULT:      -7.0      1.016      1.632
REMARK  Name = 
REMARK  13 active torsions:
REMARK  status: ('A' for Active; 'I' for Inactive)
REMARK    1  A    between atoms: C_1  and  C_2
REMARK    2  A    between atoms: C_2  and  O_3
REMARK    3  A    between atoms: O_3  and  C_4
REMARK    4  A    between atoms: C_4  and  C_6
REMARK    5  A    between atoms: C_7  and  N_8
REMARK    6  A    between atoms: C_9  and  C_11
REMARK    7  A    between atoms: C_11  and  O_12
REMARK    8  A    between atoms: O_12  and  C_13
REMARK    9  A    between atoms: C_16  and  C_17
REMARK   10  A    between atoms: C_22  and  C_23
REMARK   11  A    between atoms: C_23  and  O_25
REMARK   12  A    between atoms: O_25  and  C_26
REMARK   13  A    between atoms: C_27  and  C_28
REMARK                            x       y       z     vdW  Elec       q    Type
REMARK                         _______ _______ _______ _____ _____    ______ ____
ROOT
ATOM      1  C   UNL     1       3.036   5.079  18.159  0.00  0.00    +0.000 A 
ATOM      2  C   UNL     1       3.276   6.388  18.553  0.00  0.00    +0.000 A 
ATOM      3  S   UNL     1       4.847   6.917  18.140  0.00  0.00    +0.000 S 
ATOM      4  C   UNL     1       5.351   5.361  17.623  0.00  0.00    +0.000 A 
ATOM      5  C   UNL     1       4.271   4.477  17.623  0.00  0.00    +0.000 A 
ATOM      6  C   UNL     1       4.326   3.053  17.120  0.00  0.00    +0.000 C 
ENDROOT
BRANCH   2   7
ATOM      7  N   UNL     1       2.531   7.387  19.177  0.00  0.00    +0.000 N 
ATOM      8  C   UNL     1       1.987   8.444  18.448  0.00  0.00    +0.000 C 
ATOM      9  O   UNL     1       2.098   8.577  17.230  0.00  0.00    +0.000 OA
ATOM     10  H   UNL     1       1.985   7.087  19.976  0.00  0.00    +0.000 HD
BRANCH   8  11
ATOM     11  C   UNL     1       1.167   9.449  19.302  0.00  0.00    +0.000 C 
BRANCH  11  12
ATOM     12  O   UNL     1       0.789  10.583  18.527  0.00  0.00    +0.000 OA
BRANCH  12  13
ATOM     13  C   UNL     1      -0.543  10.859  18.348  0.00  0.00    +0.000 A 
ATOM     14  C   UNL     1      -1.229   9.919  17.568  0.00  0.00    +0.000 A 
ATOM     15  C   UNL     1      -2.616   9.985  17.395  0.00  0.00    +0.000 A 
ATOM     16  C   UNL     1      -3.343  10.998  18.016  0.00  0.00    +0.000 A 
ATOM     17  C   UNL     1      -2.669  11.971  18.765  0.00  0.00    +0.000 A 
ATOM     18  C   UNL     1      -1.268  11.906  18.925  0.00  0.00    +0.000 A 
BRANCH  16  19
ATOM     19  C   UNL     1      -4.821  11.017  17.910  0.00  0.00    +0.000 C 
ATOM     20  O   UNL     1      -5.406  11.666  17.050  0.00  0.00    +0.000 OA
ENDBRANCH  16  19
ENDBRANCH  12  13
ENDBRANCH  11  12
ENDBRANCH   8  11
ENDBRANCH   2   7
BRANCH   1  21
ATOM     21  C   UNL     1       1.752   4.357  18.170  0.00  0.00    +0.000 C 
ATOM     22  O   UNL     1       1.099   4.162  17.145  0.00  0.00    +0.000 OA
BRANCH  21  23
ATOM     23  O   UNL     1       1.282   4.023  19.406  0.00  0.00    +0.000 OA
BRANCH  23  25
ATOM     24  C   UNL     1       2.001   3.095  21.566  0.00  0.00    +0.000 C 
ATOM     25  C   UNL     1       1.994   2.952  20.051  0.00  0.00    +0.000 C 
ENDBRANCH  23  25
ENDBRANCH  21  23
ENDBRANCH   1  21
BRANCH   4  26
ATOM     26  C   UNL     1       6.731   5.072  17.217  0.00  0.00    +0.000 C 
ATOM     27  O   UNL     1       7.522   4.385  17.861  0.00  0.00    +0.000 OA
BRANCH  26  28
ATOM     28  O   UNL     1       7.082   5.654  16.031  0.00  0.00    +0.000 OA
ATOM     29  C   UNL     1       6.852   4.786  14.913  0.00  0.00    +0.000 C 
ENDBRANCH  26  28
ENDBRANCH   4  26
TORSDOF 10
ENDMDL
MODEL 8
REMARK VINA RESULT:      -7.0      4.836      8.934
REMARK  Name = 
REMARK  13 active torsions:
REMARK  status: ('A' for Active; 'I' for Inactive)
REMARK    1  A    between atoms: C_1  and  C_2
REMARK    2  A    between atoms: C_2  and  O_3
REMARK    3  A    between atoms: O_3  and  C_4
REMARK    4  A    between atoms: C_4  and  C_6
REMARK    5  A    between atoms: C_7  and  N_8
REMARK    6  A    between atoms: C_9  and  C_11
REMARK    7  A    between atoms: C_11  and  O_12
REMARK    8  A    between atoms: O_12  and  C_13
REMARK    9  A    between atoms: C_16  and  C_17
REMARK   10  A    between atoms: C_22  and  C_23
REMARK   11  A    between atoms: C_23  and  O_25
REMARK   12  A    between atoms: O_25  and  C_26
REMARK   13  A    between atoms: C_27  and  C_28
REMARK                            x       y       z     vdW  Elec       q    Type
REMARK                         _______ _______ _______ _____ _____    ______ ____
ROOT
ATOM      1  C   UNL     1       5.747   5.423  16.547  0.00  0.00    +0.000 A 
ATOM      2  C   UNL     1       5.640   6.684  17.117  0.00  0.00    +0.000 A 
ATOM      3  S   UNL     1       4.253   6.841  18.101  0.00  0.00    +0.000 S 
ATOM      4  C   UNL     1       3.617   5.318  17.633  0.00  0.00    +0.000 A 
ATOM      5  C   UNL     1       4.541   4.629  16.847  0.00  0.00    +0.000 A 
ATOM      6  C   UNL     1       4.361   3.212  16.352  0.00  0.00    +0.000 C 
ENDROOT
BRANCH   2   7
ATOM      7  N   UNL     1       6.412   7.845  17.106  0.00  0.00    +0.000 N 
ATOM      8  C   UNL     1       7.610   7.922  17.813  0.00  0.00    +0.000 C 
ATOM      9  O   UNL     1       8.087   7.000  18.474  0.00  0.00    +0.000 OA
ATOM     10  H   UNL     1       6.384   8.377  16.243  0.00  0.00    +0.000 HD
BRANCH   8  11
ATOM     11  C   UNL     1       8.350   9.280  17.666  0.00  0.00    +0.000 C 
BRANCH  11  12
ATOM     12  O   UNL     1       8.782   9.762  18.934  0.00  0.00    +0.000 OA
BRANCH  12  13
ATOM     13  C   UNL     1       9.596  10.866  18.991  0.00  0.00    +0.000 A 
ATOM     14  C   UNL     1       9.449  11.748  17.913  0.00  0.00    +0.000 A 
ATOM     15  C   UNL     1      10.110  12.981  17.881  0.00  0.00    +0.000 A 
ATOM     16  C   UNL     1      10.928  13.354  18.945  0.00  0.00    +0.000 A 
ATOM     17  C   UNL     1      11.120  12.467  20.012  0.00  0.00    +0.000 A 
ATOM     18  C   UNL     1      10.459  11.220  20.032  0.00  0.00    +0.000 A 
BRANCH  16  19
ATOM     19  C   UNL     1      11.555  14.696  18.956  0.00  0.00    +0.000 C 
ATOM     20  O   UNL     1      11.844  15.273  19.999  0.00  0.00    +0.000 OA
ENDBRANCH  16  19
ENDBRANCH  12  13
ENDBRANCH  11  12
ENDBRANCH   8  11
ENDBRANCH   2   7
BRANCH   1  21
ATOM     21  C   UNL     1       6.892   4.863  15.808  0.00  0.00    +0.000 C 
ATOM     22  O   UNL     1       7.836   4.313  16.376  0.00  0.00    +0.000 OA
BRANCH  21  23
ATOM     23  O   UNL     1       6.889   5.099  14.464  0.00  0.00    +0.000 OA
BRANCH  23  25
ATOM     24  C   UNL     1       6.966   4.069  12.233  0.00  0.00    +0.000 C 
ATOM     25  C   UNL     1       6.445   3.990  13.661  0.00  0.00    +0.000 C 
ENDBRANCH  23  25
ENDBRANCH  21  23
ENDBRANCH   1  21
BRANCH   4  26
ATOM     26  C   UNL     1       2.294   4.849  18.062  0.00  0.00    +0.000 C 
ATOM     27  O   UNL     1       1.470   4.310  17.327  0.00  0.00    +0.000 OA
BRANCH  26  28
ATOM     28  O   UNL     1       2.042   5.074  19.387  0.00  0.00    +0.000 OA
ATOM     29  C   UNL     1       1.969   3.854  20.139  0.00  0.00    +0.000 C 
ENDBRANCH  26  28
ENDBRANCH   4  26
TORSDOF 10
ENDMDL
MODEL 9
REMARK VINA RESULT:      -7.0      2.334      2.863
REMARK  Name = 
REMARK  13 active torsions:
REMARK  status: ('A' for Active; 'I' for Inactive)
REMARK    1  A    between atoms: C_1  and  C_2
REMARK    2  A    between atoms: C_2  and  O_3
REMARK    3  A    between atoms: O_3  and  C_4
REMARK    4  A    between atoms: C_4  and  C_6
REMARK    5  A    between atoms: C_7  and  N_8
REMARK    6  A    between atoms: C_9  and  C_11
REMARK    7  A    between atoms: C_11  and  O_12
REMARK    8  A    between atoms: O_12  and  C_13
REMARK    9  A    between atoms: C_16  and  C_17
REMARK   10  A    between atoms: C_22  and  C_23
REMARK   11  A    between atoms: C_23  and  O_25
REMARK   12  A    between atoms: O_25  and  C_26
REMARK   13  A    between atoms: C_27  and  C_28
REMARK                            x       y       z     vdW  Elec       q    Type
REMARK                         _______ _______ _______ _____ _____    ______ ____
ROOT
ATOM      1  C   UNL     1       2.896   4.977  18.145  0.00  0.00    +0.000 A 
ATOM      2  C   UNL     1       3.180   6.328  18.284  0.00  0.00    +0.000 A 
ATOM      3  S   UNL     1       4.571   6.797  17.409  0.00  0.00    +0.000 S 
ATOM      4  C   UNL     1       4.983   5.185  16.992  0.00  0.00    +0.000 A 
ATOM      5  C   UNL     1       3.973   4.308  17.392  0.00  0.00    +0.000 A 
ATOM      6  C   UNL     1       3.950   2.828  17.087  0.00  0.00    +0.000 C 
ENDROOT
BRANCH   2   7
ATOM      7  N   UNL     1       2.584   7.404  18.940  0.00  0.00    +0.000 N 
ATOM      8  C   UNL     1       2.127   8.516  18.236  0.00  0.00    +0.000 C 
ATOM      9  O   UNL     1       2.192   8.639  17.013  0.00  0.00    +0.000 OA
ATOM     10  H   UNL     1       2.047   7.165  19.767  0.00  0.00    +0.000 HD
BRANCH   8  11
ATOM     11  C   UNL     1       1.468   9.606  19.126  0.00  0.00    +0.000 C 
BRANCH  11  12
ATOM     12  O   UNL     1       1.095   9.069  20.392  0.00  0.00    +0.000 OA
BRANCH  12  13
ATOM     13  C   UNL     1       0.308   9.816  21.231  0.00  0.00    +0.000 A 
ATOM     14  C   UNL     1      -0.301  10.921  20.622  0.00  0.00    +0.000 A 
ATOM     15  C   UNL     1      -1.233  11.712  21.304  0.00  0.00    +0.000 A 
ATOM     16  C   UNL     1      -1.578  11.395  22.616  0.00  0.00    +0.000 A 
ATOM     17  C   UNL     1      -0.949  10.320  23.255  0.00  0.00    +0.000 A 
ATOM     18  C   UNL     1      -0.001   9.534  22.565  0.00  0.00    +0.000 A 
BRANCH  16  19
ATOM     19  C   UNL     1      -2.632  12.174  23.309  0.00  0.00    +0.000 C 
ATOM     20  O   UNL     1      -3.776  12.254  22.875  0.00  0.00    +0.000 OA
ENDBRANCH  16  19
ENDBRANCH  12  13
ENDBRANCH  11  12
ENDBRANCH   8  11
ENDBRANCH   2   7
BRANCH   1  21
ATOM     21  C   UNL     1       1.686   4.261  18.587  0.00  0.00    +0.000 C 
ATOM     22  O   UNL     1       0.969   3.638  17.804  0.00  0.00    +0.000 OA
BRANCH  21  23
ATOM     23  O   UNL     1       1.354   4.433  19.898  0.00  0.00    +0.000 OA
BRANCH  23  25
ATOM     24  C   UNL     1       2.359   2.826  21.464  0.00  0.00    +0.000 C 
ATOM     25  C   UNL     1       1.145   3.212  20.631  0.00  0.00    +0.000 C 
ENDBRANCH  23  25
ENDBRANCH  21  23
ENDBRANCH   1  21
BRANCH   4  26
ATOM     26  C   UNL     1       6.222   4.845  16.283  0.00  0.00    +0.000 C 
ATOM     27  O   UNL     1       6.287   4.114  15.297  0.00  0.00    +0.000 OA
BRANCH  26  28
ATOM     28  O   UNL     1       7.335   5.420  16.830  0.00  0.00    +0.000 OA
ATOM     29  C   UNL     1       7.695   4.820  18.083  0.00  0.00    +0.000 C 
ENDBRANCH  26  28
ENDBRANCH   4  26
TORSDOF 10
ENDMDL
