MODEL 1
REMARK VINA RESULT:      -8.8      0.000      0.000
REMARK  Name = 
REMARK  8 active torsions:
REMARK  status: ('A' for Active; 'I' for Inactive)
REMARK    1  A    between atoms: C_2  and  C_11
REMARK    2  A    between atoms: N_3  and  S_4
REMARK    3  A    between atoms: S_4  and  N_7
REMARK    4  A    between atoms: C_13  and  C_14
REMARK    5  A    between atoms: C_17  and  O_18
REMARK    6  A    between atoms: O_18  and  C_19
REMARK    7  A    between atoms: C_19  and  C_20
REMARK    8  A    between atoms: C_20  and  C_21
REMARK                            x       y       z     vdW  Elec       q    Type
REMARK                         _______ _______ _______ _____ _____    ______ ____
ROOT
ATOM      1  C   UNL     1       1.445   7.827  20.170  0.00  0.00    +0.000 A 
ATOM      2  C   UNL     1       1.654   6.532  20.676  0.00  0.00    +0.000 A 
ATOM      3  C   UNL     1       2.447   5.573  19.994  0.00  0.00    +0.000 A 
ATOM      4  C   UNL     1       3.045   5.984  18.767  0.00  0.00    +0.000 A 
ATOM      5  C   UNL     1       2.834   7.274  18.268  0.00  0.00    +0.000 A 
ATOM      6  C   UNL     1       2.050   8.182  18.976  0.00  0.00    +0.000 A 
ATOM      7  F   UNL     1       1.863   9.405  18.452  0.00  0.00    +0.000 F 
ENDROOT
BRANCH   1   9
ATOM      8  O   UNL     1      -0.398   8.349  21.502  0.00  0.00    +0.000 OA
ATOM      9  C   UNL     1       0.586   8.779  20.906  0.00  0.00    +0.000 C 
ATOM     10  N   UNL     1       0.963  10.124  20.906  0.00  0.00    +0.000 N 
ATOM     11  H   UNL     1       1.451  10.494  20.083  0.00  0.00    +0.000 HD
BRANCH  10  12
ATOM     12  S   UNL     1       0.151  11.307  21.722  0.00  0.00    +0.000 S 
ATOM     13  O   UNL     1      -0.181  10.769  23.019  0.00  0.00    +0.000 OA
ATOM     14  O   UNL     1       0.896  12.540  21.602  0.00  0.00    +0.000 OA
BRANCH  12  15
ATOM     15  N   UNL     1      -1.259  11.396  20.827  0.00  0.00    +0.000 NA
ATOM     16  C   UNL     1      -2.245  12.509  20.903  0.00  0.00    +0.000 C 
ATOM     17  C   UNL     1      -2.717  12.176  19.478  0.00  0.00    +0.000 C 
ATOM     18  C   UNL     1      -1.385  11.416  19.340  0.00  0.00    +0.000 C 
ENDBRANCH  12  15
ENDBRANCH  10  12
ENDBRANCH   1   9
BRANCH   3  19
ATOM     19  C   UNL     1       2.598   4.181  20.630  0.00  0.00    +0.000 C 
ATOM     20  C   UNL     1       1.462   3.483  21.337  0.00  0.00    +0.000 C 
ATOM     21  C   UNL     1       1.932   2.980  20.001  0.00  0.00    +0.000 C 
ENDBRANCH   3  19
BRANCH   4  22
ATOM     22  O   UNL     1       3.817   5.044  18.130  0.00  0.00    +0.000 OA
BRANCH  22  23
ATOM     23  C   UNL     1       4.554   5.363  16.952  0.00  0.00    +0.000 C 
BRANCH  23  24
ATOM     24  C   UNL     1       6.063   5.539  17.283  0.00  0.00    +0.000 C 
ATOM     25  C   UNL     1       6.481   7.023  17.202  0.00  0.00    +0.000 C 
ATOM     26  C   UNL     1       7.769   7.140  18.007  0.00  0.00    +0.000 C 
ATOM     27  C   UNL     1       7.688   6.051  19.068  0.00  0.00    +0.000 C 
ATOM     28  C   UNL     1       6.443   5.219  18.748  0.00  0.00    +0.000 C 
BRANCH  24  29
ATOM     29  C   UNL     1       6.872   4.664  16.310  0.00  0.00    +0.000 C 
ATOM     30  F   UNL     1       7.386   5.395  15.293  0.00  0.00    +0.000 F 
ATOM     31  F   UNL     1       7.916   4.055  16.916  0.00  0.00    +0.000 F 
ATOM     32  F   UNL     1       6.122   3.693  15.745  0.00  0.00    +0.000 F 
ENDBRANCH  24  29
ENDBRANCH  23  24
ENDBRANCH  22  23
ENDBRANCH   4  22
TORSDOF 8
ENDMDL
MODEL 2
REMARK VINA RESULT:      -8.5      0.583      1.031
REMARK  Name = 
REMARK  8 active torsions:
REMARK  status: ('A' for Active; 'I' for Inactive)
REMARK    1  A    between atoms: C_2  and  C_11
REMARK    2  A    between atoms: N_3  and  S_4
REMARK    3  A    between atoms: S_4  and  N_7
REMARK    4  A    between atoms: C_13  and  C_14
REMARK    5  A    between atoms: C_17  and  O_18
REMARK    6  A    between atoms: O_18  and  C_19
REMARK    7  A    between atoms: C_19  and  C_20
REMARK    8  A    between atoms: C_20  and  C_21
REMARK                            x       y       z     vdW  Elec       q    Type
REMARK                         _______ _______ _______ _____ _____    ______ ____
ROOT
ATOM      1  C   UNL     1       1.803   7.827  20.099  0.00  0.00    +0.000 A 
ATOM      2  C   UNL     1       1.977   6.503  20.537  0.00  0.00    +0.000 A 
ATOM      3  C   UNL     1       2.594   5.514  19.728  0.00  0.00    +0.000 A 
ATOM      4  C   UNL     1       3.050   5.925  18.441  0.00  0.00    +0.000 A 
ATOM      5  C   UNL     1       2.875   7.245  18.010  0.00  0.00    +0.000 A 
ATOM      6  C   UNL     1       2.266   8.181  18.843  0.00  0.00    +0.000 A 
ATOM      7  F   UNL     1       2.106   9.433  18.382  0.00  0.00    +0.000 F 
ENDROOT
BRANCH   1   9
ATOM      8  O   UNL     1       1.123   8.622  22.185  0.00  0.00    +0.000 OA
ATOM      9  C   UNL     1       1.128   8.812  20.971  0.00  0.00    +0.000 C 
ATOM     10  N   UNL     1       0.554   9.930  20.361  0.00  0.00    +0.000 N 
ATOM     11  H   UNL     1       0.176   9.829  19.413  0.00  0.00    +0.000 HD
BRANCH  10  12
ATOM     12  S   UNL     1      -0.187  11.151  21.191  0.00  0.00    +0.000 S 
ATOM     13  O   UNL     1      -0.998  10.532  22.211  0.00  0.00    +0.000 OA
ATOM     14  O   UNL     1       0.809  12.139  21.536  0.00  0.00    +0.000 OA
BRANCH  12  15
ATOM     15  N   UNL     1      -1.213  11.752  20.015  0.00  0.00    +0.000 NA
ATOM     16  C   UNL     1      -1.748  10.964  18.870  0.00  0.00    +0.000 C 
ATOM     17  C   UNL     1      -2.945  11.926  18.780  0.00  0.00    +0.000 C 
ATOM     18  C   UNL     1      -2.569  12.342  20.214  0.00  0.00    +0.000 C 
ENDBRANCH  12  15
ENDBRANCH  10  12
ENDBRANCH   1   9
BRANCH   3  19
ATOM     19  C   UNL     1       2.721   4.092  20.300  0.00  0.00    +0.000 C 
ATOM     20  C   UNL     1       2.073   3.678  21.598  0.00  0.00    +0.000 C 
ATOM     21  C   UNL     1       1.533   3.160  20.294  0.00  0.00    +0.000 C 
ENDBRANCH   3  19
BRANCH   4  22
ATOM     22  O   UNL     1       3.654   4.956  17.679  0.00  0.00    +0.000 OA
BRANCH  22  23
ATOM     23  C   UNL     1       4.530   5.292  16.606  0.00  0.00    +0.000 C 
BRANCH  23  24
ATOM     24  C   UNL     1       5.991   5.428  17.115  0.00  0.00    +0.000 C 
ATOM     25  C   UNL     1       6.431   6.907  17.155  0.00  0.00    +0.000 C 
ATOM     26  C   UNL     1       7.619   6.967  18.107  0.00  0.00    +0.000 C 
ATOM     27  C   UNL     1       7.405   5.831  19.098  0.00  0.00    +0.000 C 
ATOM     28  C   UNL     1       6.197   5.034  18.597  0.00  0.00    +0.000 C 
BRANCH  24  29
ATOM     29  C   UNL     1       6.899   4.587  16.200  0.00  0.00    +0.000 C 
ATOM     30  F   UNL     1       6.205   3.607  15.577  0.00  0.00    +0.000 F 
ATOM     31  F   UNL     1       7.478   5.330  15.231  0.00  0.00    +0.000 F 
ATOM     32  F   UNL     1       7.896   3.980  16.881  0.00  0.00    +0.000 F 
ENDBRANCH  24  29
ENDBRANCH  23  24
ENDBRANCH  22  23
ENDBRANCH   4  22
TORSDOF 8
ENDMDL
MODEL 3
REMARK VINA RESULT:      -8.4      1.288      1.929
REMARK  Name = 
REMARK  8 active torsions:
REMARK  status: ('A' for Active; 'I' for Inactive)
REMARK    1  A    between atoms: C_2  and  C_11
REMARK    2  A    between atoms: N_3  and  S_4
REMARK    3  A    between atoms: S_4  and  N_7
REMARK    4  A    between atoms: C_13  and  C_14
REMARK    5  A    between atoms: C_17  and  O_18
REMARK    6  A    between atoms: O_18  and  C_19
REMARK    7  A    between atoms: C_19  and  C_20
REMARK    8  A    between atoms: C_20  and  C_21
REMARK                            x       y       z     vdW  Elec       q    Type
REMARK                         _______ _______ _______ _____ _____    ______ ____
ROOT
ATOM      1  C   UNL     1       1.877   7.537  20.106  0.00  0.00    +0.000 A 
ATOM      2  C   UNL     1       1.901   6.205  20.555  0.00  0.00    +0.000 A 
ATOM      3  C   UNL     1       2.417   5.149  19.761  0.00  0.00    +0.000 A 
ATOM      4  C   UNL     1       2.931   5.498  18.478  0.00  0.00    +0.000 A 
ATOM      5  C   UNL     1       2.906   6.825  18.036  0.00  0.00    +0.000 A 
ATOM      6  C   UNL     1       2.392   7.829  18.855  0.00  0.00    +0.000 A 
ATOM      7  F   UNL     1       2.374   9.087  18.384  0.00  0.00    +0.000 F 
ENDROOT
BRANCH   1   9
ATOM      8  O   UNL     1       1.614   8.631  22.151  0.00  0.00    +0.000 OA
ATOM      9  C   UNL     1       1.302   8.596  20.964  0.00  0.00    +0.000 C 
ATOM     10  N   UNL     1       0.451   9.526  20.360  0.00  0.00    +0.000 N 
ATOM     11  H   UNL     1      -0.125   9.218  19.569  0.00  0.00    +0.000 HD
BRANCH  10  12
ATOM     12  S   UNL     1      -0.230  10.801  21.157  0.00  0.00    +0.000 S 
ATOM     13  O   UNL     1      -1.045  10.250  22.212  0.00  0.00    +0.000 OA
ATOM     14  O   UNL     1       0.808  11.764  21.451  0.00  0.00    +0.000 OA
BRANCH  12  15
ATOM     15  N   UNL     1      -1.253  11.399  19.977  0.00  0.00    +0.000 NA
ATOM     16  C   UNL     1      -1.013  12.646  19.198  0.00  0.00    +0.000 C 
ATOM     17  C   UNL     1      -1.899  12.096  18.066  0.00  0.00    +0.000 C 
ATOM     18  C   UNL     1      -1.675  10.719  18.718  0.00  0.00    +0.000 C 
ENDBRANCH  12  15
ENDBRANCH  10  12
ENDBRANCH   1   9
BRANCH   3  19
ATOM     19  C   UNL     1       2.382   3.726  20.344  0.00  0.00    +0.000 C 
ATOM     20  C   UNL     1       1.400   3.310  21.411  0.00  0.00    +0.000 C 
ATOM     21  C   UNL     1       1.243   2.794  20.007  0.00  0.00    +0.000 C 
ENDBRANCH   3  19
BRANCH   4  22
ATOM     22  O   UNL     1       3.436   4.463  17.730  0.00  0.00    +0.000 OA
BRANCH  22  23
ATOM     23  C   UNL     1       4.759   3.973  17.936  0.00  0.00    +0.000 C 
BRANCH  23  24
ATOM     24  C   UNL     1       5.712   4.493  16.824  0.00  0.00    +0.000 C 
ATOM     25  C   UNL     1       6.004   3.392  15.782  0.00  0.00    +0.000 C 
ATOM     26  C   UNL     1       6.492   4.116  14.533  0.00  0.00    +0.000 C 
ATOM     27  C   UNL     1       5.826   5.484  14.567  0.00  0.00    +0.000 C 
ATOM     28  C   UNL     1       5.107   5.588  15.915  0.00  0.00    +0.000 C 
BRANCH  24  29
ATOM     29  C   UNL     1       7.001   4.998  17.496  0.00  0.00    +0.000 C 
ATOM     30  F   UNL     1       7.373   6.207  17.012  0.00  0.00    +0.000 F 
ATOM     31  F   UNL     1       6.860   5.142  18.832  0.00  0.00    +0.000 F 
ATOM     32  F   UNL     1       8.047   4.166  17.297  0.00  0.00    +0.000 F 
ENDBRANCH  24  29
ENDBRANCH  23  24
ENDBRANCH  22  23
ENDBRANCH   4  22
TORSDOF 8
ENDMDL
MODEL 4
REMARK VINA RESULT:      -8.4      1.573      1.874
REMARK  Name = 
REMARK  8 active torsions:
REMARK  status: ('A' for Active; 'I' for Inactive)
REMARK    1  A    between atoms: C_2  and  C_11
REMARK    2  A    between atoms: N_3  and  S_4
REMARK    3  A    between atoms: S_4  and  N_7
REMARK    4  A    between atoms: C_13  and  C_14
REMARK    5  A    between atoms: C_17  and  O_18
REMARK    6  A    between atoms: O_18  and  C_19
REMARK    7  A    between atoms: C_19  and  C_20
REMARK    8  A    between atoms: C_20  and  C_21
REMARK                            x       y       z     vdW  Elec       q    Type
REMARK                         _______ _______ _______ _____ _____    ______ ____
ROOT
ATOM      1  C   UNL     1       1.596   8.795  19.265  0.00  0.00    +0.000 A 
ATOM      2  C   UNL     1       1.644   7.578  19.969  0.00  0.00    +0.000 A 
ATOM      3  C   UNL     1       2.374   6.459  19.494  0.00  0.00    +0.000 A 
ATOM      4  C   UNL     1       3.080   6.622  18.266  0.00  0.00    +0.000 A 
ATOM      5  C   UNL     1       3.029   7.834  17.569  0.00  0.00    +0.000 A 
ATOM      6  C   UNL     1       2.300   8.907  18.078  0.00  0.00    +0.000 A 
ATOM      7  F   UNL     1       2.267  10.047  17.369  0.00  0.00    +0.000 F 
ENDROOT
BRANCH   1   9
ATOM      8  O   UNL     1       1.070  10.377  20.897  0.00  0.00    +0.000 OA
ATOM      9  C   UNL     1       0.795   9.922  19.790  0.00  0.00    +0.000 C 
ATOM     10  N   UNL     1      -0.220  10.429  18.976  0.00  0.00    +0.000 N 
ATOM     11  H   UNL     1      -0.704   9.785  18.340  0.00  0.00    +0.000 HD
BRANCH  10  12
ATOM     12  S   UNL     1      -1.168  11.718  19.383  0.00  0.00    +0.000 S 
ATOM     13  O   UNL     1      -1.764  11.412  20.661  0.00  0.00    +0.000 OA
ATOM     14  O   UNL     1      -0.400  12.928  19.196  0.00  0.00    +0.000 OA
BRANCH  12  15
ATOM     15  N   UNL     1      -2.364  11.609  18.220  0.00  0.00    +0.000 NA
ATOM     16  C   UNL     1      -2.130  11.265  16.790  0.00  0.00    +0.000 C 
ATOM     17  C   UNL     1      -3.579  10.760  16.684  0.00  0.00    +0.000 C 
ATOM     18  C   UNL     1      -3.547  10.698  18.222  0.00  0.00    +0.000 C 
ENDBRANCH  12  15
ENDBRANCH  10  12
ENDBRANCH   1   9
BRANCH   3  19
ATOM     19  C   UNL     1       2.349   5.172  20.337  0.00  0.00    +0.000 C 
ATOM     20  C   UNL     1       1.065   4.477  20.718  0.00  0.00    +0.000 C 
ATOM     21  C   UNL     1       1.980   3.854  19.700  0.00  0.00    +0.000 C 
ENDBRANCH   3  19
BRANCH   4  22
ATOM     22  O   UNL     1       3.790   5.530  17.830  0.00  0.00    +0.000 OA
BRANCH  22  23
ATOM     23  C   UNL     1       4.724   5.630  16.758  0.00  0.00    +0.000 C 
BRANCH  23  24
ATOM     24  C   UNL     1       6.181   5.608  17.299  0.00  0.00    +0.000 C 
ATOM     25  C   UNL     1       6.787   7.027  17.324  0.00  0.00    +0.000 C 
ATOM     26  C   UNL     1       7.954   6.968  18.301  0.00  0.00    +0.000 C 
ATOM     27  C   UNL     1       7.590   5.883  19.306  0.00  0.00    +0.000 C 
ATOM     28  C   UNL     1       6.309   5.222  18.791  0.00  0.00    +0.000 C 
BRANCH  24  29
ATOM     29  C   UNL     1       7.004   4.651  16.419  0.00  0.00    +0.000 C 
ATOM     30  F   UNL     1       8.026   4.094  17.111  0.00  0.00    +0.000 F 
ATOM     31  F   UNL     1       6.260   3.631  15.937  0.00  0.00    +0.000 F 
ATOM     32  F   UNL     1       7.556   5.275  15.355  0.00  0.00    +0.000 F 
ENDBRANCH  24  29
ENDBRANCH  23  24
ENDBRANCH  22  23
ENDBRANCH   4  22
TORSDOF 8
ENDMDL
MODEL 5
REMARK VINA RESULT:      -8.4      1.965      2.146
REMARK  Name = 
REMARK  8 active torsions:
REMARK  status: ('A' for Active; 'I' for Inactive)
REMARK    1  A    between atoms: C_2  and  C_11
REMARK    2  A    between atoms: N_3  and  S_4
REMARK    3  A    between atoms: S_4  and  N_7
REMARK    4  A    between atoms: C_13  and  C_14
REMARK    5  A    between atoms: C_17  and  O_18
REMARK    6  A    between atoms: O_18  and  C_19
REMARK    7  A    between atoms: C_19  and  C_20
REMARK    8  A    between atoms: C_20  and  C_21
REMARK                            x       y       z     vdW  Elec       q    Type
REMARK                         _______ _______ _______ _____ _____    ______ ____
ROOT
ATOM      1  C   UNL     1       1.476   8.719  19.412  0.00  0.00    +0.000 A 
ATOM      2  C   UNL     1       1.591   7.546  20.178  0.00  0.00    +0.000 A 
ATOM      3  C   UNL     1       2.350   6.429  19.742  0.00  0.00    +0.000 A 
ATOM      4  C   UNL     1       3.013   6.551  18.485  0.00  0.00    +0.000 A 
ATOM      5  C   UNL     1       2.896   7.721  17.727  0.00  0.00    +0.000 A 
ATOM      6  C   UNL     1       2.141   8.793  18.200  0.00  0.00    +0.000 A 
ATOM      7  F   UNL     1       2.045   9.890  17.432  0.00  0.00    +0.000 F 
ENDROOT
BRANCH   1   9
ATOM      8  O   UNL     1      -0.492   9.612  20.291  0.00  0.00    +0.000 OA
ATOM      9  C   UNL     1       0.649   9.843  19.901  0.00  0.00    +0.000 C 
ATOM     10  N   UNL     1       1.229  11.114  19.918  0.00  0.00    +0.000 N 
ATOM     11  H   UNL     1       1.928  11.341  19.203  0.00  0.00    +0.000 HD
BRANCH  10  12
ATOM     12  S   UNL     1       0.468  12.465  20.484  0.00  0.00    +0.000 S 
ATOM     13  O   UNL     1      -0.662  12.702  19.619  0.00  0.00    +0.000 OA
ATOM     14  O   UNL     1       0.290  12.325  21.912  0.00  0.00    +0.000 OA
BRANCH  12  15
ATOM     15  N   UNL     1       1.618  13.634  20.159  0.00  0.00    +0.000 NA
ATOM     16  C   UNL     1       2.669  14.081  21.115  0.00  0.00    +0.000 C 
ATOM     17  C   UNL     1       3.543  14.527  19.931  0.00  0.00    +0.000 C 
ATOM     18  C   UNL     1       2.644  13.616  19.075  0.00  0.00    +0.000 C 
ENDBRANCH  12  15
ENDBRANCH  10  12
ENDBRANCH   1   9
BRANCH   3  19
ATOM     19  C   UNL     1       2.397   5.191  20.652  0.00  0.00    +0.000 C 
ATOM     20  C   UNL     1       1.278   4.181  20.708  0.00  0.00    +0.000 C 
ATOM     21  C   UNL     1       2.582   3.816  20.056  0.00  0.00    +0.000 C 
ENDBRANCH   3  19
BRANCH   4  22
ATOM     22  O   UNL     1       3.751   5.464  18.087  0.00  0.00    +0.000 OA
BRANCH  22  23
ATOM     23  C   UNL     1       4.574   5.510  16.924  0.00  0.00    +0.000 C 
BRANCH  23  24
ATOM     24  C   UNL     1       6.075   5.584  17.318  0.00  0.00    +0.000 C 
ATOM     25  C   UNL     1       6.586   7.040  17.291  0.00  0.00    +0.000 C 
ATOM     26  C   UNL     1       7.844   7.060  18.148  0.00  0.00    +0.000 C 
ATOM     27  C   UNL     1       7.654   5.955  19.179  0.00  0.00    +0.000 C 
ATOM     28  C   UNL     1       6.374   5.210  18.789  0.00  0.00    +0.000 C 
BRANCH  24  29
ATOM     29  C   UNL     1       6.869   4.682  16.358  0.00  0.00    +0.000 C 
ATOM     30  F   UNL     1       7.371   5.385  15.315  0.00  0.00    +0.000 F 
ATOM     31  F   UNL     1       7.919   4.086  16.965  0.00  0.00    +0.000 F 
ATOM     32  F   UNL     1       6.109   3.699  15.827  0.00  0.00    +0.000 F 
ENDBRANCH  24  29
ENDBRANCH  23  24
ENDBRANCH  22  23
ENDBRANCH   4  22
TORSDOF 8
ENDMDL
MODEL 6
REMARK VINA RESULT:      -8.4      1.605      2.335
REMARK  Name = 
REMARK  8 active torsions:
REMARK  status: ('A' for Active; 'I' for Inactive)
REMARK    1  A    between atoms: C_2  and  C_11
REMARK    2  A    between atoms: N_3  and  S_4
REMARK    3  A    between atoms: S_4  and  N_7
REMARK    4  A    between atoms: C_13  and  C_14
REMARK    5  A    between atoms: C_17  and  O_18
REMARK    6  A    between atoms: O_18  and  C_19
REMARK    7  A    between atoms: C_19  and  C_20
REMARK    8  A    between atoms: C_20  and  C_21
REMARK                            x       y       z     vdW  Elec       q    Type
REMARK                         _______ _______ _______ _____ _____    ______ ____
ROOT
ATOM      1  C   UNL     1       1.270   7.615  20.376  0.00  0.00    +0.000 A 
ATOM      2  C   UNL     1       1.481   6.314  20.866  0.00  0.00    +0.000 A 
ATOM      3  C   UNL     1       2.294   5.373  20.184  0.00  0.00    +0.000 A 
ATOM      4  C   UNL     1       2.910   5.808  18.973  0.00  0.00    +0.000 A 
ATOM      5  C   UNL     1       2.696   7.104  18.490  0.00  0.00    +0.000 A 
ATOM      6  C   UNL     1       1.891   7.994  19.199  0.00  0.00    +0.000 A 
ATOM      7  F   UNL     1       1.702   9.223  18.690  0.00  0.00    +0.000 F 
ENDROOT
BRANCH   1   9
ATOM      8  O   UNL     1      -0.547   8.090  21.762  0.00  0.00    +0.000 OA
ATOM      9  C   UNL     1       0.390   8.548  21.112  0.00  0.00    +0.000 C 
ATOM     10  N   UNL     1       0.694   9.910  21.049  0.00  0.00    +0.000 N 
ATOM     11  H   UNL     1       1.129  10.274  20.195  0.00  0.00    +0.000 HD
BRANCH  10  12
ATOM     12  S   UNL     1      -0.149  11.079  21.855  0.00  0.00    +0.000 S 
ATOM     13  O   UNL     1      -1.372  11.295  21.121  0.00  0.00    +0.000 OA
ATOM     14  O   UNL     1      -0.180  10.735  23.258  0.00  0.00    +0.000 OA
BRANCH  12  15
ATOM     15  N   UNL     1       0.839  12.406  21.609  0.00  0.00    +0.000 NA
ATOM     16  C   UNL     1       1.606  12.673  20.361  0.00  0.00    +0.000 C 
ATOM     17  C   UNL     1       1.610  14.174  20.696  0.00  0.00    +0.000 C 
ATOM     18  C   UNL     1       0.446  13.845  21.648  0.00  0.00    +0.000 C 
ENDBRANCH  12  15
ENDBRANCH  10  12
ENDBRANCH   1   9
BRANCH   3  19
ATOM     19  C   UNL     1       2.447   3.973  20.802  0.00  0.00    +0.000 C 
ATOM     20  C   UNL     1       1.287   3.220  21.404  0.00  0.00    +0.000 C 
ATOM     21  C   UNL     1       1.877   2.764  20.098  0.00  0.00    +0.000 C 
ENDBRANCH   3  19
BRANCH   4  22
ATOM     22  O   UNL     1       3.701   4.885  18.336  0.00  0.00    +0.000 OA
BRANCH  22  23
ATOM     23  C   UNL     1       5.110   4.841  18.547  0.00  0.00    +0.000 C 
BRANCH  23  24
ATOM     24  C   UNL     1       5.870   4.948  17.196  0.00  0.00    +0.000 C 
ATOM     25  C   UNL     1       5.783   3.626  16.403  0.00  0.00    +0.000 C 
ATOM     26  C   UNL     1       6.091   3.984  14.955  0.00  0.00    +0.000 C 
ATOM     27  C   UNL     1       5.638   5.427  14.786  0.00  0.00    +0.000 C 
ATOM     28  C   UNL     1       5.240   5.927  16.178  0.00  0.00    +0.000 C 
BRANCH  24  29
ATOM     29  C   UNL     1       7.327   5.340  17.494  0.00  0.00    +0.000 C 
ATOM     30  F   UNL     1       7.473   5.784  18.765  0.00  0.00    +0.000 F 
ATOM     31  F   UNL     1       8.178   4.301  17.346  0.00  0.00    +0.000 F 
ATOM     32  F   UNL     1       7.770   6.330  16.688  0.00  0.00    +0.000 F 
ENDBRANCH  24  29
ENDBRANCH  23  24
ENDBRANCH  22  23
ENDBRANCH   4  22
TORSDOF 8
ENDMDL
MODEL 7
REMARK VINA RESULT:      -8.3      1.451      1.657
REMARK  Name = 
REMARK  8 active torsions:
REMARK  status: ('A' for Active; 'I' for Inactive)
REMARK    1  A    between atoms: C_2  and  C_11
REMARK    2  A    between atoms: N_3  and  S_4
REMARK    3  A    between atoms: S_4  and  N_7
REMARK    4  A    between atoms: C_13  and  C_14
REMARK    5  A    between atoms: C_17  and  O_18
REMARK    6  A    between atoms: O_18  and  C_19
REMARK    7  A    between atoms: C_19  and  C_20
REMARK    8  A    between atoms: C_20  and  C_21
REMARK                            x       y       z     vdW  Elec       q    Type
REMARK                         _______ _______ _______ _____ _____    ______ ____
ROOT
ATOM      1  C   UNL     1       1.685   8.181  19.760  0.00  0.00    +0.000 A 
ATOM      2  C   UNL     1       1.801   6.877  20.273  0.00  0.00    +0.000 A 
ATOM      3  C   UNL     1       2.480   5.846  19.574  0.00  0.00    +0.000 A 
ATOM      4  C   UNL     1       3.062   6.193  18.319  0.00  0.00    +0.000 A 
ATOM      5  C   UNL     1       2.944   7.492  17.813  0.00  0.00    +0.000 A 
ATOM      6  C   UNL     1       2.270   8.472  18.540  0.00  0.00    +0.000 A 
ATOM      7  F   UNL     1       2.169   9.701  18.008  0.00  0.00    +0.000 F 
ENDROOT
BRANCH   1   9
ATOM      8  O   UNL     1       0.581   8.956  21.664  0.00  0.00    +0.000 OA
ATOM      9  C   UNL     1       0.942   9.210  20.518  0.00  0.00    +0.000 C 
ATOM     10  N   UNL     1       0.715  10.438  19.890  0.00  0.00    +0.000 N 
ATOM     11  H   UNL     1       0.599  10.451  18.871  0.00  0.00    +0.000 HD
BRANCH  10  12
ATOM     12  S   UNL     1      -0.046  11.712  20.612  0.00  0.00    +0.000 S 
ATOM     13  O   UNL     1      -1.464  11.472  20.498  0.00  0.00    +0.000 OA
ATOM     14  O   UNL     1       0.564  11.939  21.902  0.00  0.00    +0.000 OA
BRANCH  12  15
ATOM     15  N   UNL     1       0.350  12.951  19.561  0.00  0.00    +0.000 NA
ATOM     16  C   UNL     1       0.161  14.401  19.847  0.00  0.00    +0.000 C 
ATOM     17  C   UNL     1       1.276  14.734  18.842  0.00  0.00    +0.000 C 
ATOM     18  C   UNL     1       1.696  13.261  18.996  0.00  0.00    +0.000 C 
ENDBRANCH  12  15
ENDBRANCH  10  12
ENDBRANCH   1   9
BRANCH   3  19
ATOM     19  C   UNL     1       2.536   4.452  20.220  0.00  0.00    +0.000 C 
ATOM     20  C   UNL     1       1.375   3.865  20.984  0.00  0.00    +0.000 C 
ATOM     21  C   UNL     1       1.740   3.310  19.635  0.00  0.00    +0.000 C 
ENDBRANCH   3  19
BRANCH   4  22
ATOM     22  O   UNL     1       3.724   5.185  17.663  0.00  0.00    +0.000 OA
BRANCH  22  23
ATOM     23  C   UNL     1       4.665   5.463  16.629  0.00  0.00    +0.000 C 
BRANCH  23  24
ATOM     24  C   UNL     1       6.110   5.493  17.199  0.00  0.00    +0.000 C 
ATOM     25  C   UNL     1       6.647   6.938  17.278  0.00  0.00    +0.000 C 
ATOM     26  C   UNL     1       7.796   6.904  18.277  0.00  0.00    +0.000 C 
ATOM     27  C   UNL     1       7.466   5.773  19.242  0.00  0.00    +0.000 C 
ATOM     28  C   UNL     1       6.228   5.067  18.681  0.00  0.00    +0.000 C 
BRANCH  24  29
ATOM     29  C   UNL     1       6.995   4.603  16.308  0.00  0.00    +0.000 C 
ATOM     30  F   UNL     1       6.312   3.534  15.837  0.00  0.00    +0.000 F 
ATOM     31  F   UNL     1       7.468   5.267  15.230  0.00  0.00    +0.000 F 
ATOM     32  F   UNL     1       8.066   4.113  16.971  0.00  0.00    +0.000 F 
ENDBRANCH  24  29
ENDBRANCH  23  24
ENDBRANCH  22  23
ENDBRANCH   4  22
TORSDOF 8
ENDMDL
MODEL 8
REMARK VINA RESULT:      -8.2      1.295      1.772
REMARK  Name = 
REMARK  8 active torsions:
REMARK  status: ('A' for Active; 'I' for Inactive)
REMARK    1  A    between atoms: C_2  and  C_11
REMARK    2  A    between atoms: N_3  and  S_4
REMARK    3  A    between atoms: S_4  and  N_7
REMARK    4  A    between atoms: C_13  and  C_14
REMARK    5  A    between atoms: C_17  and  O_18
REMARK    6  A    between atoms: O_18  and  C_19
REMARK    7  A    between atoms: C_19  and  C_20
REMARK    8  A    between atoms: C_20  and  C_21
REMARK                            x       y       z     vdW  Elec       q    Type
REMARK                         _______ _______ _______ _____ _____    ______ ____
ROOT
ATOM      1  C   UNL     1       1.387   9.016  19.245  0.00  0.00    +0.000 A 
ATOM      2  C   UNL     1       1.401   7.889  20.085  0.00  0.00    +0.000 A 
ATOM      3  C   UNL     1       2.187   6.743  19.799  0.00  0.00    +0.000 A 
ATOM      4  C   UNL     1       2.986   6.785  18.619  0.00  0.00    +0.000 A 
ATOM      5  C   UNL     1       2.968   7.910  17.786  0.00  0.00    +0.000 A 
ATOM      6  C   UNL     1       2.182   9.013  18.111  0.00  0.00    +0.000 A 
ATOM      7  F   UNL     1       2.186  10.065  17.276  0.00  0.00    +0.000 F 
ENDROOT
BRANCH   1   9
ATOM      8  O   UNL     1      -0.665  10.125  19.287  0.00  0.00    +0.000 OA
ATOM      9  C   UNL     1       0.528  10.173  19.574  0.00  0.00    +0.000 C 
ATOM     10  N   UNL     1       1.122  11.256  20.228  0.00  0.00    +0.000 N 
ATOM     11  H   UNL     1       2.108  11.462  20.032  0.00  0.00    +0.000 HD
BRANCH  10  12
ATOM     12  S   UNL     1       0.298  12.600  20.717  0.00  0.00    +0.000 S 
ATOM     13  O   UNL     1       1.156  13.305  21.639  0.00  0.00    +0.000 OA
ATOM     14  O   UNL     1      -0.233  13.262  19.547  0.00  0.00    +0.000 OA
BRANCH  12  15
ATOM     15  N   UNL     1      -0.941  11.905  21.599  0.00  0.00    +0.000 NA
ATOM     16  C   UNL     1      -0.759  11.142  22.865  0.00  0.00    +0.000 C 
ATOM     17  C   UNL     1      -2.206  11.478  23.264  0.00  0.00    +0.000 C 
ATOM     18  C   UNL     1      -2.113  12.597  22.211  0.00  0.00    +0.000 C 
ENDBRANCH  12  15
ENDBRANCH  10  12
ENDBRANCH   1   9
BRANCH   3  19
ATOM     19  C   UNL     1       2.117   5.559  20.779  0.00  0.00    +0.000 C 
ATOM     20  C   UNL     1       1.186   4.391  20.575  0.00  0.00    +0.000 C 
ATOM     21  C   UNL     1       2.666   4.210  20.381  0.00  0.00    +0.000 C 
ENDBRANCH   3  19
BRANCH   4  22
ATOM     22  O   UNL     1       3.747   5.671  18.367  0.00  0.00    +0.000 OA
BRANCH  22  23
ATOM     23  C   UNL     1       4.465   5.522  17.145  0.00  0.00    +0.000 C 
BRANCH  23  24
ATOM     24  C   UNL     1       5.997   5.610  17.396  0.00  0.00    +0.000 C 
ATOM     25  C   UNL     1       6.496   7.066  17.288  0.00  0.00    +0.000 C 
ATOM     26  C   UNL     1       7.829   7.108  18.025  0.00  0.00    +0.000 C 
ATOM     27  C   UNL     1       7.739   6.027  19.094  0.00  0.00    +0.000 C 
ATOM     28  C   UNL     1       6.432   5.269  18.841  0.00  0.00    +0.000 C 
BRANCH  24  29
ATOM     29  C   UNL     1       6.702   4.687  16.387  0.00  0.00    +0.000 C 
ATOM     30  F   UNL     1       7.793   4.097  16.930  0.00  0.00    +0.000 F 
ATOM     31  F   UNL     1       5.897   3.692  15.953  0.00  0.00    +0.000 F 
ATOM     32  F   UNL     1       7.130   5.354  15.292  0.00  0.00    +0.000 F 
ENDBRANCH  24  29
ENDBRANCH  23  24
ENDBRANCH  22  23
ENDBRANCH   4  22
TORSDOF 8
ENDMDL
MODEL 9
REMARK VINA RESULT:      -8.1      1.868      2.519
REMARK  Name = 
REMARK  8 active torsions:
REMARK  status: ('A' for Active; 'I' for Inactive)
REMARK    1  A    between atoms: C_2  and  C_11
REMARK    2  A    between atoms: N_3  and  S_4
REMARK    3  A    between atoms: S_4  and  N_7
REMARK    4  A    between atoms: C_13  and  C_14
REMARK    5  A    between atoms: C_17  and  O_18
REMARK    6  A    between atoms: O_18  and  C_19
REMARK    7  A    between atoms: C_19  and  C_20
REMARK    8  A    between atoms: C_20  and  C_21
REMARK                            x       y       z     vdW  Elec       q    Type
REMARK                         _______ _______ _______ _____ _____    ______ ____
ROOT
ATOM      1  C   UNL     1       1.072   8.916  19.909  0.00  0.00    +0.000 A 
ATOM      2  C   UNL     1       1.589   7.682  20.342  0.00  0.00    +0.000 A 
ATOM      3  C   UNL     1       2.436   6.889  19.527  0.00  0.00    +0.000 A 
ATOM      4  C   UNL     1       2.760   7.406  18.238  0.00  0.00    +0.000 A 
ATOM      5  C   UNL     1       2.244   8.635  17.812  0.00  0.00    +0.000 A 
ATOM      6  C   UNL     1       1.418   9.379  18.652  0.00  0.00    +0.000 A 
ATOM      7  F   UNL     1       0.933  10.546  18.196  0.00  0.00    +0.000 F 
ENDROOT
BRANCH   1   9
ATOM      8  O   UNL     1      -0.556   9.083  21.573  0.00  0.00    +0.000 OA
ATOM      9  C   UNL     1       0.170   9.689  20.789  0.00  0.00    +0.000 C 
ATOM     10  N   UNL     1       0.216  11.083  20.699  0.00  0.00    +0.000 N 
ATOM     11  H   UNL     1       0.439  11.506  19.791  0.00  0.00    +0.000 HD
BRANCH  10  12
ATOM     12  S   UNL     1      -0.680  12.096  21.645  0.00  0.00    +0.000 S 
ATOM     13  O   UNL     1      -2.031  12.057  21.139  0.00  0.00    +0.000 OA
ATOM     14  O   UNL     1      -0.401  11.794  23.031  0.00  0.00    +0.000 OA
BRANCH  12  15
ATOM     15  N   UNL     1      -0.021  13.577  21.234  0.00  0.00    +0.000 NA
ATOM     16  C   UNL     1       1.438  13.853  21.116  0.00  0.00    +0.000 C 
ATOM     17  C   UNL     1       1.129  15.016  20.156  0.00  0.00    +0.000 C 
ATOM     18  C   UNL     1      -0.246  14.349  19.976  0.00  0.00    +0.000 C 
ENDBRANCH  12  15
ENDBRANCH  10  12
ENDBRANCH   1   9
BRANCH   3  19
ATOM     19  C   UNL     1       2.933   5.549  20.094  0.00  0.00    +0.000 C 
ATOM     20  C   UNL     1       2.098   4.697  21.016  0.00  0.00    +0.000 C 
ATOM     21  C   UNL     1       2.343   4.249  19.603  0.00  0.00    +0.000 C 
ENDBRANCH   3  19
BRANCH   4  22
ATOM     22  O   UNL     1       3.590   6.628  17.469  0.00  0.00    +0.000 OA
BRANCH  22  23
ATOM     23  C   UNL     1       4.996   6.857  17.428  0.00  0.00    +0.000 C 
BRANCH  23  24
ATOM     24  C   UNL     1       5.751   5.558  17.031  0.00  0.00    +0.000 C 
ATOM     25  C   UNL     1       4.843   4.615  16.213  0.00  0.00    +0.000 C 
ATOM     26  C   UNL     1       5.779   3.670  15.472  0.00  0.00    +0.000 C 
ATOM     27  C   UNL     1       7.067   4.453  15.260  0.00  0.00    +0.000 C 
ATOM     28  C   UNL     1       6.912   5.767  16.032  0.00  0.00    +0.000 C 
BRANCH  24  29
ATOM     29  C   UNL     1       6.259   4.886  18.319  0.00  0.00    +0.000 C 
ATOM     30  F   UNL     1       5.535   3.783  18.623  0.00  0.00    +0.000 F 
ATOM     31  F   UNL     1       7.546   4.489  18.215  0.00  0.00    +0.000 F 
ATOM     32  F   UNL     1       6.183   5.704  19.392  0.00  0.00    +0.000 F 
ENDBRANCH  24  29
ENDBRANCH  23  24
ENDBRANCH  22  23
ENDBRANCH   4  22
TORSDOF 8
ENDMDL
