MODEL 1
REMARK VINA RESULT:      -8.2      0.000      0.000
REMARK  Name = 
REMARK  4 active torsions:
REMARK  status: ('A' for Active; 'I' for Inactive)
REMARK    1  A    between atoms: C_1  and  O_2
REMARK    2  A    between atoms: O_2  and  C_3
REMARK    3  A    between atoms: C_8  and  C_9
REMARK    4  A    between atoms: C_17  and  C_18
REMARK                            x       y       z     vdW  Elec       q    Type
REMARK                         _______ _______ _______ _____ _____    ______ ____
ROOT
ATOM      1  C   UNL     1       2.286   6.640  19.847  0.00  0.00    +0.000 C 
ATOM      2  O   UNL     1       1.883   5.967  20.829  0.00  0.00    +0.000 OA
ATOM      3  N   UNL     1       3.134   5.735  18.975  0.00  0.00    +0.000 N 
ATOM      4  C   UNL     1       2.729   4.372  19.369  0.00  0.00    +0.000 C 
ATOM      5  C   UNL     1       3.460   3.125  18.995  0.00  0.00    +0.000 C 
ATOM      6  C   UNL     1       3.979   3.154  17.615  0.00  0.00    +0.000 C 
ATOM      7  C   UNL     1       4.134   4.542  17.017  0.00  0.00    +0.000 A 
ATOM      8  C   UNL     1       4.833   4.358  15.803  0.00  0.00    +0.000 A 
ATOM      9  C   UNL     1       5.930   5.157  15.559  0.00  0.00    +0.000 A 
ATOM     10  C   UNL     1       6.949   4.589  14.591  0.00  0.00    +0.000 C 
ATOM     11  C   UNL     1       6.081   6.260  16.421  0.00  0.00    +0.000 A 
ATOM     12  C   UNL     1       5.107   6.602  17.472  0.00  0.00    +0.000 A 
ATOM     13  C   UNL     1       4.065   5.732  17.802  0.00  0.00    +0.000 A 
ENDROOT
BRANCH   1  19
ATOM     14  C   UNL     1      -0.451  12.393  20.822  0.00  0.00    +0.000 A 
ATOM     15  C   UNL     1      -0.721  11.869  22.079  0.00  0.00    +0.000 A 
ATOM     16  C   UNL     1      -0.299  10.567  22.356  0.00  0.00    +0.000 A 
ATOM     17  C   UNL     1       0.375   9.795  21.361  0.00  0.00    +0.000 A 
ATOM     18  S   UNL     1       0.883   8.206  21.553  0.00  0.00    +0.000 S 
ATOM     19  C   UNL     1       1.635   8.003  19.908  0.00  0.00    +0.000 A 
ATOM     20  C   UNL     1       1.402   9.215  19.264  0.00  0.00    +0.000 A 
ATOM     21 CL   UNL     1       1.929   9.585  17.674  0.00  0.00    +0.000 Cl
ATOM     22  C   UNL     1       0.684  10.261  20.090  0.00  0.00    +0.000 A 
ATOM     23  C   UNL     1       0.267  11.614  19.857  0.00  0.00    +0.000 A 
BRANCH  14  25
ATOM     24  C   UNL     1      -0.424  14.075  19.112  0.00  0.00    +0.000 C 
ATOM     25  O   UNL     1      -0.803  13.660  20.437  0.00  0.00    +0.000 OA
ENDBRANCH  14  25
ENDBRANCH   1  19
TORSDOF 2
ENDMDL
MODEL 2
REMARK VINA RESULT:      -8.1      1.966      3.191
REMARK  Name = 
REMARK  4 active torsions:
REMARK  status: ('A' for Active; 'I' for Inactive)
REMARK    1  A    between atoms: C_1  and  O_2
REMARK    2  A    between atoms: O_2  and  C_3
REMARK    3  A    between atoms: C_8  and  C_9
REMARK    4  A    between atoms: C_17  and  C_18
REMARK                            x       y       z     vdW  Elec       q    Type
REMARK                         _______ _______ _______ _____ _____    ______ ____
ROOT
ATOM      1  C   UNL     1       2.206   8.403  18.113  0.00  0.00    +0.000 C 
ATOM      2  O   UNL     1       2.647   9.235  17.280  0.00  0.00    +0.000 OA
ATOM      3  N   UNL     1       2.891   7.074  17.856  0.00  0.00    +0.000 N 
ATOM      4  C   UNL     1       4.104   7.435  17.097  0.00  0.00    +0.000 C 
ATOM      5  C   UNL     1       4.977   6.463  16.374  0.00  0.00    +0.000 C 
ATOM      6  C   UNL     1       5.159   5.198  17.109  0.00  0.00    +0.000 C 
ATOM      7  C   UNL     1       4.093   4.901  18.150  0.00  0.00    +0.000 A 
ATOM      8  C   UNL     1       4.331   3.573  18.571  0.00  0.00    +0.000 A 
ATOM      9  C   UNL     1       3.264   2.700  18.598  0.00  0.00    +0.000 A 
ATOM     10  C   UNL     1       3.619   1.230  18.493  0.00  0.00    +0.000 C 
ATOM     11  C   UNL     1       1.993   3.292  18.464  0.00  0.00    +0.000 A 
ATOM     12  C   UNL     1       1.786   4.748  18.375  0.00  0.00    +0.000 A 
ATOM     13  C   UNL     1       2.864   5.623  18.224  0.00  0.00    +0.000 A 
ENDROOT
BRANCH   1  19
ATOM     14  C   UNL     1      -1.291  11.207  22.744  0.00  0.00    +0.000 A 
ATOM     15  C   UNL     1      -0.796  10.167  23.520  0.00  0.00    +0.000 A 
ATOM     16  C   UNL     1       0.056   9.240  22.916  0.00  0.00    +0.000 A 
ATOM     17  C   UNL     1       0.389   9.354  21.532  0.00  0.00    +0.000 A 
ATOM     18  S   UNL     1       1.357   8.278  20.681  0.00  0.00    +0.000 S 
ATOM     19  C   UNL     1       1.298   9.133  19.075  0.00  0.00    +0.000 A 
ATOM     20  C   UNL     1       0.463  10.227  19.291  0.00  0.00    +0.000 A 
ATOM     21 CL   UNL     1       0.077  11.401  18.102  0.00  0.00    +0.000 Cl
ATOM     22  C   UNL     1      -0.063  10.373  20.703  0.00  0.00    +0.000 A 
ATOM     23  C   UNL     1      -0.904  11.324  21.369  0.00  0.00    +0.000 A 
BRANCH  14  25
ATOM     24  C   UNL     1      -3.227  12.578  22.389  0.00  0.00    +0.000 C 
ATOM     25  O   UNL     1      -2.123  12.182  23.225  0.00  0.00    +0.000 OA
ENDBRANCH  14  25
ENDBRANCH   1  19
TORSDOF 2
ENDMDL
MODEL 3
REMARK VINA RESULT:      -7.8      2.308      3.720
REMARK  Name = 
REMARK  4 active torsions:
REMARK  status: ('A' for Active; 'I' for Inactive)
REMARK    1  A    between atoms: C_1  and  O_2
REMARK    2  A    between atoms: O_2  and  C_3
REMARK    3  A    between atoms: C_8  and  C_9
REMARK    4  A    between atoms: C_17  and  C_18
REMARK                            x       y       z     vdW  Elec       q    Type
REMARK                         _______ _______ _______ _____ _____    ______ ____
ROOT
ATOM      1  C   UNL     1       1.779   8.747  18.623  0.00  0.00    +0.000 C 
ATOM      2  O   UNL     1       1.911   9.431  17.577  0.00  0.00    +0.000 OA
ATOM      3  N   UNL     1       2.601   7.482  18.462  0.00  0.00    +0.000 N 
ATOM      4  C   UNL     1       3.568   7.814  17.399  0.00  0.00    +0.000 C 
ATOM      5  C   UNL     1       4.424   6.820  16.686  0.00  0.00    +0.000 C 
ATOM      6  C   UNL     1       4.944   5.766  17.577  0.00  0.00    +0.000 C 
ATOM      7  C   UNL     1       4.163   5.572  18.865  0.00  0.00    +0.000 A 
ATOM      8  C   UNL     1       4.685   4.398  19.454  0.00  0.00    +0.000 A 
ATOM      9  C   UNL     1       3.796   3.433  19.875  0.00  0.00    +0.000 A 
ATOM     10  C   UNL     1       4.350   2.025  19.960  0.00  0.00    +0.000 C 
ATOM     11  C   UNL     1       2.446   3.832  19.925  0.00  0.00    +0.000 A 
ATOM     12  C   UNL     1       1.999   5.204  19.624  0.00  0.00    +0.000 A 
ATOM     13  C   UNL     1       2.875   6.146  19.081  0.00  0.00    +0.000 A 
ENDROOT
BRANCH   1  19
ATOM     14  C   UNL     1      -2.141  12.261  22.341  0.00  0.00    +0.000 A 
ATOM     15  C   UNL     1      -2.646  12.690  21.120  0.00  0.00    +0.000 A 
ATOM     16  C   UNL     1      -2.076  12.176  19.953  0.00  0.00    +0.000 A 
ATOM     17  C   UNL     1      -0.991  11.251  20.021  0.00  0.00    +0.000 A 
ATOM     18  S   UNL     1      -0.189  10.604  18.695  0.00  0.00    +0.000 S 
ATOM     19  C   UNL     1       0.974   9.552  19.617  0.00  0.00    +0.000 A 
ATOM     20  C   UNL     1       0.688   9.803  20.957  0.00  0.00    +0.000 A 
ATOM     21 CL   UNL     1       1.480   9.046  22.276  0.00  0.00    +0.000 Cl
ATOM     22  C   UNL     1      -0.446  10.775  21.207  0.00  0.00    +0.000 A 
ATOM     23  C   UNL     1      -1.083  11.296  22.381  0.00  0.00    +0.000 A 
BRANCH  14  25
ATOM     24  C   UNL     1      -4.055  12.714  23.714  0.00  0.00    +0.000 C 
ATOM     25  O   UNL     1      -2.625  12.682  23.551  0.00  0.00    +0.000 OA
ENDBRANCH  14  25
ENDBRANCH   1  19
TORSDOF 2
ENDMDL
MODEL 4
REMARK VINA RESULT:      -7.3      2.497      8.328
REMARK  Name = 
REMARK  4 active torsions:
REMARK  status: ('A' for Active; 'I' for Inactive)
REMARK    1  A    between atoms: C_1  and  O_2
REMARK    2  A    between atoms: O_2  and  C_3
REMARK    3  A    between atoms: C_8  and  C_9
REMARK    4  A    between atoms: C_17  and  C_18
REMARK                            x       y       z     vdW  Elec       q    Type
REMARK                         _______ _______ _______ _____ _____    ______ ____
ROOT
ATOM      1  C   UNL     1       1.629   7.098  20.087  0.00  0.00    +0.000 C 
ATOM      2  O   UNL     1       1.461   6.337  21.073  0.00  0.00    +0.000 OA
ATOM      3  N   UNL     1       1.051   8.456  20.440  0.00  0.00    +0.000 N 
ATOM      4  C   UNL     1       0.992   8.450  21.914  0.00  0.00    +0.000 C 
ATOM      5  C   UNL     1       0.252   9.450  22.740  0.00  0.00    +0.000 C 
ATOM      6  C   UNL     1       0.355  10.822  22.211  0.00  0.00    +0.000 C 
ATOM      7  C   UNL     1       0.724  10.917  20.740  0.00  0.00    +0.000 A 
ATOM      8  C   UNL     1       0.558  12.276  20.392  0.00  0.00    +0.000 A 
ATOM      9  C   UNL     1      -0.170  12.571  19.259  0.00  0.00    +0.000 A 
ATOM     10  C   UNL     1      -0.796  13.951  19.225  0.00  0.00    +0.000 C 
ATOM     11  C   UNL     1      -0.443  11.480  18.413  0.00  0.00    +0.000 A 
ATOM     12  C   UNL     1       0.066  10.119  18.661  0.00  0.00    +0.000 A 
ATOM     13  C   UNL     1       0.696   9.792  19.863  0.00  0.00    +0.000 A 
ENDROOT
BRANCH   1  19
ATOM     14  C   UNL     1       5.486   4.560  15.591  0.00  0.00    +0.000 A 
ATOM     15  C   UNL     1       5.691   5.891  15.250  0.00  0.00    +0.000 A 
ATOM     16  C   UNL     1       5.022   6.871  15.985  0.00  0.00    +0.000 A 
ATOM     17  C   UNL     1       4.137   6.507  17.045  0.00  0.00    +0.000 A 
ATOM     18  S   UNL     1       3.237   7.586  17.965  0.00  0.00    +0.000 S 
ATOM     19  C   UNL     1       2.447   6.360  19.053  0.00  0.00    +0.000 A 
ATOM     20  C   UNL     1       2.915   5.131  18.595  0.00  0.00    +0.000 A 
ATOM     21 CL   UNL     1       2.504   3.617  19.289  0.00  0.00    +0.000 Cl
ATOM     22  C   UNL     1       3.895   5.198  17.443  0.00  0.00    +0.000 A 
ATOM     23  C   UNL     1       4.629   4.224  16.689  0.00  0.00    +0.000 A 
BRANCH  14  25
ATOM     24  C   UNL     1       6.277   3.622  13.530  0.00  0.00    +0.000 C 
ATOM     25  O   UNL     1       6.095   3.512  14.954  0.00  0.00    +0.000 OA
ENDBRANCH  14  25
ENDBRANCH   1  19
TORSDOF 2
ENDMDL
MODEL 5
REMARK VINA RESULT:      -7.3      1.460      1.898
REMARK  Name = 
REMARK  4 active torsions:
REMARK  status: ('A' for Active; 'I' for Inactive)
REMARK    1  A    between atoms: C_1  and  O_2
REMARK    2  A    between atoms: O_2  and  C_3
REMARK    3  A    between atoms: C_8  and  C_9
REMARK    4  A    between atoms: C_17  and  C_18
REMARK                            x       y       z     vdW  Elec       q    Type
REMARK                         _______ _______ _______ _____ _____    ______ ____
ROOT
ATOM      1  C   UNL     1       2.183   6.626  19.936  0.00  0.00    +0.000 C 
ATOM      2  O   UNL     1       1.721   5.909  20.858  0.00  0.00    +0.000 OA
ATOM      3  N   UNL     1       3.017   5.743  19.027  0.00  0.00    +0.000 N 
ATOM      4  C   UNL     1       2.539   4.377  19.316  0.00  0.00    +0.000 C 
ATOM      5  C   UNL     1       3.225   3.125  18.878  0.00  0.00    +0.000 C 
ATOM      6  C   UNL     1       3.786   3.222  17.518  0.00  0.00    +0.000 C 
ATOM      7  C   UNL     1       4.021   4.638  17.021  0.00  0.00    +0.000 A 
ATOM      8  C   UNL     1       4.748   4.503  15.816  0.00  0.00    +0.000 A 
ATOM      9  C   UNL     1       5.886   5.264  15.657  0.00  0.00    +0.000 A 
ATOM     10  C   UNL     1       6.908   4.716  14.681  0.00  0.00    +0.000 C 
ATOM     11  C   UNL     1       6.060   6.299  16.596  0.00  0.00    +0.000 A 
ATOM     12  C   UNL     1       5.071   6.616  17.641  0.00  0.00    +0.000 A 
ATOM     13  C   UNL     1       3.982   5.775  17.882  0.00  0.00    +0.000 A 
ENDROOT
BRANCH   1  19
ATOM     14  C   UNL     1      -0.254  12.591  19.806  0.00  0.00    +0.000 A 
ATOM     15  C   UNL     1       0.436  12.670  18.603  0.00  0.00    +0.000 A 
ATOM     16  C   UNL     1       1.164  11.554  18.185  0.00  0.00    +0.000 A 
ATOM     17  C   UNL     1       1.209  10.374  18.987  0.00  0.00    +0.000 A 
ATOM     18  S   UNL     1       2.087   8.991  18.621  0.00  0.00    +0.000 S 
ATOM     19  C   UNL     1       1.592   8.010  20.072  0.00  0.00    +0.000 A 
ATOM     20  C   UNL     1       0.772   8.862  20.808  0.00  0.00    +0.000 A 
ATOM     21 CL   UNL     1      -0.001   8.434  22.277  0.00  0.00    +0.000 Cl
ATOM     22  C   UNL     1       0.536  10.226  20.193  0.00  0.00    +0.000 A 
ATOM     23  C   UNL     1      -0.230  11.379  20.569  0.00  0.00    +0.000 A 
BRANCH  14  25
ATOM     24  C   UNL     1      -2.407  13.347  20.544  0.00  0.00    +0.000 C 
ATOM     25  O   UNL     1      -1.011  13.613  20.314  0.00  0.00    +0.000 OA
ENDBRANCH  14  25
ENDBRANCH   1  19
TORSDOF 2
ENDMDL
MODEL 6
REMARK VINA RESULT:      -7.3      2.243      8.416
REMARK  Name = 
REMARK  4 active torsions:
REMARK  status: ('A' for Active; 'I' for Inactive)
REMARK    1  A    between atoms: C_1  and  O_2
REMARK    2  A    between atoms: O_2  and  C_3
REMARK    3  A    between atoms: C_8  and  C_9
REMARK    4  A    between atoms: C_17  and  C_18
REMARK                            x       y       z     vdW  Elec       q    Type
REMARK                         _______ _______ _______ _____ _____    ______ ____
ROOT
ATOM      1  C   UNL     1       1.354   7.816  20.434  0.00  0.00    +0.000 C 
ATOM      2  O   UNL     1       1.335   6.902  21.296  0.00  0.00    +0.000 OA
ATOM      3  N   UNL     1       0.474   8.947  20.931  0.00  0.00    +0.000 N 
ATOM      4  C   UNL     1       0.377   8.715  22.385  0.00  0.00    +0.000 C 
ATOM      5  C   UNL     1      -0.594   9.396  23.293  0.00  0.00    +0.000 C 
ATOM      6  C   UNL     1      -0.790  10.819  22.961  0.00  0.00    +0.000 C 
ATOM      7  C   UNL     1      -0.410  11.206  21.542  0.00  0.00    +0.000 A 
ATOM      8  C   UNL     1      -0.871  12.531  21.372  0.00  0.00    +0.000 A 
ATOM      9  C   UNL     1      -1.614  12.819  20.248  0.00  0.00    +0.000 A 
ATOM     10  C   UNL     1      -2.535  14.018  20.363  0.00  0.00    +0.000 C 
ATOM     11  C   UNL     1      -1.609  11.829  19.247  0.00  0.00    +0.000 A 
ATOM     12  C   UNL     1      -0.812  10.593  19.338  0.00  0.00    +0.000 A 
ATOM     13  C   UNL     1      -0.159  10.241  20.521  0.00  0.00    +0.000 A 
ENDROOT
BRANCH   1  19
ATOM     14  C   UNL     1       5.475   5.507  16.051  0.00  0.00    +0.000 A 
ATOM     15  C   UNL     1       5.489   4.398  16.888  0.00  0.00    +0.000 A 
ATOM     16  C   UNL     1       4.705   4.434  18.043  0.00  0.00    +0.000 A 
ATOM     17  C   UNL     1       3.928   5.590  18.358  0.00  0.00    +0.000 A 
ATOM     18  S   UNL     1       2.990   5.775  19.738  0.00  0.00    +0.000 S 
ATOM     19  C   UNL     1       2.346   7.435  19.361  0.00  0.00    +0.000 A 
ATOM     20  C   UNL     1       2.954   7.781  18.156  0.00  0.00    +0.000 A 
ATOM     21 CL   UNL     1       2.678   9.252  17.319  0.00  0.00    +0.000 Cl
ATOM     22  C   UNL     1       3.863   6.726  17.561  0.00  0.00    +0.000 A 
ATOM     23  C   UNL     1       4.651   6.636  16.367  0.00  0.00    +0.000 A 
BRANCH  14  25
ATOM     24  C   UNL     1       6.375   4.367  14.142  0.00  0.00    +0.000 C 
ATOM     25  O   UNL     1       6.191   5.586  14.886  0.00  0.00    +0.000 OA
ENDBRANCH  14  25
ENDBRANCH   1  19
TORSDOF 2
ENDMDL
MODEL 7
REMARK VINA RESULT:      -7.3      2.084      3.721
REMARK  Name = 
REMARK  4 active torsions:
REMARK  status: ('A' for Active; 'I' for Inactive)
REMARK    1  A    between atoms: C_1  and  O_2
REMARK    2  A    between atoms: O_2  and  C_3
REMARK    3  A    between atoms: C_8  and  C_9
REMARK    4  A    between atoms: C_17  and  C_18
REMARK                            x       y       z     vdW  Elec       q    Type
REMARK                         _______ _______ _______ _____ _____    ______ ____
ROOT
ATOM      1  C   UNL     1       1.861   8.895  18.581  0.00  0.00    +0.000 C 
ATOM      2  O   UNL     1       2.152   9.316  17.432  0.00  0.00    +0.000 OA
ATOM      3  N   UNL     1       2.397   7.482  18.712  0.00  0.00    +0.000 N 
ATOM      4  C   UNL     1       3.429   7.389  17.661  0.00  0.00    +0.000 C 
ATOM      5  C   UNL     1       4.064   6.118  17.202  0.00  0.00    +0.000 C 
ATOM      6  C   UNL     1       4.334   5.179  18.306  0.00  0.00    +0.000 C 
ATOM      7  C   UNL     1       3.511   5.411  19.561  0.00  0.00    +0.000 A 
ATOM      8  C   UNL     1       3.763   4.296  20.393  0.00  0.00    +0.000 A 
ATOM      9  C   UNL     1       2.682   3.639  20.940  0.00  0.00    +0.000 A 
ATOM     10  C   UNL     1       2.923   2.192  21.324  0.00  0.00    +0.000 C 
ATOM     11  C   UNL     1       1.448   4.309  20.836  0.00  0.00    +0.000 A 
ATOM     12  C   UNL     1       1.308   5.655  20.254  0.00  0.00    +0.000 A 
ATOM     13  C   UNL     1       2.372   6.269  19.590  0.00  0.00    +0.000 A 
ENDROOT
BRANCH   1  19
ATOM     14  C   UNL     1      -0.871  13.280  22.434  0.00  0.00    +0.000 A 
ATOM     15  C   UNL     1      -1.298  12.158  23.134  0.00  0.00    +0.000 A 
ATOM     16  C   UNL     1      -0.934  10.900  22.650  0.00  0.00    +0.000 A 
ATOM     17  C   UNL     1      -0.161  10.777  21.456  0.00  0.00    +0.000 A 
ATOM     18  S   UNL     1       0.293   9.325  20.745  0.00  0.00    +0.000 S 
ATOM     19  C   UNL     1       1.231  10.030  19.355  0.00  0.00    +0.000 A 
ATOM     20  C   UNL     1       1.099  11.408  19.505  0.00  0.00    +0.000 A 
ATOM     21 CL   UNL     1       1.818  12.570  18.469  0.00  0.00    +0.000 Cl
ATOM     22  C   UNL     1       0.305  11.856  20.715  0.00  0.00    +0.000 A 
ATOM     23  C   UNL     1      -0.057  13.130  21.265  0.00  0.00    +0.000 A 
BRANCH  14  25
ATOM     24  C   UNL     1      -1.585  14.768  24.175  0.00  0.00    +0.000 C 
ATOM     25  O   UNL     1      -1.152  14.564  22.817  0.00  0.00    +0.000 OA
ENDBRANCH  14  25
ENDBRANCH   1  19
TORSDOF 2
ENDMDL
MODEL 8
REMARK VINA RESULT:      -7.3      1.333      1.918
REMARK  Name = 
REMARK  4 active torsions:
REMARK  status: ('A' for Active; 'I' for Inactive)
REMARK    1  A    between atoms: C_1  and  O_2
REMARK    2  A    between atoms: O_2  and  C_3
REMARK    3  A    between atoms: C_8  and  C_9
REMARK    4  A    between atoms: C_17  and  C_18
REMARK                            x       y       z     vdW  Elec       q    Type
REMARK                         _______ _______ _______ _____ _____    ______ ____
ROOT
ATOM      1  C   UNL     1       1.560   8.110  20.378  0.00  0.00    +0.000 C 
ATOM      2  O   UNL     1       1.181   7.843  21.546  0.00  0.00    +0.000 OA
ATOM      3  N   UNL     1       2.212   6.869  19.801  0.00  0.00    +0.000 N 
ATOM      4  C   UNL     1       1.696   5.769  20.637  0.00  0.00    +0.000 C 
ATOM      5  C   UNL     1       2.242   4.379  20.648  0.00  0.00    +0.000 C 
ATOM      6  C   UNL     1       2.624   3.901  19.307  0.00  0.00    +0.000 C 
ATOM      7  C   UNL     1       2.877   4.995  18.283  0.00  0.00    +0.000 A 
ATOM      8  C   UNL     1       3.429   4.344  17.158  0.00  0.00    +0.000 A 
ATOM      9  C   UNL     1       4.580   4.865  16.607  0.00  0.00    +0.000 A 
ATOM     10  C   UNL     1       5.430   3.887  15.820  0.00  0.00    +0.000 C 
ATOM     11  C   UNL     1       4.938   6.152  17.055  0.00  0.00    +0.000 A 
ATOM     12  C   UNL     1       4.115   6.938  17.990  0.00  0.00    +0.000 A 
ATOM     13  C   UNL     1       3.019   6.369  18.642  0.00  0.00    +0.000 A 
ENDROOT
BRANCH   1  19
ATOM     14  C   UNL     1      -0.701  14.093  19.581  0.00  0.00    +0.000 A 
ATOM     15  C   UNL     1      -1.414  13.801  20.737  0.00  0.00    +0.000 A 
ATOM     16  C   UNL     1      -1.247  12.542  21.316  0.00  0.00    +0.000 A 
ATOM     17  C   UNL     1      -0.379  11.577  20.718  0.00  0.00    +0.000 A 
ATOM     18  S   UNL     1      -0.135  10.016  21.286  0.00  0.00    +0.000 S 
ATOM     19  C   UNL     1       1.076   9.499  20.030  0.00  0.00    +0.000 A 
ATOM     20  C   UNL     1       1.195  10.599  19.184  0.00  0.00    +0.000 A 
ATOM     21 CL   UNL     1       2.239  10.668  17.825  0.00  0.00    +0.000 Cl
ATOM     22  C   UNL     1       0.369  11.808  19.570  0.00  0.00    +0.000 A 
ATOM     23  C   UNL     1       0.198  13.124  19.028  0.00  0.00    +0.000 A 
BRANCH  14  25
ATOM     24  C   UNL     1       0.452  16.042  18.790  0.00  0.00    +0.000 C 
ATOM     25  O   UNL     1      -0.771  15.296  18.930  0.00  0.00    +0.000 OA
ENDBRANCH  14  25
ENDBRANCH   1  19
TORSDOF 2
ENDMDL
MODEL 9
REMARK VINA RESULT:      -7.2      2.540      9.052
REMARK  Name = 
REMARK  4 active torsions:
REMARK  status: ('A' for Active; 'I' for Inactive)
REMARK    1  A    between atoms: C_1  and  O_2
REMARK    2  A    between atoms: O_2  and  C_3
REMARK    3  A    between atoms: C_8  and  C_9
REMARK    4  A    between atoms: C_17  and  C_18
REMARK                            x       y       z     vdW  Elec       q    Type
REMARK                         _______ _______ _______ _____ _____    ______ ____
ROOT
ATOM      1  C   UNL     1       1.478   9.918  18.981  0.00  0.00    +0.000 C 
ATOM      2  O   UNL     1       2.053  10.484  18.016  0.00  0.00    +0.000 OA
ATOM      3  N   UNL     1       0.481  10.896  19.572  0.00  0.00    +0.000 N 
ATOM      4  C   UNL     1       0.258  11.879  18.495  0.00  0.00    +0.000 C 
ATOM      5  C   UNL     1      -0.433  13.191  18.669  0.00  0.00    +0.000 C 
ATOM      6  C   UNL     1      -1.594  13.113  19.575  0.00  0.00    +0.000 C 
ATOM      7  C   UNL     1      -1.588  11.927  20.525  0.00  0.00    +0.000 A 
ATOM      8  C   UNL     1      -2.649  12.158  21.429  0.00  0.00    +0.000 A 
ATOM      9  C   UNL     1      -2.389  12.038  22.777  0.00  0.00    +0.000 A 
ATOM     10  C   UNL     1      -3.318  12.810  23.693  0.00  0.00    +0.000 C 
ATOM     11  C   UNL     1      -1.163  11.431  23.107  0.00  0.00    +0.000 A 
ATOM     12  C   UNL     1      -0.236  10.885  22.100  0.00  0.00    +0.000 A 
ATOM     13  C   UNL     1      -0.435  11.113  20.736  0.00  0.00    +0.000 A 
ENDROOT
BRANCH   1  19
ATOM     14  C   UNL     1       3.981   3.983  18.743  0.00  0.00    +0.000 A 
ATOM     15  C   UNL     1       4.553   4.449  17.566  0.00  0.00    +0.000 A 
ATOM     16  C   UNL     1       4.280   5.761  17.173  0.00  0.00    +0.000 A 
ATOM     17  C   UNL     1       3.419   6.589  17.956  0.00  0.00    +0.000 A 
ATOM     18  S   UNL     1       2.973   8.160  17.565  0.00  0.00    +0.000 S 
ATOM     19  C   UNL     1       1.942   8.480  19.029  0.00  0.00    +0.000 A 
ATOM     20  C   UNL     1       1.971   7.287  19.747  0.00  0.00    +0.000 A 
ATOM     21 CL   UNL     1       1.177   7.037  21.246  0.00  0.00    +0.000 Cl
ATOM     22  C   UNL     1       2.824   6.189  19.146  0.00  0.00    +0.000 A 
ATOM     23  C   UNL     1       3.158   4.850  19.533  0.00  0.00    +0.000 A 
BRANCH  14  25
ATOM     24  C   UNL     1       3.471   1.644  18.603  0.00  0.00    +0.000 C 
ATOM     25  O   UNL     1       4.184   2.722  19.237  0.00  0.00    +0.000 OA
ENDBRANCH  14  25
ENDBRANCH   1  19
TORSDOF 2
ENDMDL
