MODEL 1
REMARK VINA RESULT:      -6.8      0.000      0.000
REMARK  Name = 
REMARK  8 active torsions:
REMARK  status: ('A' for Active; 'I' for Inactive)
REMARK    1  A    between atoms: C_1  and  C_2
REMARK    2  A    between atoms: C_2  and  C_3
REMARK    3  A    between atoms: C_2  and  O_15
REMARK    4  A    between atoms: C_3  and  N_4
REMARK    5  A    between atoms: O_15  and  C_16
REMARK    6  A    between atoms: C_16  and  S_17
REMARK    7  A    between atoms: N_18  and  C_19
REMARK    8  A    between atoms: C_22  and  C_23
REMARK                            x       y       z     vdW  Elec       q    Type
REMARK                         _______ _______ _______ _____ _____    ______ ____
ROOT
ATOM      1  C   UNL     1       5.806   4.257  14.183  0.00  0.00    +0.000 C 
ATOM      2  C   UNL     1       5.086   4.539  15.503  0.00  0.00    +0.000 C 
ENDROOT
BRANCH   2   3
ATOM      3  C   UNL     1       5.390   3.466  16.563  0.00  0.00    +0.000 C 
BRANCH   3   4
ATOM      4  N   UNL     1       4.371   3.363  17.595  0.00  0.00    +0.000 N 
ATOM      5  C   UNL     1       4.624   3.517  18.931  0.00  0.00    +0.000 C 
ATOM      6  O   UNL     1       5.671   3.780  19.488  0.00  0.00    +0.000 OA
ATOM      7  C   UNL     1       3.344   3.369  19.619  0.00  0.00    +0.000 A 
ATOM      8  C   UNL     1       3.042   3.430  20.965  0.00  0.00    +0.000 A 
ATOM      9  C   UNL     1       1.696   3.308  21.325  0.00  0.00    +0.000 A 
ATOM     10  C   UNL     1       0.700   3.129  20.342  0.00  0.00    +0.000 A 
ATOM     11  C   UNL     1       1.034   3.056  18.985  0.00  0.00    +0.000 A 
ATOM     12  C   UNL     1       2.370   3.177  18.655  0.00  0.00    +0.000 A 
ATOM     13  C   UNL     1       3.037   3.172  17.351  0.00  0.00    +0.000 C 
ATOM     14  O   UNL     1       2.461   3.044  16.289  0.00  0.00    +0.000 OA
ENDBRANCH   3   4
ENDBRANCH   2   3
BRANCH   2  15
ATOM     15  O   UNL     1       5.591   5.826  15.927  0.00  0.00    +0.000 OA
BRANCH  15  16
ATOM     16  C   UNL     1       4.959   6.519  16.910  0.00  0.00    +0.000 C 
ATOM     17  N   UNL     1       3.666   6.494  17.012  0.00  0.00    +0.000 NA
BRANCH  17  18
ATOM     18  C   UNL     1       2.944   7.235  17.964  0.00  0.00    +0.000 A 
ATOM     19  C   UNL     1       2.724   6.768  19.265  0.00  0.00    +0.000 A 
ATOM     20  C   UNL     1       1.968   7.495  20.186  0.00  0.00    +0.000 A 
ATOM     21  C   UNL     1       1.507   8.767  19.855  0.00  0.00    +0.000 A 
ATOM     22  C   UNL     1       1.809   9.301  18.600  0.00  0.00    +0.000 A 
ATOM     23  C   UNL     1       2.513   8.533  17.658  0.00  0.00    +0.000 A 
BRANCH  21  24
ATOM     24  C   UNL     1       0.749   9.514  20.808  0.00  0.00    +0.000 C 
ATOM     25  N   UNL     1       0.113  10.126  21.569  0.00  0.00    +0.000 NA
ENDBRANCH  21  24
ENDBRANCH  17  18
BRANCH  16  26
ATOM     26  S   UNL     1       6.089   7.391  17.936  0.00  0.00    +0.000 S 
ATOM     27  H   UNL     1       7.086   7.379  17.037  0.00  0.00    +0.000 HD
ENDBRANCH  16  26
ENDBRANCH  15  16
ENDBRANCH   2  15
TORSDOF 7
ENDMDL
MODEL 2
REMARK VINA RESULT:      -6.7      0.171      1.722
REMARK  Name = 
REMARK  8 active torsions:
REMARK  status: ('A' for Active; 'I' for Inactive)
REMARK    1  A    between atoms: C_1  and  C_2
REMARK    2  A    between atoms: C_2  and  C_3
REMARK    3  A    between atoms: C_2  and  O_15
REMARK    4  A    between atoms: C_3  and  N_4
REMARK    5  A    between atoms: O_15  and  C_16
REMARK    6  A    between atoms: C_16  and  S_17
REMARK    7  A    between atoms: N_18  and  C_19
REMARK    8  A    between atoms: C_22  and  C_23
REMARK                            x       y       z     vdW  Elec       q    Type
REMARK                         _______ _______ _______ _____ _____    ______ ____
ROOT
ATOM      1  C   UNL     1       5.662   4.251  14.218  0.00  0.00    +0.000 C 
ATOM      2  C   UNL     1       4.981   4.531  15.558  0.00  0.00    +0.000 C 
ENDROOT
BRANCH   2   3
ATOM      3  C   UNL     1       5.231   3.405  16.576  0.00  0.00    +0.000 C 
BRANCH   3   4
ATOM      4  N   UNL     1       4.262   3.373  17.659  0.00  0.00    +0.000 N 
ATOM      5  C   UNL     1       2.929   3.124  17.480  0.00  0.00    +0.000 C 
ATOM      6  O   UNL     1       2.327   2.869  16.455  0.00  0.00    +0.000 OA
ATOM      7  C   UNL     1       2.315   3.153  18.805  0.00  0.00    +0.000 A 
ATOM      8  C   UNL     1       1.001   2.968  19.184  0.00  0.00    +0.000 A 
ATOM      9  C   UNL     1       0.720   2.994  20.554  0.00  0.00    +0.000 A 
ATOM     10  C   UNL     1       1.748   3.202  21.497  0.00  0.00    +0.000 A 
ATOM     11  C   UNL     1       3.071   3.400  21.086  0.00  0.00    +0.000 A 
ATOM     12  C   UNL     1       3.322   3.373  19.728  0.00  0.00    +0.000 A 
ATOM     13  C   UNL     1       4.576   3.516  18.985  0.00  0.00    +0.000 C 
ATOM     14  O   UNL     1       5.660   3.700  19.502  0.00  0.00    +0.000 OA
ENDBRANCH   3   4
ENDBRANCH   2   3
BRANCH   2  15
ATOM     15  O   UNL     1       5.573   5.768  16.018  0.00  0.00    +0.000 OA
BRANCH  15  16
ATOM     16  C   UNL     1       4.930   6.535  16.936  0.00  0.00    +0.000 C 
ATOM     17  N   UNL     1       3.651   6.417  17.119  0.00  0.00    +0.000 NA
BRANCH  17  18
ATOM     18  C   UNL     1       2.912   7.219  18.006  0.00  0.00    +0.000 A 
ATOM     19  C   UNL     1       2.686   6.850  19.337  0.00  0.00    +0.000 A 
ATOM     20  C   UNL     1       1.914   7.636  20.195  0.00  0.00    +0.000 A 
ATOM     21  C   UNL     1       1.442   8.873  19.765  0.00  0.00    +0.000 A 
ATOM     22  C   UNL     1       1.749   9.314  18.475  0.00  0.00    +0.000 A 
ATOM     23  C   UNL     1       2.470   8.486  17.599  0.00  0.00    +0.000 A 
BRANCH  21  24
ATOM     24  C   UNL     1       0.667   9.682  20.652  0.00  0.00    +0.000 C 
ATOM     25  N   UNL     1       0.048  10.333  21.394  0.00  0.00    +0.000 NA
ENDBRANCH  21  24
ENDBRANCH  17  18
BRANCH  16  26
ATOM     26  S   UNL     1       6.026   7.629  17.768  0.00  0.00    +0.000 S 
ATOM     27  H   UNL     1       6.520   8.168  16.643  0.00  0.00    +0.000 HD
ENDBRANCH  16  26
ENDBRANCH  15  16
ENDBRANCH   2  15
TORSDOF 7
ENDMDL
MODEL 3
REMARK VINA RESULT:      -6.3      1.994      4.785
REMARK  Name = 
REMARK  8 active torsions:
REMARK  status: ('A' for Active; 'I' for Inactive)
REMARK    1  A    between atoms: C_1  and  C_2
REMARK    2  A    between atoms: C_2  and  C_3
REMARK    3  A    between atoms: C_2  and  O_15
REMARK    4  A    between atoms: C_3  and  N_4
REMARK    5  A    between atoms: O_15  and  C_16
REMARK    6  A    between atoms: C_16  and  S_17
REMARK    7  A    between atoms: N_18  and  C_19
REMARK    8  A    between atoms: C_22  and  C_23
REMARK                            x       y       z     vdW  Elec       q    Type
REMARK                         _______ _______ _______ _____ _____    ______ ____
ROOT
ATOM      1  C   UNL     1       1.083   4.128  20.071  0.00  0.00    +0.000 C 
ATOM      2  C   UNL     1       2.479   4.729  20.239  0.00  0.00    +0.000 C 
ENDROOT
BRANCH   2   3
ATOM      3  C   UNL     1       3.584   3.680  20.025  0.00  0.00    +0.000 C 
BRANCH   3   4
ATOM      4  N   UNL     1       4.383   3.911  18.833  0.00  0.00    +0.000 N 
ATOM      5  C   UNL     1       3.980   3.576  17.569  0.00  0.00    +0.000 C 
ATOM      6  O   UNL     1       2.934   3.076  17.206  0.00  0.00    +0.000 OA
ATOM      7  C   UNL     1       5.046   3.998  16.663  0.00  0.00    +0.000 A 
ATOM      8  C   UNL     1       5.144   3.891  15.290  0.00  0.00    +0.000 A 
ATOM      9  C   UNL     1       6.274   4.449  14.684  0.00  0.00    +0.000 A 
ATOM     10  C   UNL     1       7.265   5.090  15.458  0.00  0.00    +0.000 A 
ATOM     11  C   UNL     1       7.148   5.173  16.850  0.00  0.00    +0.000 A 
ATOM     12  C   UNL     1       6.024   4.612  17.425  0.00  0.00    +0.000 A 
ATOM     13  C   UNL     1       5.594   4.553  18.823  0.00  0.00    +0.000 C 
ATOM     14  O   UNL     1       6.222   5.022  19.752  0.00  0.00    +0.000 OA
ENDBRANCH   3   4
ENDBRANCH   2   3
BRANCH   2  15
ATOM     15  O   UNL     1       2.558   5.759  19.227  0.00  0.00    +0.000 OA
BRANCH  15  16
ATOM     16  C   UNL     1       2.131   7.020  19.500  0.00  0.00    +0.000 C 
ATOM     17  N   UNL     1       1.565   7.297  20.634  0.00  0.00    +0.000 NA
BRANCH  17  18
ATOM     18  C   UNL     1       1.046   8.563  20.958  0.00  0.00    +0.000 A 
ATOM     19  C   UNL     1       0.771   9.530  19.986  0.00  0.00    +0.000 A 
ATOM     20  C   UNL     1       0.295  10.798  20.326  0.00  0.00    +0.000 A 
ATOM     21  C   UNL     1      -0.024  11.085  21.650  0.00  0.00    +0.000 A 
ATOM     22  C   UNL     1       0.136  10.098  22.625  0.00  0.00    +0.000 A 
ATOM     23  C   UNL     1       0.679   8.849  22.281  0.00  0.00    +0.000 A 
BRANCH  21  24
ATOM     24  C   UNL     1      -0.527  12.379  21.992  0.00  0.00    +0.000 C 
ATOM     25  N   UNL     1      -0.952  13.432  22.251  0.00  0.00    +0.000 NA
ENDBRANCH  21  24
ENDBRANCH  17  18
BRANCH  16  26
ATOM     26  S   UNL     1       2.442   8.125  18.169  0.00  0.00    +0.000 S 
ATOM     27  H   UNL     1       1.221   7.993  17.627  0.00  0.00    +0.000 HD
ENDBRANCH  16  26
ENDBRANCH  15  16
ENDBRANCH   2  15
TORSDOF 7
ENDMDL
MODEL 4
REMARK VINA RESULT:      -6.2      2.094      4.514
REMARK  Name = 
REMARK  8 active torsions:
REMARK  status: ('A' for Active; 'I' for Inactive)
REMARK    1  A    between atoms: C_1  and  C_2
REMARK    2  A    between atoms: C_2  and  C_3
REMARK    3  A    between atoms: C_2  and  O_15
REMARK    4  A    between atoms: C_3  and  N_4
REMARK    5  A    between atoms: O_15  and  C_16
REMARK    6  A    between atoms: C_16  and  S_17
REMARK    7  A    between atoms: N_18  and  C_19
REMARK    8  A    between atoms: C_22  and  C_23
REMARK                            x       y       z     vdW  Elec       q    Type
REMARK                         _______ _______ _______ _____ _____    ______ ____
ROOT
ATOM      1  C   UNL     1       1.089   4.330  20.011  0.00  0.00    +0.000 C 
ATOM      2  C   UNL     1       2.472   4.907  20.314  0.00  0.00    +0.000 C 
ENDROOT
BRANCH   2   3
ATOM      3  C   UNL     1       3.590   3.878  20.069  0.00  0.00    +0.000 C 
BRANCH   3   4
ATOM      4  N   UNL     1       4.340   4.114  18.846  0.00  0.00    +0.000 N 
ATOM      5  C   UNL     1       5.587   4.674  18.815  0.00  0.00    +0.000 C 
ATOM      6  O   UNL     1       6.287   5.038  19.738  0.00  0.00    +0.000 OA
ATOM      7  C   UNL     1       5.996   4.707  17.412  0.00  0.00    +0.000 A 
ATOM      8  C   UNL     1       7.159   5.174  16.833  0.00  0.00    +0.000 A 
ATOM      9  C   UNL     1       7.293   5.016  15.450  0.00  0.00    +0.000 A 
ATOM     10  C   UNL     1       6.273   4.403  14.692  0.00  0.00    +0.000 A 
ATOM     11  C   UNL     1       5.098   3.950  15.302  0.00  0.00    +0.000 A 
ATOM     12  C   UNL     1       4.988   4.120  16.668  0.00  0.00    +0.000 A 
ATOM     13  C   UNL     1       3.921   3.741  17.596  0.00  0.00    +0.000 C 
ATOM     14  O   UNL     1       2.894   3.181  17.265  0.00  0.00    +0.000 OA
ENDBRANCH   3   4
ENDBRANCH   2   3
BRANCH   2  15
ATOM     15  O   UNL     1       2.608   6.026  19.408  0.00  0.00    +0.000 OA
BRANCH  15  16
ATOM     16  C   UNL     1       2.031   7.220  19.704  0.00  0.00    +0.000 C 
ATOM     17  N   UNL     1       1.449   7.410  20.847  0.00  0.00    +0.000 NA
BRANCH  17  18
ATOM     18  C   UNL     1       0.779   8.596  21.195  0.00  0.00    +0.000 A 
ATOM     19  C   UNL     1       0.543   8.959  22.526  0.00  0.00    +0.000 A 
ATOM     20  C   UNL     1      -0.161  10.119  22.856  0.00  0.00    +0.000 A 
ATOM     21  C   UNL     1      -0.549  11.002  21.853  0.00  0.00    +0.000 A 
ATOM     22  C   UNL     1      -0.227  10.717  20.524  0.00  0.00    +0.000 A 
ATOM     23  C   UNL     1       0.423   9.515  20.199  0.00  0.00    +0.000 A 
BRANCH  21  24
ATOM     24  C   UNL     1      -1.254  12.197  22.197  0.00  0.00    +0.000 C 
ATOM     25  N   UNL     1      -1.825  13.166  22.500  0.00  0.00    +0.000 NA
ENDBRANCH  21  24
ENDBRANCH  17  18
BRANCH  16  26
ATOM     26  S   UNL     1       2.185   8.373  18.386  0.00  0.00    +0.000 S 
ATOM     27  H   UNL     1       1.817   7.502  17.433  0.00  0.00    +0.000 HD
ENDBRANCH  16  26
ENDBRANCH  15  16
ENDBRANCH   2  15
TORSDOF 7
ENDMDL
MODEL 5
REMARK VINA RESULT:      -6.1      2.044      4.758
REMARK  Name = 
REMARK  8 active torsions:
REMARK  status: ('A' for Active; 'I' for Inactive)
REMARK    1  A    between atoms: C_1  and  C_2
REMARK    2  A    between atoms: C_2  and  C_3
REMARK    3  A    between atoms: C_2  and  O_15
REMARK    4  A    between atoms: C_3  and  N_4
REMARK    5  A    between atoms: O_15  and  C_16
REMARK    6  A    between atoms: C_16  and  S_17
REMARK    7  A    between atoms: N_18  and  C_19
REMARK    8  A    between atoms: C_22  and  C_23
REMARK                            x       y       z     vdW  Elec       q    Type
REMARK                         _______ _______ _______ _____ _____    ______ ____
ROOT
ATOM      1  C   UNL     1       1.171   4.589  19.932  0.00  0.00    +0.000 C 
ATOM      2  C   UNL     1       2.611   4.920  20.325  0.00  0.00    +0.000 C 
ENDROOT
BRANCH   2   3
ATOM      3  C   UNL     1       3.572   3.759  20.011  0.00  0.00    +0.000 C 
BRANCH   3   4
ATOM      4  N   UNL     1       4.367   3.969  18.813  0.00  0.00    +0.000 N 
ATOM      5  C   UNL     1       3.924   3.693  17.548  0.00  0.00    +0.000 C 
ATOM      6  O   UNL     1       2.843   3.271  17.190  0.00  0.00    +0.000 OA
ATOM      7  C   UNL     1       5.002   4.068  16.636  0.00  0.00    +0.000 A 
ATOM      8  C   UNL     1       5.073   3.991  15.259  0.00  0.00    +0.000 A 
ATOM      9  C   UNL     1       6.228   4.489  14.649  0.00  0.00    +0.000 A 
ATOM     10  C   UNL     1       7.270   5.045  15.422  0.00  0.00    +0.000 A 
ATOM     11  C   UNL     1       7.179   5.100  16.817  0.00  0.00    +0.000 A 
ATOM     12  C   UNL     1       6.029   4.598  17.397  0.00  0.00    +0.000 A 
ATOM     13  C   UNL     1       5.617   4.531  18.800  0.00  0.00    +0.000 C 
ATOM     14  O   UNL     1       6.287   4.935  19.729  0.00  0.00    +0.000 OA
ENDBRANCH   3   4
ENDBRANCH   2   3
BRANCH   2  15
ATOM     15  O   UNL     1       2.948   6.082  19.533  0.00  0.00    +0.000 OA
BRANCH  15  16
ATOM     16  C   UNL     1       2.242   7.234  19.674  0.00  0.00    +0.000 C 
ATOM     17  N   UNL     1       1.740   7.567  20.823  0.00  0.00    +0.000 NA
BRANCH  17  18
ATOM     18  C   UNL     1       0.948   8.711  21.027  0.00  0.00    +0.000 A 
ATOM     19  C   UNL     1       0.310   8.972  22.244  0.00  0.00    +0.000 A 
ATOM     20  C   UNL     1      -0.508  10.090  22.419  0.00  0.00    +0.000 A 
ATOM     21  C   UNL     1      -0.614  11.036  21.404  0.00  0.00    +0.000 A 
ATOM     22  C   UNL     1       0.103  10.854  20.219  0.00  0.00    +0.000 A 
ATOM     23  C   UNL     1       0.869   9.692  20.029  0.00  0.00    +0.000 A 
BRANCH  21  24
ATOM     24  C   UNL     1      -1.439  12.187  21.594  0.00  0.00    +0.000 C 
ATOM     25  N   UNL     1      -2.125  13.119  21.731  0.00  0.00    +0.000 NA
ENDBRANCH  21  24
ENDBRANCH  17  18
BRANCH  16  26
ATOM     26  S   UNL     1       2.126   8.126  18.164  0.00  0.00    +0.000 S 
ATOM     27  H   UNL     1       1.239   7.287  17.607  0.00  0.00    +0.000 HD
ENDBRANCH  16  26
ENDBRANCH  15  16
ENDBRANCH   2  15
TORSDOF 7
ENDMDL
MODEL 6
REMARK VINA RESULT:      -6.1      4.194      8.600
REMARK  Name = 
REMARK  8 active torsions:
REMARK  status: ('A' for Active; 'I' for Inactive)
REMARK    1  A    between atoms: C_1  and  C_2
REMARK    2  A    between atoms: C_2  and  C_3
REMARK    3  A    between atoms: C_2  and  O_15
REMARK    4  A    between atoms: C_3  and  N_4
REMARK    5  A    between atoms: O_15  and  C_16
REMARK    6  A    between atoms: C_16  and  S_17
REMARK    7  A    between atoms: N_18  and  C_19
REMARK    8  A    between atoms: C_22  and  C_23
REMARK                            x       y       z     vdW  Elec       q    Type
REMARK                         _______ _______ _______ _____ _____    ______ ____
ROOT
ATOM      1  C   UNL     1      -0.347   8.102  21.233  0.00  0.00    +0.000 C 
ATOM      2  C   UNL     1       0.696   8.858  20.408  0.00  0.00    +0.000 C 
ENDROOT
BRANCH   2   3
ATOM      3  C   UNL     1       0.984  10.254  20.989  0.00  0.00    +0.000 C 
BRANCH   3   4
ATOM      4  N   UNL     1      -0.215  11.007  21.316  0.00  0.00    +0.000 N 
ATOM      5  C   UNL     1      -0.972  11.673  20.390  0.00  0.00    +0.000 C 
ATOM      6  O   UNL     1      -0.823  11.743  19.186  0.00  0.00    +0.000 OA
ATOM      7  C   UNL     1      -2.091  12.269  21.115  0.00  0.00    +0.000 A 
ATOM      8  C   UNL     1      -3.139  13.043  20.658  0.00  0.00    +0.000 A 
ATOM      9  C   UNL     1      -4.107  13.425  21.591  0.00  0.00    +0.000 A 
ATOM     10  C   UNL     1      -4.003  13.030  22.941  0.00  0.00    +0.000 A 
ATOM     11  C   UNL     1      -2.923  12.256  23.382  0.00  0.00    +0.000 A 
ATOM     12  C   UNL     1      -1.979  11.893  22.442  0.00  0.00    +0.000 A 
ATOM     13  C   UNL     1      -0.767  11.081  22.568  0.00  0.00    +0.000 C 
ATOM     14  O   UNL     1      -0.388  10.575  23.605  0.00  0.00    +0.000 OA
ENDBRANCH   3   4
ENDBRANCH   2   3
BRANCH   2  15
ATOM     15  O   UNL     1       1.880   8.030  20.469  0.00  0.00    +0.000 OA
BRANCH  15  16
ATOM     16  C   UNL     1       2.415   7.516  19.331  0.00  0.00    +0.000 C 
ATOM     17  N   UNL     1       3.138   6.441  19.366  0.00  0.00    +0.000 NA
BRANCH  17  18
ATOM     18  C   UNL     1       3.772   5.889  18.239  0.00  0.00    +0.000 A 
ATOM     19  C   UNL     1       3.471   4.607  17.764  0.00  0.00    +0.000 A 
ATOM     20  C   UNL     1       4.139   4.055  16.669  0.00  0.00    +0.000 A 
ATOM     21  C   UNL     1       5.051   4.827  15.953  0.00  0.00    +0.000 A 
ATOM     22  C   UNL     1       5.287   6.147  16.341  0.00  0.00    +0.000 A 
ATOM     23  C   UNL     1       4.659   6.669  17.484  0.00  0.00    +0.000 A 
BRANCH  21  24
ATOM     24  C   UNL     1       5.719   4.263  14.822  0.00  0.00    +0.000 C 
ATOM     25  N   UNL     1       6.257   3.822  13.888  0.00  0.00    +0.000 NA
ENDBRANCH  21  24
ENDBRANCH  17  18
BRANCH  16  26
ATOM     26  S   UNL     1       2.002   8.474  17.916  0.00  0.00    +0.000 S 
ATOM     27  H   UNL     1       2.629   7.665  17.048  0.00  0.00    +0.000 HD
ENDBRANCH  16  26
ENDBRANCH  15  16
ENDBRANCH   2  15
TORSDOF 7
ENDMDL
MODEL 7
REMARK VINA RESULT:      -6.1      2.559      4.578
REMARK  Name = 
REMARK  8 active torsions:
REMARK  status: ('A' for Active; 'I' for Inactive)
REMARK    1  A    between atoms: C_1  and  C_2
REMARK    2  A    between atoms: C_2  and  C_3
REMARK    3  A    between atoms: C_2  and  O_15
REMARK    4  A    between atoms: C_3  and  N_4
REMARK    5  A    between atoms: O_15  and  C_16
REMARK    6  A    between atoms: C_16  and  S_17
REMARK    7  A    between atoms: N_18  and  C_19
REMARK    8  A    between atoms: C_22  and  C_23
REMARK                            x       y       z     vdW  Elec       q    Type
REMARK                         _______ _______ _______ _____ _____    ______ ____
ROOT
ATOM      1  C   UNL     1       1.036   4.808  20.251  0.00  0.00    +0.000 C 
ATOM      2  C   UNL     1       2.477   5.317  20.225  0.00  0.00    +0.000 C 
ENDROOT
BRANCH   2   3
ATOM      3  C   UNL     1       3.484   4.179  19.987  0.00  0.00    +0.000 C 
BRANCH   3   4
ATOM      4  N   UNL     1       4.274   4.343  18.777  0.00  0.00    +0.000 N 
ATOM      5  C   UNL     1       5.567   4.788  18.768  0.00  0.00    +0.000 C 
ATOM      6  O   UNL     1       6.280   5.091  19.704  0.00  0.00    +0.000 OA
ATOM      7  C   UNL     1       6.001   4.782  17.373  0.00  0.00    +0.000 A 
ATOM      8  C   UNL     1       7.212   5.142  16.814  0.00  0.00    +0.000 A 
ATOM      9  C   UNL     1       7.356   4.969  15.434  0.00  0.00    +0.000 A 
ATOM     10  C   UNL     1       6.299   4.449  14.658  0.00  0.00    +0.000 A 
ATOM     11  C   UNL     1       5.077   4.105  15.247  0.00  0.00    +0.000 A 
ATOM     12  C   UNL     1       4.958   4.287  16.612  0.00  0.00    +0.000 A 
ATOM     13  C   UNL     1       3.845   4.006  17.520  0.00  0.00    +0.000 C 
ATOM     14  O   UNL     1       2.778   3.541  17.171  0.00  0.00    +0.000 OA
ENDBRANCH   3   4
ENDBRANCH   2   3
BRANCH   2  15
ATOM     15  O   UNL     1       2.512   6.260  19.129  0.00  0.00    +0.000 OA
BRANCH  15  16
ATOM     16  C   UNL     1       2.012   7.513  19.287  0.00  0.00    +0.000 C 
ATOM     17  N   UNL     1       1.846   8.295  18.266  0.00  0.00    +0.000 NA
BRANCH  17  18
ATOM     18  C   UNL     1       1.392   9.622  18.364  0.00  0.00    +0.000 A 
ATOM     19  C   UNL     1       0.053   9.938  18.622  0.00  0.00    +0.000 A 
ATOM     20  C   UNL     1      -0.392  11.260  18.674  0.00  0.00    +0.000 A 
ATOM     21  C   UNL     1       0.525  12.303  18.579  0.00  0.00    +0.000 A 
ATOM     22  C   UNL     1       1.883  12.012  18.433  0.00  0.00    +0.000 A 
ATOM     23  C   UNL     1       2.310  10.679  18.315  0.00  0.00    +0.000 A 
BRANCH  21  24
ATOM     24  C   UNL     1       0.067  13.655  18.650  0.00  0.00    +0.000 C 
ATOM     25  N   UNL     1      -0.324  14.750  18.721  0.00  0.00    +0.000 NA
ENDBRANCH  21  24
ENDBRANCH  17  18
BRANCH  16  26
ATOM     26  S   UNL     1       1.658   7.875  20.971  0.00  0.00    +0.000 S 
ATOM     27  H   UNL     1       2.704   8.700  21.129  0.00  0.00    +0.000 HD
ENDBRANCH  16  26
ENDBRANCH  15  16
ENDBRANCH   2  15
TORSDOF 7
ENDMDL
MODEL 8
REMARK VINA RESULT:      -6.0      2.500      4.820
REMARK  Name = 
REMARK  8 active torsions:
REMARK  status: ('A' for Active; 'I' for Inactive)
REMARK    1  A    between atoms: C_1  and  C_2
REMARK    2  A    between atoms: C_2  and  C_3
REMARK    3  A    between atoms: C_2  and  O_15
REMARK    4  A    between atoms: C_3  and  N_4
REMARK    5  A    between atoms: O_15  and  C_16
REMARK    6  A    between atoms: C_16  and  S_17
REMARK    7  A    between atoms: N_18  and  C_19
REMARK    8  A    between atoms: C_22  and  C_23
REMARK                            x       y       z     vdW  Elec       q    Type
REMARK                         _______ _______ _______ _____ _____    ______ ____
ROOT
ATOM      1  C   UNL     1       1.027   4.703  19.876  0.00  0.00    +0.000 C 
ATOM      2  C   UNL     1       2.455   5.197  20.111  0.00  0.00    +0.000 C 
ENDROOT
BRANCH   2   3
ATOM      3  C   UNL     1       3.486   4.066  19.954  0.00  0.00    +0.000 C 
BRANCH   3   4
ATOM      4  N   UNL     1       4.314   4.195  18.766  0.00  0.00    +0.000 N 
ATOM      5  C   UNL     1       3.889   3.882  17.505  0.00  0.00    +0.000 C 
ATOM      6  O   UNL     1       2.799   3.486  17.139  0.00  0.00    +0.000 OA
ATOM      7  C   UNL     1       4.999   4.177  16.603  0.00  0.00    +0.000 A 
ATOM      8  C   UNL     1       5.097   4.038  15.232  0.00  0.00    +0.000 A 
ATOM      9  C   UNL     1       6.283   4.466  14.629  0.00  0.00    +0.000 A 
ATOM     10  C   UNL     1       7.328   5.015  15.401  0.00  0.00    +0.000 A 
ATOM     11  C   UNL     1       7.209   5.133  16.790  0.00  0.00    +0.000 A 
ATOM     12  C   UNL     1       6.029   4.700  17.364  0.00  0.00    +0.000 A 
ATOM     13  C   UNL     1       5.585   4.708  18.759  0.00  0.00    +0.000 C 
ATOM     14  O   UNL     1       6.250   5.127  19.686  0.00  0.00    +0.000 OA
ENDBRANCH   3   4
ENDBRANCH   2   3
BRANCH   2  15
ATOM     15  O   UNL     1       2.662   6.214  19.104  0.00  0.00    +0.000 OA
BRANCH  15  16
ATOM     16  C   UNL     1       2.124   7.452  19.260  0.00  0.00    +0.000 C 
ATOM     17  N   UNL     1       1.961   8.236  18.240  0.00  0.00    +0.000 NA
BRANCH  17  18
ATOM     18  C   UNL     1       1.470   9.550  18.337  0.00  0.00    +0.000 A 
ATOM     19  C   UNL     1       0.119   9.828  18.578  0.00  0.00    +0.000 A 
ATOM     20  C   UNL     1      -0.362  11.138  18.629  0.00  0.00    +0.000 A 
ATOM     21  C   UNL     1       0.527  12.206  18.551  0.00  0.00    +0.000 A 
ATOM     22  C   UNL     1       1.895  11.953  18.423  0.00  0.00    +0.000 A 
ATOM     23  C   UNL     1       2.360  10.633  18.306  0.00  0.00    +0.000 A 
BRANCH  21  24
ATOM     24  C   UNL     1       0.032  13.545  18.622  0.00  0.00    +0.000 C 
ATOM     25  N   UNL     1      -0.362  14.639  18.700  0.00  0.00    +0.000 NA
ENDBRANCH  21  24
ENDBRANCH  17  18
BRANCH  16  26
ATOM     26  S   UNL     1       1.724   7.791  20.937  0.00  0.00    +0.000 S 
ATOM     27  H   UNL     1       1.606   6.500  21.287  0.00  0.00    +0.000 HD
ENDBRANCH  16  26
ENDBRANCH  15  16
ENDBRANCH   2  15
TORSDOF 7
ENDMDL
MODEL 9
REMARK VINA RESULT:      -6.0      4.248      8.539
REMARK  Name = 
REMARK  8 active torsions:
REMARK  status: ('A' for Active; 'I' for Inactive)
REMARK    1  A    between atoms: C_1  and  C_2
REMARK    2  A    between atoms: C_2  and  C_3
REMARK    3  A    between atoms: C_2  and  O_15
REMARK    4  A    between atoms: C_3  and  N_4
REMARK    5  A    between atoms: O_15  and  C_16
REMARK    6  A    between atoms: C_16  and  S_17
REMARK    7  A    between atoms: N_18  and  C_19
REMARK    8  A    between atoms: C_22  and  C_23
REMARK                            x       y       z     vdW  Elec       q    Type
REMARK                         _______ _______ _______ _____ _____    ______ ____
ROOT
ATOM      1  C   UNL     1      -0.363   8.115  21.280  0.00  0.00    +0.000 C 
ATOM      2  C   UNL     1       0.641   8.874  20.412  0.00  0.00    +0.000 C 
ENDROOT
BRANCH   2   3
ATOM      3  C   UNL     1       0.896  10.297  20.941  0.00  0.00    +0.000 C 
BRANCH   3   4
ATOM      4  N   UNL     1      -0.321  11.028  21.254  0.00  0.00    +0.000 N 
ATOM      5  C   UNL     1      -0.839  11.139  22.515  0.00  0.00    +0.000 C 
ATOM      6  O   UNL     1      -0.405  10.703  23.563  0.00  0.00    +0.000 OA
ATOM      7  C   UNL     1      -2.036  11.969  22.405  0.00  0.00    +0.000 A 
ATOM      8  C   UNL     1      -2.927  12.382  23.375  0.00  0.00    +0.000 A 
ATOM      9  C   UNL     1      -3.960  13.234  22.973  0.00  0.00    +0.000 A 
ATOM     10  C   UNL     1      -4.075  13.645  21.629  0.00  0.00    +0.000 A 
ATOM     11  C   UNL     1      -3.166  13.201  20.662  0.00  0.00    +0.000 A 
ATOM     12  C   UNL     1      -2.155  12.358  21.083  0.00  0.00    +0.000 A 
ATOM     13  C   UNL     1      -1.049  11.748  20.343  0.00  0.00    +0.000 C 
ATOM     14  O   UNL     1      -0.851  11.906  19.155  0.00  0.00    +0.000 OA
ENDBRANCH   3   4
ENDBRANCH   2   3
BRANCH   2  15
ATOM     15  O   UNL     1       1.852   8.086  20.476  0.00  0.00    +0.000 OA
BRANCH  15  16
ATOM     16  C   UNL     1       2.389   7.563  19.344  0.00  0.00    +0.000 C 
ATOM     17  N   UNL     1       3.102   6.481  19.387  0.00  0.00    +0.000 NA
BRANCH  17  18
ATOM     18  C   UNL     1       3.738   5.920  18.265  0.00  0.00    +0.000 A 
ATOM     19  C   UNL     1       3.416   4.646  17.782  0.00  0.00    +0.000 A 
ATOM     20  C   UNL     1       4.086   4.084  16.694  0.00  0.00    +0.000 A 
ATOM     21  C   UNL     1       5.022   4.838  15.992  0.00  0.00    +0.000 A 
ATOM     22  C   UNL     1       5.280   6.153  16.387  0.00  0.00    +0.000 A 
ATOM     23  C   UNL     1       4.649   6.684  17.524  0.00  0.00    +0.000 A 
BRANCH  21  24
ATOM     24  C   UNL     1       5.693   4.265  14.868  0.00  0.00    +0.000 C 
ATOM     25  N   UNL     1       6.219   3.788  13.944  0.00  0.00    +0.000 NA
ENDBRANCH  21  24
ENDBRANCH  17  18
BRANCH  16  26
ATOM     26  S   UNL     1       1.995   8.521  17.923  0.00  0.00    +0.000 S 
ATOM     27  H   UNL     1       2.208   7.521  17.053  0.00  0.00    +0.000 HD
ENDBRANCH  16  26
ENDBRANCH  15  16
ENDBRANCH   2  15
TORSDOF 7
ENDMDL
