MODEL 1
REMARK VINA RESULT:      -5.9      0.000      0.000
REMARK  Name = 
REMARK  5 active torsions:
REMARK  status: ('A' for Active; 'I' for Inactive)
REMARK    1  A    between atoms: C_1  and  C_2
REMARK    2  A    between atoms: C_5  and  N_6
REMARK    3  A    between atoms: N_9  and  C_10
REMARK    4  A    between atoms: C_10  and  C_11
REMARK    5  A    between atoms: C_11  and  N_12
REMARK                            x       y       z     vdW  Elec       q    Type
REMARK                         _______ _______ _______ _____ _____    ______ ____
ROOT
ATOM      1  C   UNL     1       3.356   6.818  17.983  0.00  0.00    +0.000 C 
ATOM      2  C   UNL     1       3.275   5.512  18.685  0.00  0.00    +0.000 A 
ATOM      3  N   UNL     1       2.337   5.238  19.576  0.00  0.00    +0.000 NA
ATOM      4  C   UNL     1       2.555   3.958  19.993  0.00  0.00    +0.000 A 
ATOM      5  C   UNL     1       3.640   3.444  19.341  0.00  0.00    +0.000 A 
ATOM      6  N   UNL     1       4.132   4.431  18.516  0.00  0.00    +0.000 N 
ENDROOT
BRANCH   5   7
ATOM      7  N   UNL     1       4.182   2.144  19.460  0.00  0.00    +0.000 N 
ATOM      8  O   UNL     1       3.756   1.295  18.671  0.00  0.00    +0.000 OA
ATOM      9  O   UNL     1       5.034   1.974  20.339  0.00  0.00    +0.000 OA
ENDBRANCH   5   7
BRANCH   6  10
ATOM     10  C   UNL     1       5.288   4.305  17.637  0.00  0.00    +0.000 C 
BRANCH  10  11
ATOM     11  C   UNL     1       6.616   4.888  18.131  0.00  0.00    +0.000 C 
BRANCH  11  12
ATOM     12  N   UNL     1       7.706   4.481  17.233  0.00  0.00    +0.000 NA
ATOM     13  N   UNL     1       7.604   4.884  16.057  0.00  0.00    +0.000 NA
ATOM     14  N   UNL     1       7.494   5.260  14.989  0.00  0.00    +0.000 NA
ENDBRANCH  11  12
ENDBRANCH  10  11
ENDBRANCH   6  10
TORSDOF 4
ENDMDL
MODEL 2
REMARK VINA RESULT:      -5.7      2.354      3.003
REMARK  Name = 
REMARK  5 active torsions:
REMARK  status: ('A' for Active; 'I' for Inactive)
REMARK    1  A    between atoms: C_1  and  C_2
REMARK    2  A    between atoms: C_5  and  N_6
REMARK    3  A    between atoms: N_9  and  C_10
REMARK    4  A    between atoms: C_10  and  C_11
REMARK    5  A    between atoms: C_11  and  N_12
REMARK                            x       y       z     vdW  Elec       q    Type
REMARK                         _______ _______ _______ _____ _____    ______ ____
ROOT
ATOM      1  C   UNL     1       1.868   4.664  17.782  0.00  0.00    +0.000 C 
ATOM      2  C   UNL     1       3.207   4.314  18.324  0.00  0.00    +0.000 A 
ATOM      3  N   UNL     1       3.458   3.156  18.910  0.00  0.00    +0.000 NA
ATOM      4  C   UNL     1       4.777   3.172  19.259  0.00  0.00    +0.000 A 
ATOM      5  C   UNL     1       5.336   4.358  18.873  0.00  0.00    +0.000 A 
ATOM      6  N   UNL     1       4.342   5.115  18.295  0.00  0.00    +0.000 N 
ENDROOT
BRANCH   5   7
ATOM      7  N   UNL     1       6.682   4.764  19.020  0.00  0.00    +0.000 N 
ATOM      8  O   UNL     1       6.923   5.550  19.941  0.00  0.00    +0.000 OA
ATOM      9  O   UNL     1       7.497   4.294  18.218  0.00  0.00    +0.000 OA
ENDBRANCH   5   7
BRANCH   6  10
ATOM     10  C   UNL     1       4.507   6.454  17.744  0.00  0.00    +0.000 C 
BRANCH  10  11
ATOM     11  C   UNL     1       4.932   6.564  16.276  0.00  0.00    +0.000 C 
BRANCH  11  12
ATOM     12  N   UNL     1       6.396   6.474  16.170  0.00  0.00    +0.000 NA
ATOM     13  N   UNL     1       7.028   7.356  16.785  0.00  0.00    +0.000 NA
ATOM     14  N   UNL     1       7.588   8.169  17.351  0.00  0.00    +0.000 NA
ENDBRANCH  11  12
ENDBRANCH  10  11
ENDBRANCH   6  10
TORSDOF 4
ENDMDL
MODEL 3
REMARK VINA RESULT:      -5.6      1.286      1.764
REMARK  Name = 
REMARK  5 active torsions:
REMARK  status: ('A' for Active; 'I' for Inactive)
REMARK    1  A    between atoms: C_1  and  C_2
REMARK    2  A    between atoms: C_5  and  N_6
REMARK    3  A    between atoms: N_9  and  C_10
REMARK    4  A    between atoms: C_10  and  C_11
REMARK    5  A    between atoms: C_11  and  N_12
REMARK                            x       y       z     vdW  Elec       q    Type
REMARK                         _______ _______ _______ _____ _____    ______ ____
ROOT
ATOM      1  C   UNL     1       2.726   7.171  18.239  0.00  0.00    +0.000 C 
ATOM      2  C   UNL     1       2.872   5.878  18.956  0.00  0.00    +0.000 A 
ATOM      3  N   UNL     1       2.259   5.623  20.099  0.00  0.00    +0.000 NA
ATOM      4  C   UNL     1       2.601   4.351  20.452  0.00  0.00    +0.000 A 
ATOM      5  C   UNL     1       3.432   3.823  19.505  0.00  0.00    +0.000 A 
ATOM      6  N   UNL     1       3.640   4.793  18.550  0.00  0.00    +0.000 N 
ENDROOT
BRANCH   5   7
ATOM      7  N   UNL     1       3.990   2.524  19.475  0.00  0.00    +0.000 N 
ATOM      8  O   UNL     1       3.421   1.697  18.756  0.00  0.00    +0.000 OA
ATOM      9  O   UNL     1       4.996   2.333  20.166  0.00  0.00    +0.000 OA
ENDBRANCH   5   7
BRANCH   6  10
ATOM     10  C   UNL     1       4.466   4.647  17.358  0.00  0.00    +0.000 C 
BRANCH  10  11
ATOM     11  C   UNL     1       5.860   5.282  17.385  0.00  0.00    +0.000 C 
BRANCH  11  12
ATOM     12  N   UNL     1       6.785   4.426  18.140  0.00  0.00    +0.000 NA
ATOM     13  N   UNL     1       7.224   4.920  19.198  0.00  0.00    +0.000 NA
ATOM     14  N   UNL     1       7.614   5.388  20.159  0.00  0.00    +0.000 NA
ENDBRANCH  11  12
ENDBRANCH  10  11
ENDBRANCH   6  10
TORSDOF 4
ENDMDL
MODEL 4
REMARK VINA RESULT:      -5.6      0.918      1.239
REMARK  Name = 
REMARK  5 active torsions:
REMARK  status: ('A' for Active; 'I' for Inactive)
REMARK    1  A    between atoms: C_1  and  C_2
REMARK    2  A    between atoms: C_5  and  N_6
REMARK    3  A    between atoms: N_9  and  C_10
REMARK    4  A    between atoms: C_10  and  C_11
REMARK    5  A    between atoms: C_11  and  N_12
REMARK                            x       y       z     vdW  Elec       q    Type
REMARK                         _______ _______ _______ _____ _____    ______ ____
ROOT
ATOM      1  C   UNL     1       3.053   7.523  17.957  0.00  0.00    +0.000 C 
ATOM      2  C   UNL     1       3.090   6.205  18.641  0.00  0.00    +0.000 A 
ATOM      3  N   UNL     1       2.317   5.917  19.674  0.00  0.00    +0.000 NA
ATOM      4  C   UNL     1       2.600   4.630  20.027  0.00  0.00    +0.000 A 
ATOM      5  C   UNL     1       3.557   4.128  19.192  0.00  0.00    +0.000 A 
ATOM      6  N   UNL     1       3.904   5.129  18.312  0.00  0.00    +0.000 N 
ENDROOT
BRANCH   5   7
ATOM      7  N   UNL     1       4.109   2.827  19.196  0.00  0.00    +0.000 N 
ATOM      8  O   UNL     1       5.060   2.634  19.962  0.00  0.00    +0.000 OA
ATOM      9  O   UNL     1       3.591   1.998  18.440  0.00  0.00    +0.000 OA
ENDBRANCH   5   7
BRANCH   6  10
ATOM     10  C   UNL     1       4.893   5.017  17.247  0.00  0.00    +0.000 C 
BRANCH  10  11
ATOM     11  C   UNL     1       6.349   5.333  17.602  0.00  0.00    +0.000 C 
BRANCH  11  12
ATOM     12  N   UNL     1       6.906   6.287  16.632  0.00  0.00    +0.000 NA
ATOM     13  N   UNL     1       7.273   5.790  15.549  0.00  0.00    +0.000 NA
ATOM     14  N   UNL     1       7.603   5.318  14.567  0.00  0.00    +0.000 NA
ENDBRANCH  11  12
ENDBRANCH  10  11
ENDBRANCH   6  10
TORSDOF 4
ENDMDL
MODEL 5
REMARK VINA RESULT:      -5.5      2.444      4.702
REMARK  Name = 
REMARK  5 active torsions:
REMARK  status: ('A' for Active; 'I' for Inactive)
REMARK    1  A    between atoms: C_1  and  C_2
REMARK    2  A    between atoms: C_5  and  N_6
REMARK    3  A    between atoms: N_9  and  C_10
REMARK    4  A    between atoms: C_10  and  C_11
REMARK    5  A    between atoms: C_11  and  N_12
REMARK                            x       y       z     vdW  Elec       q    Type
REMARK                         _______ _______ _______ _____ _____    ______ ____
ROOT
ATOM      1  C   UNL     1       2.244   5.504  17.957  0.00  0.00    +0.000 C 
ATOM      2  C   UNL     1       3.696   5.703  17.712  0.00  0.00    +0.000 A 
ATOM      3  N   UNL     1       4.207   6.873  17.368  0.00  0.00    +0.000 NA
ATOM      4  C   UNL     1       5.554   6.692  17.251  0.00  0.00    +0.000 A 
ATOM      5  C   UNL     1       5.866   5.392  17.533  0.00  0.00    +0.000 A 
ATOM      6  N   UNL     1       4.687   4.735  17.806  0.00  0.00    +0.000 N 
ENDROOT
BRANCH   5   7
ATOM      7  N   UNL     1       7.149   4.799  17.554  0.00  0.00    +0.000 N 
ATOM      8  O   UNL     1       7.672   4.659  18.665  0.00  0.00    +0.000 OA
ATOM      9  O   UNL     1       7.630   4.471  16.465  0.00  0.00    +0.000 OA
ENDBRANCH   5   7
BRANCH   6  10
ATOM     10  C   UNL     1       4.565   3.325  18.158  0.00  0.00    +0.000 C 
BRANCH  10  11
ATOM     11  C   UNL     1       4.412   2.981  19.643  0.00  0.00    +0.000 C 
BRANCH  11  12
ATOM     12  N   UNL     1       3.061   2.463  19.901  0.00  0.00    +0.000 NA
ATOM     13  N   UNL     1       2.601   2.716  21.032  0.00  0.00    +0.000 NA
ATOM     14  N   UNL     1       2.200   2.956  22.070  0.00  0.00    +0.000 NA
ENDBRANCH  11  12
ENDBRANCH  10  11
ENDBRANCH   6  10
TORSDOF 4
ENDMDL
MODEL 6
REMARK VINA RESULT:      -5.5      1.372      1.684
REMARK  Name = 
REMARK  5 active torsions:
REMARK  status: ('A' for Active; 'I' for Inactive)
REMARK    1  A    between atoms: C_1  and  C_2
REMARK    2  A    between atoms: C_5  and  N_6
REMARK    3  A    between atoms: N_9  and  C_10
REMARK    4  A    between atoms: C_10  and  C_11
REMARK    5  A    between atoms: C_11  and  N_12
REMARK                            x       y       z     vdW  Elec       q    Type
REMARK                         _______ _______ _______ _____ _____    ______ ____
ROOT
ATOM      1  C   UNL     1       3.160   7.389  17.875  0.00  0.00    +0.000 C 
ATOM      2  C   UNL     1       3.186   6.124  18.653  0.00  0.00    +0.000 A 
ATOM      3  N   UNL     1       2.552   5.981  19.804  0.00  0.00    +0.000 NA
ATOM      4  C   UNL     1       2.775   4.701  20.218  0.00  0.00    +0.000 A 
ATOM      5  C   UNL     1       3.555   4.054  19.301  0.00  0.00    +0.000 A 
ATOM      6  N   UNL     1       3.851   4.955  18.303  0.00  0.00    +0.000 N 
ENDROOT
BRANCH   5   7
ATOM      7  N   UNL     1       3.990   2.710  19.336  0.00  0.00    +0.000 N 
ATOM      8  O   UNL     1       5.001   2.476  20.007  0.00  0.00    +0.000 OA
ATOM      9  O   UNL     1       3.322   1.890  18.698  0.00  0.00    +0.000 OA
ENDBRANCH   5   7
BRANCH   6  10
ATOM     10  C   UNL     1       4.661   4.677  17.123  0.00  0.00    +0.000 C 
BRANCH  10  11
ATOM     11  C   UNL     1       6.142   5.065  17.179  0.00  0.00    +0.000 C 
BRANCH  11  12
ATOM     12  N   UNL     1       6.394   6.209  16.292  0.00  0.00    +0.000 NA
ATOM     13  N   UNL     1       7.055   7.138  16.797  0.00  0.00    +0.000 NA
ATOM     14  N   UNL     1       7.658   7.976  17.276  0.00  0.00    +0.000 NA
ENDBRANCH  11  12
ENDBRANCH  10  11
ENDBRANCH   6  10
TORSDOF 4
ENDMDL
MODEL 7
REMARK VINA RESULT:      -5.5      2.643      4.572
REMARK  Name = 
REMARK  5 active torsions:
REMARK  status: ('A' for Active; 'I' for Inactive)
REMARK    1  A    between atoms: C_1  and  C_2
REMARK    2  A    between atoms: C_5  and  N_6
REMARK    3  A    between atoms: N_9  and  C_10
REMARK    4  A    between atoms: C_10  and  C_11
REMARK    5  A    between atoms: C_11  and  N_12
REMARK                            x       y       z     vdW  Elec       q    Type
REMARK                         _______ _______ _______ _____ _____    ______ ____
ROOT
ATOM      1  C   UNL     1       3.425   7.063  17.739  0.00  0.00    +0.000 C 
ATOM      2  C   UNL     1       4.860   6.689  17.644  0.00  0.00    +0.000 A 
ATOM      3  N   UNL     1       5.696   7.279  16.808  0.00  0.00    +0.000 NA
ATOM      4  C   UNL     1       6.918   6.705  17.007  0.00  0.00    +0.000 A 
ATOM      5  C   UNL     1       6.822   5.755  17.984  0.00  0.00    +0.000 A 
ATOM      6  N   UNL     1       5.506   5.710  18.389  0.00  0.00    +0.000 N 
ENDROOT
BRANCH   5   7
ATOM      7  N   UNL     1       7.859   4.952  18.510  0.00  0.00    +0.000 N 
ATOM      8  O   UNL     1       8.300   4.066  17.770  0.00  0.00    +0.000 OA
ATOM      9  O   UNL     1       8.235   5.208  19.658  0.00  0.00    +0.000 OA
ENDBRANCH   5   7
BRANCH   6  10
ATOM     10  C   UNL     1       4.965   4.831  19.418  0.00  0.00    +0.000 C 
BRANCH  10  11
ATOM     11  C   UNL     1       4.714   3.369  19.035  0.00  0.00    +0.000 C 
BRANCH  11  12
ATOM     12  N   UNL     1       4.077   2.661  20.154  0.00  0.00    +0.000 NA
ATOM     13  N   UNL     1       4.834   1.925  20.818  0.00  0.00    +0.000 NA
ATOM     14  N   UNL     1       5.540   1.258  21.411  0.00  0.00    +0.000 NA
ENDBRANCH  11  12
ENDBRANCH  10  11
ENDBRANCH   6  10
TORSDOF 4
ENDMDL
MODEL 8
REMARK VINA RESULT:      -5.4      2.387      4.396
REMARK  Name = 
REMARK  5 active torsions:
REMARK  status: ('A' for Active; 'I' for Inactive)
REMARK    1  A    between atoms: C_1  and  C_2
REMARK    2  A    between atoms: C_5  and  N_6
REMARK    3  A    between atoms: N_9  and  C_10
REMARK    4  A    between atoms: C_10  and  C_11
REMARK    5  A    between atoms: C_11  and  N_12
REMARK                            x       y       z     vdW  Elec       q    Type
REMARK                         _______ _______ _______ _____ _____    ______ ____
ROOT
ATOM      1  C   UNL     1       0.926   3.238  18.981  0.00  0.00    +0.000 C 
ATOM      2  C   UNL     1       2.148   3.995  18.602  0.00  0.00    +0.000 A 
ATOM      3  N   UNL     1       2.107   5.243  18.168  0.00  0.00    +0.000 NA
ATOM      4  C   UNL     1       3.398   5.619  17.940  0.00  0.00    +0.000 A 
ATOM      5  C   UNL     1       4.236   4.584  18.244  0.00  0.00    +0.000 A 
ATOM      6  N   UNL     1       3.454   3.524  18.647  0.00  0.00    +0.000 N 
ENDROOT
BRANCH   5   7
ATOM      7  N   UNL     1       5.648   4.569  18.177  0.00  0.00    +0.000 N 
ATOM      8  O   UNL     1       6.253   4.847  19.218  0.00  0.00    +0.000 OA
ATOM      9  O   UNL     1       6.151   4.277  17.087  0.00  0.00    +0.000 OA
ENDBRANCH   5   7
BRANCH   6  10
ATOM     10  C   UNL     1       3.946   2.217  19.065  0.00  0.00    +0.000 C 
BRANCH  10  11
ATOM     11  C   UNL     1       4.493   2.093  20.490  0.00  0.00    +0.000 C 
BRANCH  11  12
ATOM     12  N   UNL     1       5.307   0.875  20.610  0.00  0.00    +0.000 NA
ATOM     13  N   UNL     1       5.962   0.775  21.666  0.00  0.00    +0.000 NA
ATOM     14  N   UNL     1       6.553   0.702  22.636  0.00  0.00    +0.000 NA
ENDBRANCH  11  12
ENDBRANCH  10  11
ENDBRANCH   6  10
TORSDOF 4
ENDMDL
MODEL 9
REMARK VINA RESULT:      -5.4      1.368      1.720
REMARK  Name = 
REMARK  5 active torsions:
REMARK  status: ('A' for Active; 'I' for Inactive)
REMARK    1  A    between atoms: C_1  and  C_2
REMARK    2  A    between atoms: C_5  and  N_6
REMARK    3  A    between atoms: N_9  and  C_10
REMARK    4  A    between atoms: C_10  and  C_11
REMARK    5  A    between atoms: C_11  and  N_12
REMARK                            x       y       z     vdW  Elec       q    Type
REMARK                         _______ _______ _______ _____ _____    ______ ____
ROOT
ATOM      1  C   UNL     1       2.266   7.004  19.837  0.00  0.00    +0.000 C 
ATOM      2  C   UNL     1       2.444   5.538  19.998  0.00  0.00    +0.000 A 
ATOM      3  N   UNL     1       1.563   4.777  20.626  0.00  0.00    +0.000 NA
ATOM      4  C   UNL     1       2.036   3.499  20.563  0.00  0.00    +0.000 A 
ATOM      5  C   UNL     1       3.219   3.483  19.881  0.00  0.00    +0.000 A 
ATOM      6  N   UNL     1       3.513   4.782  19.532  0.00  0.00    +0.000 N 
ENDROOT
BRANCH   5   7
ATOM      7  N   UNL     1       4.019   2.360  19.569  0.00  0.00    +0.000 N 
ATOM      8  O   UNL     1       4.933   2.098  20.357  0.00  0.00    +0.000 OA
ATOM      9  O   UNL     1       3.731   1.739  18.540  0.00  0.00    +0.000 OA
ENDBRANCH   5   7
BRANCH   6  10
ATOM     10  C   UNL     1       4.690   5.216  18.790  0.00  0.00    +0.000 C 
BRANCH  10  11
ATOM     11  C   UNL     1       4.593   5.234  17.262  0.00  0.00    +0.000 C 
BRANCH  11  12
ATOM     12  N   UNL     1       5.397   6.340  16.722  0.00  0.00    +0.000 NA
ATOM     13  N   UNL     1       6.399   5.997  16.063  0.00  0.00    +0.000 NA
ATOM     14  N   UNL     1       7.308   5.665  15.466  0.00  0.00    +0.000 NA
ENDBRANCH  11  12
ENDBRANCH  10  11
ENDBRANCH   6  10
TORSDOF 4
ENDMDL
