MODEL 1
REMARK VINA RESULT:      -8.6      0.000      0.000
REMARK  Name = 
REMARK  7 active torsions:
REMARK  status: ('A' for Active; 'I' for Inactive)
REMARK    1  A    between atoms: C_5  and  C_7
REMARK    2  A    between atoms: C_7  and  O_8
REMARK    3  A    between atoms: O_8  and  C_9
REMARK    4  A    between atoms: C_9  and  C_11
REMARK    5  A    between atoms: C_11  and  C_12
REMARK    6  A    between atoms: C_12  and  C_13
REMARK    7  A    between atoms: C_13  and  C_15
REMARK                            x       y       z     vdW  Elec       q    Type
REMARK                         _______ _______ _______ _____ _____    ______ ____
ROOT
ATOM      1  O   UNL     1       0.446   3.193  20.113  0.00  0.00    +0.000 OA
ENDROOT
BRANCH   1   2
ATOM      2  C   UNL     1       1.370   3.180  21.111  0.00  0.00    +0.000 C 
ATOM      3  O   UNL     1       1.476   2.330  21.981  0.00  0.00    +0.000 OA
BRANCH   2   4
ATOM      4  C   UNL     1       2.132   4.476  21.116  0.00  0.00    +0.000 C 
BRANCH   4   5
ATOM      5  C   UNL     1       1.241   5.674  20.837  0.00  0.00    +0.000 C 
BRANCH   5   6
ATOM      6  C   UNL     1       1.989   6.766  20.085  0.00  0.00    +0.000 C 
ATOM      7  O   UNL     1       2.947   6.530  19.362  0.00  0.00    +0.000 OA
BRANCH   6   8
ATOM      8  C   UNL     1       1.525   8.180  20.271  0.00  0.00    +0.000 A 
ATOM      9  C   UNL     1       1.130   8.593  21.553  0.00  0.00    +0.000 A 
ATOM     10  C   UNL     1       0.708   9.907  21.776  0.00  0.00    +0.000 A 
ATOM     11  C   UNL     1       0.665  10.810  20.718  0.00  0.00    +0.000 A 
ATOM     12  C   UNL     1       1.064  10.408  19.441  0.00  0.00    +0.000 A 
ATOM     13  C   UNL     1       1.482   9.096  19.213  0.00  0.00    +0.000 A 
ATOM     14  O   UNL     1       1.062  11.243  18.353  0.00  0.00    +0.000 OA
ATOM     15  C   UNL     1       0.951  12.616  18.744  0.00  0.00    +0.000 C 
ATOM     16  C   UNL     1      -0.116  12.795  19.812  0.00  0.00    +0.000 C 
ATOM     17  O   UNL     1       0.228  12.077  21.003  0.00  0.00    +0.000 OA
ENDBRANCH   6   8
ENDBRANCH   5   6
ENDBRANCH   4   5
ENDBRANCH   2   4
ENDBRANCH   1   2
BRANCH   1  18
ATOM     18  C   UNL     1       0.842   2.558  18.896  0.00  0.00    +0.000 C 
BRANCH  18  23
ATOM     19  O   UNL     1       5.147   1.776  21.049  0.00  0.00    +0.000 OA
ATOM     20  C   UNL     1       4.883   2.339  19.992  0.00  0.00    +0.000 C 
ATOM     21  C   UNL     1       3.732   1.911  19.093  0.00  0.00    +0.000 C 
ATOM     22  N   UNL     1       3.230   2.981  18.215  0.00  0.00    +0.000 N 
ATOM     23  C   UNL     1       1.878   3.300  18.031  0.00  0.00    +0.000 C 
ATOM     24  O   UNL     1       1.492   4.169  17.247  0.00  0.00    +0.000 OA
ATOM     25  C   UNL     1       4.269   3.735  17.565  0.00  0.00    +0.000 A 
ATOM     26  C   UNL     1       4.099   4.358  16.323  0.00  0.00    +0.000 A 
ATOM     27  C   UNL     1       5.126   5.117  15.754  0.00  0.00    +0.000 A 
ATOM     28  C   UNL     1       6.330   5.287  16.431  0.00  0.00    +0.000 A 
ATOM     29  C   UNL     1       6.520   4.673  17.669  0.00  0.00    +0.000 A 
ATOM     30  C   UNL     1       5.508   3.881  18.218  0.00  0.00    +0.000 A 
ATOM     31  N   UNL     1       5.733   3.272  19.458  0.00  0.00    +0.000 N 
ATOM     32  H   UNL     1       6.565   3.477  19.995  0.00  0.00    +0.000 HD
ENDBRANCH  18  23
ENDBRANCH   1  18
TORSDOF 7
ENDMDL
MODEL 2
REMARK VINA RESULT:      -8.4      5.927      7.796
REMARK  Name = 
REMARK  7 active torsions:
REMARK  status: ('A' for Active; 'I' for Inactive)
REMARK    1  A    between atoms: C_5  and  C_7
REMARK    2  A    between atoms: C_7  and  O_8
REMARK    3  A    between atoms: O_8  and  C_9
REMARK    4  A    between atoms: C_9  and  C_11
REMARK    5  A    between atoms: C_11  and  C_12
REMARK    6  A    between atoms: C_12  and  C_13
REMARK    7  A    between atoms: C_13  and  C_15
REMARK                            x       y       z     vdW  Elec       q    Type
REMARK                         _______ _______ _______ _____ _____    ______ ____
ROOT
ATOM      1  O   UNL     1       7.423   6.064  18.166  0.00  0.00    +0.000 OA
ENDROOT
BRANCH   1   2
ATOM      2  C   UNL     1       7.415   7.342  17.701  0.00  0.00    +0.000 C 
ATOM      3  O   UNL     1       6.826   7.742  16.709  0.00  0.00    +0.000 OA
BRANCH   2   4
ATOM      4  C   UNL     1       8.403   8.171  18.473  0.00  0.00    +0.000 C 
BRANCH   4   5
ATOM      5  C   UNL     1       8.546   9.575  17.912  0.00  0.00    +0.000 C 
BRANCH   5   6
ATOM      6  C   UNL     1       9.179  10.520  18.924  0.00  0.00    +0.000 C 
ATOM      7  O   UNL     1       9.264  10.252  20.114  0.00  0.00    +0.000 OA
BRANCH   6   8
ATOM      8  C   UNL     1       9.694  11.835  18.417  0.00  0.00    +0.000 A 
ATOM      9  C   UNL     1      10.866  11.844  17.644  0.00  0.00    +0.000 A 
ATOM     10  C   UNL     1      11.371  13.044  17.136  0.00  0.00    +0.000 A 
ATOM     11  C   UNL     1      10.718  14.242  17.409  0.00  0.00    +0.000 A 
ATOM     12  C   UNL     1       9.546  14.240  18.171  0.00  0.00    +0.000 A 
ATOM     13  C   UNL     1       9.041  13.045  18.684  0.00  0.00    +0.000 A 
ATOM     14  O   UNL     1       8.841  15.377  18.471  0.00  0.00    +0.000 OA
ATOM     15  C   UNL     1       9.233  16.474  17.638  0.00  0.00    +0.000 C 
ATOM     16  C   UNL     1      10.746  16.556  17.521  0.00  0.00    +0.000 C 
ATOM     17  O   UNL     1      11.275  15.382  16.892  0.00  0.00    +0.000 OA
ENDBRANCH   6   8
ENDBRANCH   5   6
ENDBRANCH   4   5
ENDBRANCH   2   4
ENDBRANCH   1   2
BRANCH   1  18
ATOM     18  C   UNL     1       6.507   5.787  19.227  0.00  0.00    +0.000 C 
BRANCH  18  23
ATOM     19  O   UNL     1       2.150   7.721  20.251  0.00  0.00    +0.000 OA
ATOM     20  C   UNL     1       2.438   6.619  19.795  0.00  0.00    +0.000 C 
ATOM     21  C   UNL     1       3.624   6.392  18.869  0.00  0.00    +0.000 C 
ATOM     22  N   UNL     1       4.136   5.012  18.880  0.00  0.00    +0.000 N 
ATOM     23  C   UNL     1       5.487   4.658  18.987  0.00  0.00    +0.000 C 
ATOM     24  O   UNL     1       5.884   3.492  18.940  0.00  0.00    +0.000 OA
ATOM     25  C   UNL     1       3.106   4.010  18.814  0.00  0.00    +0.000 A 
ATOM     26  C   UNL     1       3.305   2.744  18.250  0.00  0.00    +0.000 A 
ATOM     27  C   UNL     1       2.285   1.789  18.251  0.00  0.00    +0.000 A 
ATOM     28  C   UNL     1       1.057   2.075  18.840  0.00  0.00    +0.000 A 
ATOM     29  C   UNL     1       0.837   3.331  19.406  0.00  0.00    +0.000 A 
ATOM     30  C   UNL     1       1.845   4.299  19.369  0.00  0.00    +0.000 A 
ATOM     31  N   UNL     1       1.590   5.552  19.939  0.00  0.00    +0.000 N 
ATOM     32  H   UNL     1       0.737   5.725  20.454  0.00  0.00    +0.000 HD
ENDBRANCH  18  23
ENDBRANCH   1  18
TORSDOF 7
ENDMDL
MODEL 3
REMARK VINA RESULT:      -8.4      6.520      9.928
REMARK  Name = 
REMARK  7 active torsions:
REMARK  status: ('A' for Active; 'I' for Inactive)
REMARK    1  A    between atoms: C_5  and  C_7
REMARK    2  A    between atoms: C_7  and  O_8
REMARK    3  A    between atoms: O_8  and  C_9
REMARK    4  A    between atoms: C_9  and  C_11
REMARK    5  A    between atoms: C_11  and  C_12
REMARK    6  A    between atoms: C_12  and  C_13
REMARK    7  A    between atoms: C_13  and  C_15
REMARK                            x       y       z     vdW  Elec       q    Type
REMARK                         _______ _______ _______ _____ _____    ______ ____
ROOT
ATOM      1  O   UNL     1       7.763   9.299  17.975  0.00  0.00    +0.000 OA
ENDROOT
BRANCH   1   2
ATOM      2  C   UNL     1       7.595   7.993  17.634  0.00  0.00    +0.000 C 
ATOM      3  O   UNL     1       6.824   7.565  16.789  0.00  0.00    +0.000 OA
BRANCH   2   4
ATOM      4  C   UNL     1       8.355   7.116  18.588  0.00  0.00    +0.000 C 
BRANCH   4   5
ATOM      5  C   UNL     1       7.495   6.004  19.165  0.00  0.00    +0.000 C 
BRANCH   5   6
ATOM      6  C   UNL     1       7.246   4.902  18.145  0.00  0.00    +0.000 C 
ATOM      7  O   UNL     1       8.135   4.440  17.444  0.00  0.00    +0.000 OA
BRANCH   6   8
ATOM      8  C   UNL     1       5.842   4.395  18.000  0.00  0.00    +0.000 A 
ATOM      9  C   UNL     1       5.290   4.307  16.713  0.00  0.00    +0.000 A 
ATOM     10  C   UNL     1       3.991   3.823  16.530  0.00  0.00    +0.000 A 
ATOM     11  C   UNL     1       3.234   3.437  17.632  0.00  0.00    +0.000 A 
ATOM     12  C   UNL     1       3.780   3.514  18.916  0.00  0.00    +0.000 A 
ATOM     13  C   UNL     1       5.074   4.001  19.103  0.00  0.00    +0.000 A 
ATOM     14  O   UNL     1       3.101   3.141  20.047  0.00  0.00    +0.000 OA
ATOM     15  C   UNL     1       1.945   2.355  19.732  0.00  0.00    +0.000 C 
ATOM     16  C   UNL     1       1.171   2.965  18.575  0.00  0.00    +0.000 C 
ATOM     17  O   UNL     1       1.964   2.985  17.383  0.00  0.00    +0.000 OA
ENDBRANCH   6   8
ENDBRANCH   5   6
ENDBRANCH   4   5
ENDBRANCH   2   4
ENDBRANCH   1   2
BRANCH   1  18
ATOM     18  C   UNL     1       9.073   9.658  18.416  0.00  0.00    +0.000 C 
BRANCH  18  23
ATOM     19  O   UNL     1      11.336  13.402  16.260  0.00  0.00    +0.000 OA
ATOM     20  C   UNL     1      10.830  13.319  17.374  0.00  0.00    +0.000 C 
ATOM     21  C   UNL     1       9.593  12.481  17.661  0.00  0.00    +0.000 C 
ATOM     22  N   UNL     1       9.469  12.059  19.066  0.00  0.00    +0.000 N 
ATOM     23  C   UNL     1       9.168  10.758  19.490  0.00  0.00    +0.000 C 
ATOM     24  O   UNL     1       9.020  10.453  20.675  0.00  0.00    +0.000 OA
ATOM     25  C   UNL     1       9.730  13.110  20.014  0.00  0.00    +0.000 A 
ATOM     26  C   UNL     1       9.150  13.154  21.287  0.00  0.00    +0.000 A 
ATOM     27  C   UNL     1       9.472  14.173  22.188  0.00  0.00    +0.000 A 
ATOM     28  C   UNL     1      10.400  15.150  21.839  0.00  0.00    +0.000 A 
ATOM     29  C   UNL     1      10.988  15.125  20.575  0.00  0.00    +0.000 A 
ATOM     30  C   UNL     1      10.635  14.129  19.660  0.00  0.00    +0.000 A 
ATOM     31  N   UNL     1      11.238  14.137  18.396  0.00  0.00    +0.000 N 
ATOM     32  H   UNL     1      11.984  14.784  18.180  0.00  0.00    +0.000 HD
ENDBRANCH  18  23
ENDBRANCH   1  18
TORSDOF 7
ENDMDL
MODEL 4
REMARK VINA RESULT:      -8.2      5.304      7.084
REMARK  Name = 
REMARK  7 active torsions:
REMARK  status: ('A' for Active; 'I' for Inactive)
REMARK    1  A    between atoms: C_5  and  C_7
REMARK    2  A    between atoms: C_7  and  O_8
REMARK    3  A    between atoms: O_8  and  C_9
REMARK    4  A    between atoms: C_9  and  C_11
REMARK    5  A    between atoms: C_11  and  C_12
REMARK    6  A    between atoms: C_12  and  C_13
REMARK    7  A    between atoms: C_13  and  C_15
REMARK                            x       y       z     vdW  Elec       q    Type
REMARK                         _______ _______ _______ _____ _____    ______ ____
ROOT
ATOM      1  O   UNL     1       6.910   7.262  16.847  0.00  0.00    +0.000 OA
ENDROOT
BRANCH   1   2
ATOM      2  C   UNL     1       7.773   7.722  17.792  0.00  0.00    +0.000 C 
ATOM      3  O   UNL     1       8.211   7.086  18.737  0.00  0.00    +0.000 OA
BRANCH   2   4
ATOM      4  C   UNL     1       7.967   9.204  17.625  0.00  0.00    +0.000 C 
BRANCH   4   5
ATOM      5  C   UNL     1       8.922   9.784  18.654  0.00  0.00    +0.000 C 
BRANCH   5   6
ATOM      6  C   UNL     1       9.578  11.062  18.152  0.00  0.00    +0.000 C 
ATOM      7  O   UNL     1      10.677  11.073  17.617  0.00  0.00    +0.000 OA
BRANCH   6   8
ATOM      8  C   UNL     1       8.832  12.349  18.350  0.00  0.00    +0.000 A 
ATOM      9  C   UNL     1       7.925  12.758  17.360  0.00  0.00    +0.000 A 
ATOM     10  C   UNL     1       7.196  13.941  17.512  0.00  0.00    +0.000 A 
ATOM     11  C   UNL     1       7.378  14.726  18.647  0.00  0.00    +0.000 A 
ATOM     12  C   UNL     1       8.272  14.321  19.641  0.00  0.00    +0.000 A 
ATOM     13  C   UNL     1       9.006  13.143  19.490  0.00  0.00    +0.000 A 
ATOM     14  O   UNL     1       8.495  15.033  20.790  0.00  0.00    +0.000 OA
ATOM     15  C   UNL     1       7.475  16.015  21.007  0.00  0.00    +0.000 C 
ATOM     16  C   UNL     1       7.160  16.766  19.723  0.00  0.00    +0.000 C 
ATOM     17  O   UNL     1       6.641  15.879  18.726  0.00  0.00    +0.000 OA
ENDBRANCH   6   8
ENDBRANCH   5   6
ENDBRANCH   4   5
ENDBRANCH   2   4
ENDBRANCH   1   2
BRANCH   1  18
ATOM     18  C   UNL     1       5.528   7.285  17.210  0.00  0.00    +0.000 C 
BRANCH  18  23
ATOM     19  O   UNL     1       1.953   7.904  20.468  0.00  0.00    +0.000 OA
ATOM     20  C   UNL     1       2.217   6.940  19.758  0.00  0.00    +0.000 C 
ATOM     21  C   UNL     1       2.800   7.078  18.359  0.00  0.00    +0.000 C 
ATOM     22  N   UNL     1       3.546   5.894  17.903  0.00  0.00    +0.000 N 
ATOM     23  C   UNL     1       4.811   5.926  17.299  0.00  0.00    +0.000 C 
ATOM     24  O   UNL     1       5.384   4.918  16.882  0.00  0.00    +0.000 OA
ATOM     25  C   UNL     1       2.879   4.647  18.168  0.00  0.00    +0.000 A 
ATOM     26  C   UNL     1       3.052   3.504  17.380  0.00  0.00    +0.000 A 
ATOM     27  C   UNL     1       2.415   2.303  17.707  0.00  0.00    +0.000 A 
ATOM     28  C   UNL     1       1.616   2.220  18.844  0.00  0.00    +0.000 A 
ATOM     29  C   UNL     1       1.430   3.349  19.642  0.00  0.00    +0.000 A 
ATOM     30  C   UNL     1       2.035   4.559  19.291  0.00  0.00    +0.000 A 
ATOM     31  N   UNL     1       1.821   5.675  20.109  0.00  0.00    +0.000 N 
ATOM     32  H   UNL     1       1.325   5.590  20.987  0.00  0.00    +0.000 HD
ENDBRANCH  18  23
ENDBRANCH   1  18
TORSDOF 7
ENDMDL
MODEL 5
REMARK VINA RESULT:      -8.2      5.453      7.075
REMARK  Name = 
REMARK  7 active torsions:
REMARK  status: ('A' for Active; 'I' for Inactive)
REMARK    1  A    between atoms: C_5  and  C_7
REMARK    2  A    between atoms: C_7  and  O_8
REMARK    3  A    between atoms: O_8  and  C_9
REMARK    4  A    between atoms: C_9  and  C_11
REMARK    5  A    between atoms: C_11  and  C_12
REMARK    6  A    between atoms: C_12  and  C_13
REMARK    7  A    between atoms: C_13  and  C_15
REMARK                            x       y       z     vdW  Elec       q    Type
REMARK                         _______ _______ _______ _____ _____    ______ ____
ROOT
ATOM      1  O   UNL     1       6.926   7.323  16.778  0.00  0.00    +0.000 OA
ENDROOT
BRANCH   1   2
ATOM      2  C   UNL     1       7.787   7.718  17.754  0.00  0.00    +0.000 C 
ATOM      3  O   UNL     1       8.223   7.018  18.655  0.00  0.00    +0.000 OA
BRANCH   2   4
ATOM      4  C   UNL     1       7.982   9.207  17.689  0.00  0.00    +0.000 C 
BRANCH   4   5
ATOM      5  C   UNL     1       8.929   9.716  18.761  0.00  0.00    +0.000 C 
BRANCH   5   6
ATOM      6  C   UNL     1       9.613  11.008  18.337  0.00  0.00    +0.000 C 
ATOM      7  O   UNL     1      10.560  11.029  17.565  0.00  0.00    +0.000 OA
BRANCH   6   8
ATOM      8  C   UNL     1       9.097  12.291  18.921  0.00  0.00    +0.000 A 
ATOM      9  C   UNL     1       9.143  12.460  20.313  0.00  0.00    +0.000 A 
ATOM     10  C   UNL     1       8.690  13.646  20.898  0.00  0.00    +0.000 A 
ATOM     11  C   UNL     1       8.176  14.662  20.098  0.00  0.00    +0.000 A 
ATOM     12  C   UNL     1       8.134  14.503  18.710  0.00  0.00    +0.000 A 
ATOM     13  C   UNL     1       8.582  13.319  18.123  0.00  0.00    +0.000 A 
ATOM     14  O   UNL     1       7.655  15.462  17.856  0.00  0.00    +0.000 OA
ATOM     15  C   UNL     1       7.544  16.735  18.503  0.00  0.00    +0.000 C 
ATOM     16  C   UNL     1       6.916  16.594  19.880  0.00  0.00    +0.000 C 
ATOM     17  O   UNL     1       7.737  15.791  20.737  0.00  0.00    +0.000 OA
ENDBRANCH   6   8
ENDBRANCH   5   6
ENDBRANCH   4   5
ENDBRANCH   2   4
ENDBRANCH   1   2
BRANCH   1  18
ATOM     18  C   UNL     1       5.542   7.340  17.133  0.00  0.00    +0.000 C 
BRANCH  18  23
ATOM     19  O   UNL     1       1.982   7.947  20.410  0.00  0.00    +0.000 OA
ATOM     20  C   UNL     1       2.248   6.982  19.701  0.00  0.00    +0.000 C 
ATOM     21  C   UNL     1       2.822   7.119  18.299  0.00  0.00    +0.000 C 
ATOM     22  N   UNL     1       3.573   5.938  17.842  0.00  0.00    +0.000 N 
ATOM     23  C   UNL     1       4.834   5.976  17.231  0.00  0.00    +0.000 C 
ATOM     24  O   UNL     1       5.411   4.970  16.814  0.00  0.00    +0.000 OA
ATOM     25  C   UNL     1       2.915   4.689  18.115  0.00  0.00    +0.000 A 
ATOM     26  C   UNL     1       3.090   3.544  17.330  0.00  0.00    +0.000 A 
ATOM     27  C   UNL     1       2.463   2.340  17.664  0.00  0.00    +0.000 A 
ATOM     28  C   UNL     1       1.671   2.256  18.806  0.00  0.00    +0.000 A 
ATOM     29  C   UNL     1       1.482   3.386  19.602  0.00  0.00    +0.000 A 
ATOM     30  C   UNL     1       2.078   4.599  19.243  0.00  0.00    +0.000 A 
ATOM     31  N   UNL     1       1.862   5.716  20.059  0.00  0.00    +0.000 N 
ATOM     32  H   UNL     1       1.372   5.631  20.939  0.00  0.00    +0.000 HD
ENDBRANCH  18  23
ENDBRANCH   1  18
TORSDOF 7
ENDMDL
MODEL 6
REMARK VINA RESULT:      -8.0      1.865      2.673
REMARK  Name = 
REMARK  7 active torsions:
REMARK  status: ('A' for Active; 'I' for Inactive)
REMARK    1  A    between atoms: C_5  and  C_7
REMARK    2  A    between atoms: C_7  and  O_8
REMARK    3  A    between atoms: O_8  and  C_9
REMARK    4  A    between atoms: C_9  and  C_11
REMARK    5  A    between atoms: C_11  and  C_12
REMARK    6  A    between atoms: C_12  and  C_13
REMARK    7  A    between atoms: C_13  and  C_15
REMARK                            x       y       z     vdW  Elec       q    Type
REMARK                         _______ _______ _______ _____ _____    ______ ____
ROOT
ATOM      1  O   UNL     1       3.570   3.077  20.174  0.00  0.00    +0.000 OA
ENDROOT
BRANCH   1   2
ATOM      2  C   UNL     1       2.523   3.554  20.899  0.00  0.00    +0.000 C 
ATOM      3  O   UNL     1       2.219   3.215  22.032  0.00  0.00    +0.000 OA
BRANCH   2   4
ATOM      4  C   UNL     1       1.659   4.425  20.030  0.00  0.00    +0.000 C 
BRANCH   4   5
ATOM      5  C   UNL     1       1.263   5.720  20.719  0.00  0.00    +0.000 C 
BRANCH   5   6
ATOM      6  C   UNL     1       1.906   6.928  20.053  0.00  0.00    +0.000 C 
ATOM      7  O   UNL     1       2.794   6.826  19.219  0.00  0.00    +0.000 OA
BRANCH   6   8
ATOM      8  C   UNL     1       1.425   8.287  20.468  0.00  0.00    +0.000 A 
ATOM      9  C   UNL     1       1.213   8.536  21.833  0.00  0.00    +0.000 A 
ATOM     10  C   UNL     1       0.783   9.793  22.266  0.00  0.00    +0.000 A 
ATOM     11  C   UNL     1       0.549  10.804  21.338  0.00  0.00    +0.000 A 
ATOM     12  C   UNL     1       0.766  10.566  19.978  0.00  0.00    +0.000 A 
ATOM     13  C   UNL     1       1.191   9.311  19.541  0.00  0.00    +0.000 A 
ATOM     14  O   UNL     1       0.571  11.514  19.007  0.00  0.00    +0.000 OA
ATOM     15  C   UNL     1       0.471  12.828  19.568  0.00  0.00    +0.000 C 
ATOM     16  C   UNL     1      -0.428  12.832  20.793  0.00  0.00    +0.000 C 
ATOM     17  O   UNL     1       0.116  12.007  21.830  0.00  0.00    +0.000 OA
ENDBRANCH   6   8
ENDBRANCH   5   6
ENDBRANCH   4   5
ENDBRANCH   2   4
ENDBRANCH   1   2
BRANCH   1  18
ATOM     18  C   UNL     1       4.389   4.066  19.548  0.00  0.00    +0.000 C 
BRANCH  18  23
ATOM     19  O   UNL     1       8.100   7.069  18.553  0.00  0.00    +0.000 OA
ATOM     20  C   UNL     1       7.546   6.236  17.844  0.00  0.00    +0.000 C 
ATOM     21  C   UNL     1       6.980   4.932  18.388  0.00  0.00    +0.000 C 
ATOM     22  N   UNL     1       5.910   4.354  17.560  0.00  0.00    +0.000 N 
ATOM     23  C   UNL     1       4.688   3.872  18.050  0.00  0.00    +0.000 C 
ATOM     24  O   UNL     1       3.835   3.346  17.332  0.00  0.00    +0.000 OA
ATOM     25  C   UNL     1       6.199   4.356  16.151  0.00  0.00    +0.000 A 
ATOM     26  C   UNL     1       5.678   3.409  15.261  0.00  0.00    +0.000 A 
ATOM     27  C   UNL     1       5.953   3.481  13.893  0.00  0.00    +0.000 A 
ATOM     28  C   UNL     1       6.733   4.518  13.388  0.00  0.00    +0.000 A 
ATOM     29  C   UNL     1       7.263   5.471  14.258  0.00  0.00    +0.000 A 
ATOM     30  C   UNL     1       7.020   5.374  15.631  0.00  0.00    +0.000 A 
ATOM     31  N   UNL     1       7.573   6.342  16.478  0.00  0.00    +0.000 N 
ATOM     32  H   UNL     1       8.053   7.149  16.102  0.00  0.00    +0.000 HD
ENDBRANCH  18  23
ENDBRANCH   1  18
TORSDOF 7
ENDMDL
MODEL 7
REMARK VINA RESULT:      -8.0      5.767      7.392
REMARK  Name = 
REMARK  7 active torsions:
REMARK  status: ('A' for Active; 'I' for Inactive)
REMARK    1  A    between atoms: C_5  and  C_7
REMARK    2  A    between atoms: C_7  and  O_8
REMARK    3  A    between atoms: O_8  and  C_9
REMARK    4  A    between atoms: C_9  and  C_11
REMARK    5  A    between atoms: C_11  and  C_12
REMARK    6  A    between atoms: C_12  and  C_13
REMARK    7  A    between atoms: C_13  and  C_15
REMARK                            x       y       z     vdW  Elec       q    Type
REMARK                         _______ _______ _______ _____ _____    ______ ____
ROOT
ATOM      1  O   UNL     1       7.129   7.044  16.884  0.00  0.00    +0.000 OA
ENDROOT
BRANCH   1   2
ATOM      2  C   UNL     1       7.876   7.472  17.937  0.00  0.00    +0.000 C 
ATOM      3  O   UNL     1       8.216   6.801  18.898  0.00  0.00    +0.000 OA
BRANCH   2   4
ATOM      4  C   UNL     1       8.065   8.961  17.853  0.00  0.00    +0.000 C 
BRANCH   4   5
ATOM      5  C   UNL     1       8.949   9.497  18.966  0.00  0.00    +0.000 C 
BRANCH   5   6
ATOM      6  C   UNL     1       9.549  10.849  18.604  0.00  0.00    +0.000 C 
ATOM      7  O   UNL     1      10.245  11.016  17.613  0.00  0.00    +0.000 OA
BRANCH   6   8
ATOM      8  C   UNL     1       9.275  12.000  19.527  0.00  0.00    +0.000 A 
ATOM      9  C   UNL     1       9.053  13.268  18.970  0.00  0.00    +0.000 A 
ATOM     10  C   UNL     1       8.776  14.365  19.791  0.00  0.00    +0.000 A 
ATOM     11  C   UNL     1       8.733  14.202  21.173  0.00  0.00    +0.000 A 
ATOM     12  C   UNL     1       8.945  12.941  21.734  0.00  0.00    +0.000 A 
ATOM     13  C   UNL     1       9.227  11.845  20.918  0.00  0.00    +0.000 A 
ATOM     14  O   UNL     1       8.907  12.700  23.083  0.00  0.00    +0.000 OA
ATOM     15  C   UNL     1       8.289  13.781  23.793  0.00  0.00    +0.000 C 
ATOM     16  C   UNL     1       8.804  15.123  23.298  0.00  0.00    +0.000 C 
ATOM     17  O   UNL     1       8.470  15.321  21.919  0.00  0.00    +0.000 OA
ENDBRANCH   6   8
ENDBRANCH   5   6
ENDBRANCH   4   5
ENDBRANCH   2   4
ENDBRANCH   1   2
BRANCH   1  18
ATOM     18  C   UNL     1       5.724   6.945  17.123  0.00  0.00    +0.000 C 
BRANCH  18  23
ATOM     19  O   UNL     1       1.840   8.426  19.672  0.00  0.00    +0.000 OA
ATOM     20  C   UNL     1       2.318   7.305  19.540  0.00  0.00    +0.000 C 
ATOM     21  C   UNL     1       2.982   6.835  18.254  0.00  0.00    +0.000 C 
ATOM     22  N   UNL     1       3.950   5.742  18.446  0.00  0.00    +0.000 N 
ATOM     23  C   UNL     1       5.237   5.703  17.893  0.00  0.00    +0.000 C 
ATOM     24  O   UNL     1       6.001   4.747  18.032  0.00  0.00    +0.000 OA
ATOM     25  C   UNL     1       3.478   4.693  19.310  0.00  0.00    +0.000 A 
ATOM     26  C   UNL     1       3.901   3.364  19.201  0.00  0.00    +0.000 A 
ATOM     27  C   UNL     1       3.447   2.390  20.095  0.00  0.00    +0.000 A 
ATOM     28  C   UNL     1       2.582   2.735  21.129  0.00  0.00    +0.000 A 
ATOM     29  C   UNL     1       2.147   4.055  21.254  0.00  0.00    +0.000 A 
ATOM     30  C   UNL     1       2.570   5.019  20.335  0.00  0.00    +0.000 A 
ATOM     31  N   UNL     1       2.108   6.333  20.484  0.00  0.00    +0.000 N 
ATOM     32  H   UNL     1       1.563   6.604  21.291  0.00  0.00    +0.000 HD
ENDBRANCH  18  23
ENDBRANCH   1  18
TORSDOF 7
ENDMDL
MODEL 8
REMARK VINA RESULT:      -8.0      1.971      3.408
REMARK  Name = 
REMARK  7 active torsions:
REMARK  status: ('A' for Active; 'I' for Inactive)
REMARK    1  A    between atoms: C_5  and  C_7
REMARK    2  A    between atoms: C_7  and  O_8
REMARK    3  A    between atoms: O_8  and  C_9
REMARK    4  A    between atoms: C_9  and  C_11
REMARK    5  A    between atoms: C_11  and  C_12
REMARK    6  A    between atoms: C_12  and  C_13
REMARK    7  A    between atoms: C_13  and  C_15
REMARK                            x       y       z     vdW  Elec       q    Type
REMARK                         _______ _______ _______ _____ _____    ______ ____
ROOT
ATOM      1  O   UNL     1       2.291   2.186  17.738  0.00  0.00    +0.000 OA
ENDROOT
BRANCH   1   2
ATOM      2  C   UNL     1       1.649   2.261  18.933  0.00  0.00    +0.000 C 
ATOM      3  O   UNL     1       1.630   1.396  19.795  0.00  0.00    +0.000 OA
BRANCH   2   4
ATOM      4  C   UNL     1       0.787   3.493  18.972  0.00  0.00    +0.000 C 
BRANCH   4   5
ATOM      5  C   UNL     1       0.881   4.226  20.299  0.00  0.00    +0.000 C 
BRANCH   5   6
ATOM      6  C   UNL     1       2.130   5.093  20.373  0.00  0.00    +0.000 C 
ATOM      7  O   UNL     1       3.140   4.745  20.968  0.00  0.00    +0.000 OA
BRANCH   6   8
ATOM      8  C   UNL     1       2.086   6.432  19.697  0.00  0.00    +0.000 A 
ATOM      9  C   UNL     1       2.553   6.532  18.377  0.00  0.00    +0.000 A 
ATOM     10  C   UNL     1       2.515   7.756  17.703  0.00  0.00    +0.000 A 
ATOM     11  C   UNL     1       2.022   8.887  18.347  0.00  0.00    +0.000 A 
ATOM     12  C   UNL     1       1.547   8.793  19.658  0.00  0.00    +0.000 A 
ATOM     13  C   UNL     1       1.589   7.574  20.336  0.00  0.00    +0.000 A 
ATOM     14  O   UNL     1       1.036   9.858  20.353  0.00  0.00    +0.000 OA
ATOM     15  C   UNL     1       0.725  10.953  19.483  0.00  0.00    +0.000 C 
ATOM     16  C   UNL     1       1.848  11.193  18.486  0.00  0.00    +0.000 C 
ATOM     17  O   UNL     1       2.026  10.056  17.633  0.00  0.00    +0.000 OA
ENDBRANCH   6   8
ENDBRANCH   5   6
ENDBRANCH   4   5
ENDBRANCH   2   4
ENDBRANCH   1   2
BRANCH   1  18
ATOM     18  C   UNL     1       3.679   1.852  17.802  0.00  0.00    +0.000 C 
BRANCH  18  23
ATOM     19  O   UNL     1       5.227   4.365  13.920  0.00  0.00    +0.000 OA
ATOM     20  C   UNL     1       5.422   4.557  15.115  0.00  0.00    +0.000 C 
ATOM     21  C   UNL     1       4.388   4.237  16.184  0.00  0.00    +0.000 C 
ATOM     22  N   UNL     1       4.961   4.002  17.519  0.00  0.00    +0.000 N 
ATOM     23  C   UNL     1       4.627   2.930  18.358  0.00  0.00    +0.000 C 
ATOM     24  O   UNL     1       5.090   2.793  19.493  0.00  0.00    +0.000 OA
ATOM     25  C   UNL     1       5.960   4.964  17.901  0.00  0.00    +0.000 A 
ATOM     26  C   UNL     1       6.217   5.313  19.232  0.00  0.00    +0.000 A 
ATOM     27  C   UNL     1       7.229   6.221  19.554  0.00  0.00    +0.000 A 
ATOM     28  C   UNL     1       8.019   6.775  18.551  0.00  0.00    +0.000 A 
ATOM     29  C   UNL     1       7.779   6.441  17.218  0.00  0.00    +0.000 A 
ATOM     30  C   UNL     1       6.740   5.565  16.895  0.00  0.00    +0.000 A 
ATOM     31  N   UNL     1       6.519   5.257  15.547  0.00  0.00    +0.000 N 
ATOM     32  H   UNL     1       7.155   5.578  14.829  0.00  0.00    +0.000 HD
ENDBRANCH  18  23
ENDBRANCH   1  18
TORSDOF 7
ENDMDL
MODEL 9
REMARK VINA RESULT:      -8.0      2.656      7.943
REMARK  Name = 
REMARK  7 active torsions:
REMARK  status: ('A' for Active; 'I' for Inactive)
REMARK    1  A    between atoms: C_5  and  C_7
REMARK    2  A    between atoms: C_7  and  O_8
REMARK    3  A    between atoms: O_8  and  C_9
REMARK    4  A    between atoms: C_9  and  C_11
REMARK    5  A    between atoms: C_11  and  C_12
REMARK    6  A    between atoms: C_12  and  C_13
REMARK    7  A    between atoms: C_13  and  C_15
REMARK                            x       y       z     vdW  Elec       q    Type
REMARK                         _______ _______ _______ _____ _____    ______ ____
ROOT
ATOM      1  O   UNL     1       4.695   7.114  18.106  0.00  0.00    +0.000 OA
ENDROOT
BRANCH   1   2
ATOM      2  C   UNL     1       5.571   7.161  17.067  0.00  0.00    +0.000 C 
ATOM      3  O   UNL     1       6.632   7.767  17.048  0.00  0.00    +0.000 OA
BRANCH   2   4
ATOM      4  C   UNL     1       4.958   6.520  15.854  0.00  0.00    +0.000 C 
BRANCH   4   5
ATOM      5  C   UNL     1       5.554   5.155  15.555  0.00  0.00    +0.000 C 
BRANCH   5   6
ATOM      6  C   UNL     1       5.782   4.352  16.828  0.00  0.00    +0.000 C 
ATOM      7  O   UNL     1       6.898   4.074  17.241  0.00  0.00    +0.000 OA
BRANCH   6   8
ATOM      8  C   UNL     1       4.570   3.879  17.577  0.00  0.00    +0.000 A 
ATOM      9  C   UNL     1       3.476   3.395  16.844  0.00  0.00    +0.000 A 
ATOM     10  C   UNL     1       2.334   2.928  17.502  0.00  0.00    +0.000 A 
ATOM     11  C   UNL     1       2.274   2.955  18.892  0.00  0.00    +0.000 A 
ATOM     12  C   UNL     1       3.363   3.428  19.628  0.00  0.00    +0.000 A 
ATOM     13  C   UNL     1       4.503   3.900  18.976  0.00  0.00    +0.000 A 
ATOM     14  O   UNL     1       3.384   3.474  20.998  0.00  0.00    +0.000 OA
ATOM     15  C   UNL     1       2.342   2.673  21.567  0.00  0.00    +0.000 C 
ATOM     16  C   UNL     1       1.025   2.898  20.842  0.00  0.00    +0.000 C 
ATOM     17  O   UNL     1       1.121   2.495  19.470  0.00  0.00    +0.000 OA
ENDBRANCH   6   8
ENDBRANCH   5   6
ENDBRANCH   4   5
ENDBRANCH   2   4
ENDBRANCH   1   2
BRANCH   1  18
ATOM     18  C   UNL     1       3.361   7.530  17.808  0.00  0.00    +0.000 C 
BRANCH  18  23
ATOM     19  O   UNL     1       2.321  12.294  17.890  0.00  0.00    +0.000 OA
ATOM     20  C   UNL     1       1.879  11.376  18.573  0.00  0.00    +0.000 C 
ATOM     21  C   UNL     1       1.681   9.966  18.036  0.00  0.00    +0.000 C 
ATOM     22  N   UNL     1       1.688   8.924  19.075  0.00  0.00    +0.000 N 
ATOM     23  C   UNL     1       2.412   7.725  19.005  0.00  0.00    +0.000 C 
ATOM     24  O   UNL     1       2.353   6.851  19.872  0.00  0.00    +0.000 OA
ATOM     25  C   UNL     1       0.903   9.253  20.234  0.00  0.00    +0.000 A 
ATOM     26  C   UNL     1       0.292   8.289  21.043  0.00  0.00    +0.000 A 
ATOM     27  C   UNL     1      -0.425   8.658  22.186  0.00  0.00    +0.000 A 
ATOM     28  C   UNL     1      -0.518   9.998  22.552  0.00  0.00    +0.000 A 
ATOM     29  C   UNL     1       0.083  10.975  21.758  0.00  0.00    +0.000 A 
ATOM     30  C   UNL     1       0.764  10.607  20.594  0.00  0.00    +0.000 A 
ATOM     31  N   UNL     1       1.349  11.613  19.815  0.00  0.00    +0.000 N 
ATOM     32  H   UNL     1       1.368  12.572  20.133  0.00  0.00    +0.000 HD
ENDBRANCH  18  23
ENDBRANCH   1  18
TORSDOF 7
ENDMDL
