MODEL 1
REMARK VINA RESULT:      -7.6      0.000      0.000
REMARK  Name = 
REMARK  15 active torsions:
REMARK  status: ('A' for Active; 'I' for Inactive)
REMARK    1  A    between atoms: C_1  and  O_2
REMARK    2  A    between atoms: O_2  and  C_3
REMARK    3  A    between atoms: C_5  and  N_6
REMARK    4  A    between atoms: C_7  and  C_9
REMARK    5  A    between atoms: C_12  and  C_13
REMARK    6  A    between atoms: C_23  and  O_24
REMARK    7  A    between atoms: O_24  and  C_25
REMARK    8  A    between atoms: C_25  and  C_26
REMARK    9  A    between atoms: C_26  and  N_27
REMARK   10  A    between atoms: N_27  and  C_28
REMARK   11  A    between atoms: N_27  and  C_31
REMARK   12  A    between atoms: C_28  and  C_29
REMARK   13  A    between atoms: C_28  and  C_30
REMARK   14  A    between atoms: C_31  and  C_32
REMARK   15  A    between atoms: C_31  and  C_33
REMARK                            x       y       z     vdW  Elec       q    Type
REMARK                         _______ _______ _______ _____ _____    ______ ____
ROOT
ATOM      1  C   UNL     1       2.128   5.269  20.638  0.00  0.00    +0.000 A 
ATOM      2  C   UNL     1       1.372   6.406  20.983  0.00  0.00    +0.000 A 
ATOM      3  C   UNL     1       1.487   7.608  20.275  0.00  0.00    +0.000 A 
ATOM      4  C   UNL     1       2.350   7.662  19.187  0.00  0.00    +0.000 A 
ATOM      5  C   UNL     1       3.105   6.543  18.838  0.00  0.00    +0.000 A 
ATOM      6  C   UNL     1       3.043   5.350  19.580  0.00  0.00    +0.000 A 
ENDROOT
BRANCH   3   7
ATOM      7  N   UNL     1       0.774   8.789  20.572  0.00  0.00    +0.000 N 
ATOM      8  C   UNL     1       0.898   9.544  21.720  0.00  0.00    +0.000 C 
ATOM      9  O   UNL     1       1.739   9.378  22.597  0.00  0.00    +0.000 OA
ATOM     10  H   UNL     1       0.111   9.091  19.874  0.00  0.00    +0.000 HD
BRANCH   8  11
ATOM     11  C   UNL     1      -0.102  10.631  21.916  0.00  0.00    +0.000 A 
ATOM     12  C   UNL     1      -0.924  10.506  23.037  0.00  0.00    +0.000 A 
ATOM     13  C   UNL     1      -1.909  11.459  23.304  0.00  0.00    +0.000 A 
ATOM     14  C   UNL     1      -2.084  12.581  22.479  0.00  0.00    +0.000 A 
ATOM     15  C   UNL     1      -1.244  12.696  21.353  0.00  0.00    +0.000 A 
ATOM     16  C   UNL     1      -0.262  11.730  21.067  0.00  0.00    +0.000 A 
BRANCH  14  17
ATOM     17  C   UNL     1      -3.128  13.586  22.800  0.00  0.00    +0.000 A 
ATOM     18  C   UNL     1      -2.887  14.962  22.621  0.00  0.00    +0.000 A 
ATOM     19  C   UNL     1      -3.828  15.927  22.989  0.00  0.00    +0.000 A 
ATOM     20  C   UNL     1      -5.048  15.530  23.526  0.00  0.00    +0.000 A 
ATOM     21  C   UNL     1      -5.326  14.177  23.688  0.00  0.00    +0.000 A 
ATOM     22  C   UNL     1      -4.375  13.215  23.332  0.00  0.00    +0.000 A 
ENDBRANCH  14  17
ENDBRANCH   8  11
ENDBRANCH   3   7
BRANCH   1  24
ATOM     23  C   UNL     1       1.249   3.101  21.079  0.00  0.00    +0.000 C 
ATOM     24  O   UNL     1       2.008   4.223  21.515  0.00  0.00    +0.000 OA
ENDBRANCH   1  24
BRANCH   6  25
ATOM     25  O   UNL     1       3.896   4.293  19.329  0.00  0.00    +0.000 OA
BRANCH  25  26
ATOM     26  C   UNL     1       5.281   4.658  19.421  0.00  0.00    +0.000 C 
BRANCH  26  27
ATOM     27  C   UNL     1       6.036   4.478  18.096  0.00  0.00    +0.000 C 
BRANCH  27  28
ATOM     28  N   UNL     1       6.229   5.749  17.314  0.00  0.00    +0.000 NA
BRANCH  28  29
ATOM     29  C   UNL     1       7.515   6.414  17.699  0.00  0.00    +0.000 C 
ATOM     30  C   UNL     1       7.546   7.930  17.463  0.00  0.00    +0.000 C 
ATOM     31  C   UNL     1       8.135   6.069  19.062  0.00  0.00    +0.000 C 
ENDBRANCH  28  29
BRANCH  28  32
ATOM     32  C   UNL     1       6.010   5.496  15.857  0.00  0.00    +0.000 C 
ATOM     33  C   UNL     1       7.291   4.997  15.148  0.00  0.00    +0.000 C 
ATOM     34  C   UNL     1       4.934   4.449  15.532  0.00  0.00    +0.000 C 
ENDBRANCH  28  32
ENDBRANCH  27  28
ENDBRANCH  26  27
ENDBRANCH  25  26
ENDBRANCH   6  25
TORSDOF 10
ENDMDL
MODEL 2
REMARK VINA RESULT:      -7.5      0.836      2.102
REMARK  Name = 
REMARK  15 active torsions:
REMARK  status: ('A' for Active; 'I' for Inactive)
REMARK    1  A    between atoms: C_1  and  O_2
REMARK    2  A    between atoms: O_2  and  C_3
REMARK    3  A    between atoms: C_5  and  N_6
REMARK    4  A    between atoms: C_7  and  C_9
REMARK    5  A    between atoms: C_12  and  C_13
REMARK    6  A    between atoms: C_23  and  O_24
REMARK    7  A    between atoms: O_24  and  C_25
REMARK    8  A    between atoms: C_25  and  C_26
REMARK    9  A    between atoms: C_26  and  N_27
REMARK   10  A    between atoms: N_27  and  C_28
REMARK   11  A    between atoms: N_27  and  C_31
REMARK   12  A    between atoms: C_28  and  C_29
REMARK   13  A    between atoms: C_28  and  C_30
REMARK   14  A    between atoms: C_31  and  C_32
REMARK   15  A    between atoms: C_31  and  C_33
REMARK                            x       y       z     vdW  Elec       q    Type
REMARK                         _______ _______ _______ _____ _____    ______ ____
ROOT
ATOM      1  C   UNL     1       2.354   5.221  20.561  0.00  0.00    +0.000 A 
ATOM      2  C   UNL     1       1.525   6.301  20.920  0.00  0.00    +0.000 A 
ATOM      3  C   UNL     1       1.560   7.517  20.227  0.00  0.00    +0.000 A 
ATOM      4  C   UNL     1       2.418   7.641  19.140  0.00  0.00    +0.000 A 
ATOM      5  C   UNL     1       3.244   6.579  18.778  0.00  0.00    +0.000 A 
ATOM      6  C   UNL     1       3.261   5.375  19.505  0.00  0.00    +0.000 A 
ENDROOT
BRANCH   3   7
ATOM      7  N   UNL     1       0.771   8.644  20.539  0.00  0.00    +0.000 N 
ATOM      8  C   UNL     1       0.861   9.405  21.686  0.00  0.00    +0.000 C 
ATOM      9  O   UNL     1       1.726   9.298  22.549  0.00  0.00    +0.000 OA
ATOM     10  H   UNL     1       0.077   8.899  19.852  0.00  0.00    +0.000 HD
BRANCH   8  11
ATOM     11  C   UNL     1      -0.209  10.418  21.902  0.00  0.00    +0.000 A 
ATOM     12  C   UNL     1      -0.507  11.232  20.808  0.00  0.00    +0.000 A 
ATOM     13  C   UNL     1      -1.481  12.228  20.908  0.00  0.00    +0.000 A 
ATOM     14  C   UNL     1      -2.208  12.422  22.093  0.00  0.00    +0.000 A 
ATOM     15  C   UNL     1      -1.899  11.592  23.188  0.00  0.00    +0.000 A 
ATOM     16  C   UNL     1      -0.906  10.598  23.100  0.00  0.00    +0.000 A 
BRANCH  14  17
ATOM     17  C   UNL     1      -3.249  13.478  22.162  0.00  0.00    +0.000 A 
ATOM     18  C   UNL     1      -4.298  13.522  21.223  0.00  0.00    +0.000 A 
ATOM     19  C   UNL     1      -5.243  14.551  21.225  0.00  0.00    +0.000 A 
ATOM     20  C   UNL     1      -5.171  15.551  22.188  0.00  0.00    +0.000 A 
ATOM     21  C   UNL     1      -4.163  15.520  23.145  0.00  0.00    +0.000 A 
ATOM     22  C   UNL     1      -3.210  14.496  23.131  0.00  0.00    +0.000 A 
ENDBRANCH  14  17
ENDBRANCH   8  11
ENDBRANCH   3   7
BRANCH   1  24
ATOM     23  C   UNL     1       1.393   3.112  21.107  0.00  0.00    +0.000 C 
ATOM     24  O   UNL     1       2.304   4.157  21.424  0.00  0.00    +0.000 OA
ENDBRANCH   1  24
BRANCH   6  25
ATOM     25  O   UNL     1       4.182   4.380  19.241  0.00  0.00    +0.000 OA
BRANCH  25  26
ATOM     26  C   UNL     1       4.536   4.300  17.852  0.00  0.00    +0.000 C 
BRANCH  26  27
ATOM     27  C   UNL     1       6.015   3.952  17.631  0.00  0.00    +0.000 C 
BRANCH  27  28
ATOM     28  N   UNL     1       6.843   5.081  17.080  0.00  0.00    +0.000 NA
BRANCH  28  29
ATOM     29  C   UNL     1       6.408   5.424  15.688  0.00  0.00    +0.000 C 
ATOM     30  C   UNL     1       6.363   4.234  14.721  0.00  0.00    +0.000 C 
ATOM     31  C   UNL     1       5.165   6.309  15.511  0.00  0.00    +0.000 C 
ENDBRANCH  28  29
BRANCH  28  32
ATOM     32  C   UNL     1       6.901   6.205  18.065  0.00  0.00    +0.000 C 
ATOM     33  C   UNL     1       7.606   5.800  19.380  0.00  0.00    +0.000 C 
ATOM     34  C   UNL     1       7.644   7.459  17.578  0.00  0.00    +0.000 C 
ENDBRANCH  28  32
ENDBRANCH  27  28
ENDBRANCH  26  27
ENDBRANCH  25  26
ENDBRANCH   6  25
TORSDOF 10
ENDMDL
MODEL 3
REMARK VINA RESULT:      -7.4      1.341      1.496
REMARK  Name = 
REMARK  15 active torsions:
REMARK  status: ('A' for Active; 'I' for Inactive)
REMARK    1  A    between atoms: C_1  and  O_2
REMARK    2  A    between atoms: O_2  and  C_3
REMARK    3  A    between atoms: C_5  and  N_6
REMARK    4  A    between atoms: C_7  and  C_9
REMARK    5  A    between atoms: C_12  and  C_13
REMARK    6  A    between atoms: C_23  and  O_24
REMARK    7  A    between atoms: O_24  and  C_25
REMARK    8  A    between atoms: C_25  and  C_26
REMARK    9  A    between atoms: C_26  and  N_27
REMARK   10  A    between atoms: N_27  and  C_28
REMARK   11  A    between atoms: N_27  and  C_31
REMARK   12  A    between atoms: C_28  and  C_29
REMARK   13  A    between atoms: C_28  and  C_30
REMARK   14  A    between atoms: C_31  and  C_32
REMARK   15  A    between atoms: C_31  and  C_33
REMARK                            x       y       z     vdW  Elec       q    Type
REMARK                         _______ _______ _______ _____ _____    ______ ____
ROOT
ATOM      1  C   UNL     1       2.161   5.396  20.026  0.00  0.00    +0.000 A 
ATOM      2  C   UNL     1       1.689   6.527  20.720  0.00  0.00    +0.000 A 
ATOM      3  C   UNL     1       1.726   7.806  20.151  0.00  0.00    +0.000 A 
ATOM      4  C   UNL     1       2.215   7.948  18.858  0.00  0.00    +0.000 A 
ATOM      5  C   UNL     1       2.686   6.835  18.163  0.00  0.00    +0.000 A 
ATOM      6  C   UNL     1       2.710   5.556  18.748  0.00  0.00    +0.000 A 
ENDROOT
BRANCH   3   7
ATOM      7  N   UNL     1       1.286   8.984  20.791  0.00  0.00    +0.000 N 
ATOM      8  C   UNL     1       0.098   9.140  21.474  0.00  0.00    +0.000 C 
ATOM      9  O   UNL     1      -0.697   8.244  21.741  0.00  0.00    +0.000 OA
ATOM     10  H   UNL     1       1.906   9.778  20.728  0.00  0.00    +0.000 HD
BRANCH   8  11
ATOM     11  C   UNL     1      -0.258  10.525  21.889  0.00  0.00    +0.000 A 
ATOM     12  C   UNL     1      -1.186  10.632  22.925  0.00  0.00    +0.000 A 
ATOM     13  C   UNL     1      -1.604  11.885  23.378  0.00  0.00    +0.000 A 
ATOM     14  C   UNL     1      -1.087  13.070  22.832  0.00  0.00    +0.000 A 
ATOM     15  C   UNL     1      -0.148  12.948  21.789  0.00  0.00    +0.000 A 
ATOM     16  C   UNL     1       0.264  11.688  21.315  0.00  0.00    +0.000 A 
BRANCH  14  17
ATOM     17  C   UNL     1      -1.539  14.386  23.347  0.00  0.00    +0.000 A 
ATOM     18  C   UNL     1      -1.097  15.585  22.755  0.00  0.00    +0.000 A 
ATOM     19  C   UNL     1      -1.449  16.834  23.273  0.00  0.00    +0.000 A 
ATOM     20  C   UNL     1      -2.276  16.909  24.388  0.00  0.00    +0.000 A 
ATOM     21  C   UNL     1      -2.752  15.743  24.978  0.00  0.00    +0.000 A 
ATOM     22  C   UNL     1      -2.384  14.495  24.465  0.00  0.00    +0.000 A 
ENDBRANCH  14  17
ENDBRANCH   8  11
ENDBRANCH   3   7
BRANCH   1  24
ATOM     23  C   UNL     1       1.178   3.281  20.507  0.00  0.00    +0.000 C 
ATOM     24  O   UNL     1       2.189   4.246  20.772  0.00  0.00    +0.000 OA
ENDBRANCH   1  24
BRANCH   6  25
ATOM     25  O   UNL     1       3.312   4.482  18.121  0.00  0.00    +0.000 OA
BRANCH  25  26
ATOM     26  C   UNL     1       4.508   4.046  18.784  0.00  0.00    +0.000 C 
BRANCH  26  27
ATOM     27  C   UNL     1       5.505   5.187  19.030  0.00  0.00    +0.000 C 
BRANCH  27  28
ATOM     28  N   UNL     1       6.041   5.824  17.777  0.00  0.00    +0.000 NA
BRANCH  28  29
ATOM     29  C   UNL     1       7.420   6.363  18.007  0.00  0.00    +0.000 C 
ATOM     30  C   UNL     1       7.605   7.834  17.611  0.00  0.00    +0.000 C 
ATOM     31  C   UNL     1       8.096   6.080  19.357  0.00  0.00    +0.000 C 
ENDBRANCH  28  29
BRANCH  28  32
ATOM     32  C   UNL     1       5.863   4.902  16.613  0.00  0.00    +0.000 C 
ATOM     33  C   UNL     1       5.262   5.618  15.381  0.00  0.00    +0.000 C 
ATOM     34  C   UNL     1       7.153   4.239  16.105  0.00  0.00    +0.000 C 
ENDBRANCH  28  32
ENDBRANCH  27  28
ENDBRANCH  26  27
ENDBRANCH  25  26
ENDBRANCH   6  25
TORSDOF 10
ENDMDL
MODEL 4
REMARK VINA RESULT:      -7.3      2.163     11.901
REMARK  Name = 
REMARK  15 active torsions:
REMARK  status: ('A' for Active; 'I' for Inactive)
REMARK    1  A    between atoms: C_1  and  O_2
REMARK    2  A    between atoms: O_2  and  C_3
REMARK    3  A    between atoms: C_5  and  N_6
REMARK    4  A    between atoms: C_7  and  C_9
REMARK    5  A    between atoms: C_12  and  C_13
REMARK    6  A    between atoms: C_23  and  O_24
REMARK    7  A    between atoms: O_24  and  C_25
REMARK    8  A    between atoms: C_25  and  C_26
REMARK    9  A    between atoms: C_26  and  N_27
REMARK   10  A    between atoms: N_27  and  C_28
REMARK   11  A    between atoms: N_27  and  C_31
REMARK   12  A    between atoms: C_28  and  C_29
REMARK   13  A    between atoms: C_28  and  C_30
REMARK   14  A    between atoms: C_31  and  C_32
REMARK   15  A    between atoms: C_31  and  C_33
REMARK                            x       y       z     vdW  Elec       q    Type
REMARK                         _______ _______ _______ _____ _____    ______ ____
ROOT
ATOM      1  C   UNL     1       0.685  10.482  20.516  0.00  0.00    +0.000 A 
ATOM      2  C   UNL     1       1.261   9.713  19.486  0.00  0.00    +0.000 A 
ATOM      3  C   UNL     1       1.665   8.389  19.697  0.00  0.00    +0.000 A 
ATOM      4  C   UNL     1       1.462   7.819  20.948  0.00  0.00    +0.000 A 
ATOM      5  C   UNL     1       0.895   8.572  21.974  0.00  0.00    +0.000 A 
ATOM      6  C   UNL     1       0.542   9.921  21.792  0.00  0.00    +0.000 A 
ENDROOT
BRANCH   3   7
ATOM      7  N   UNL     1       2.261   7.565  18.718  0.00  0.00    +0.000 N 
ATOM      8  C   UNL     1       3.107   6.503  18.959  0.00  0.00    +0.000 C 
ATOM      9  O   UNL     1       3.367   6.031  20.061  0.00  0.00    +0.000 OA
ATOM     10  H   UNL     1       2.043   7.792  17.759  0.00  0.00    +0.000 HD
BRANCH   8  11
ATOM     11  C   UNL     1       3.784   5.906  17.774  0.00  0.00    +0.000 A 
ATOM     12  C   UNL     1       4.465   6.801  16.947  0.00  0.00    +0.000 A 
ATOM     13  C   UNL     1       5.118   6.350  15.799  0.00  0.00    +0.000 A 
ATOM     14  C   UNL     1       5.138   4.989  15.456  0.00  0.00    +0.000 A 
ATOM     15  C   UNL     1       4.450   4.097  16.301  0.00  0.00    +0.000 A 
ATOM     16  C   UNL     1       3.774   4.546  17.450  0.00  0.00    +0.000 A 
BRANCH  14  17
ATOM     17  C   UNL     1       5.856   4.539  14.237  0.00  0.00    +0.000 A 
ATOM     18  C   UNL     1       7.087   5.117  13.868  0.00  0.00    +0.000 A 
ATOM     19  C   UNL     1       7.740   4.761  12.685  0.00  0.00    +0.000 A 
ATOM     20  C   UNL     1       7.183   3.796  11.854  0.00  0.00    +0.000 A 
ATOM     21  C   UNL     1       5.983   3.188  12.205  0.00  0.00    +0.000 A 
ATOM     22  C   UNL     1       5.325   3.557  13.383  0.00  0.00    +0.000 A 
ENDBRANCH  14  17
ENDBRANCH   8  11
ENDBRANCH   3   7
BRANCH   1  24
ATOM     23  C   UNL     1       1.591  12.515  19.668  0.00  0.00    +0.000 C 
ATOM     24  O   UNL     1       0.479  11.798  20.192  0.00  0.00    +0.000 OA
ENDBRANCH   1  24
BRANCH   6  25
ATOM     25  O   UNL     1       0.119  10.711  22.844  0.00  0.00    +0.000 OA
BRANCH  25  26
ATOM     26  C   UNL     1      -1.276  11.040  22.771  0.00  0.00    +0.000 C 
BRANCH  26  27
ATOM     27  C   UNL     1      -1.573  12.485  23.195  0.00  0.00    +0.000 C 
BRANCH  27  28
ATOM     28  N   UNL     1      -2.739  13.114  22.481  0.00  0.00    +0.000 NA
BRANCH  28  29
ATOM     29  C   UNL     1      -4.032  12.555  22.990  0.00  0.00    +0.000 C 
ATOM     30  C   UNL     1      -4.180  12.573  24.518  0.00  0.00    +0.000 C 
ATOM     31  C   UNL     1      -5.337  13.010  22.318  0.00  0.00    +0.000 C 
ENDBRANCH  28  29
BRANCH  28  32
ATOM     32  C   UNL     1      -2.602  14.603  22.481  0.00  0.00    +0.000 C 
ATOM     33  C   UNL     1      -1.679  15.109  23.615  0.00  0.00    +0.000 C 
ATOM     34  C   UNL     1      -2.022  15.203  21.191  0.00  0.00    +0.000 C 
ENDBRANCH  28  32
ENDBRANCH  27  28
ENDBRANCH  26  27
ENDBRANCH  25  26
ENDBRANCH   6  25
TORSDOF 10
ENDMDL
MODEL 5
REMARK VINA RESULT:      -7.2      0.819      1.867
REMARK  Name = 
REMARK  15 active torsions:
REMARK  status: ('A' for Active; 'I' for Inactive)
REMARK    1  A    between atoms: C_1  and  O_2
REMARK    2  A    between atoms: O_2  and  C_3
REMARK    3  A    between atoms: C_5  and  N_6
REMARK    4  A    between atoms: C_7  and  C_9
REMARK    5  A    between atoms: C_12  and  C_13
REMARK    6  A    between atoms: C_23  and  O_24
REMARK    7  A    between atoms: O_24  and  C_25
REMARK    8  A    between atoms: C_25  and  C_26
REMARK    9  A    between atoms: C_26  and  N_27
REMARK   10  A    between atoms: N_27  and  C_28
REMARK   11  A    between atoms: N_27  and  C_31
REMARK   12  A    between atoms: C_28  and  C_29
REMARK   13  A    between atoms: C_28  and  C_30
REMARK   14  A    between atoms: C_31  and  C_32
REMARK   15  A    between atoms: C_31  and  C_33
REMARK                            x       y       z     vdW  Elec       q    Type
REMARK                         _______ _______ _______ _____ _____    ______ ____
ROOT
ATOM      1  C   UNL     1       2.078   5.912  20.159  0.00  0.00    +0.000 A 
ATOM      2  C   UNL     1       1.400   7.021  20.702  0.00  0.00    +0.000 A 
ATOM      3  C   UNL     1       1.365   8.255  20.041  0.00  0.00    +0.000 A 
ATOM      4  C   UNL     1       1.990   8.370  18.805  0.00  0.00    +0.000 A 
ATOM      5  C   UNL     1       2.665   7.279  18.260  0.00  0.00    +0.000 A 
ATOM      6  C   UNL     1       2.760   6.053  18.943  0.00  0.00    +0.000 A 
ENDROOT
BRANCH   3   7
ATOM      7  N   UNL     1       0.719   9.411  20.531  0.00  0.00    +0.000 N 
ATOM      8  C   UNL     1       0.828   9.920  21.808  0.00  0.00    +0.000 C 
ATOM      9  O   UNL     1       1.601   9.523  22.673  0.00  0.00    +0.000 OA
ATOM     10  H   UNL     1       0.123   9.893  19.875  0.00  0.00    +0.000 HD
BRANCH   8  11
ATOM     11  C   UNL     1      -0.103  11.026  22.167  0.00  0.00    +0.000 A 
ATOM     12  C   UNL     1      -1.139  10.691  23.040  0.00  0.00    +0.000 A 
ATOM     13  C   UNL     1      -2.079  11.648  23.426  0.00  0.00    +0.000 A 
ATOM     14  C   UNL     1      -1.998  12.975  22.978  0.00  0.00    +0.000 A 
ATOM     15  C   UNL     1      -0.946  13.301  22.100  0.00  0.00    +0.000 A 
ATOM     16  C   UNL     1      -0.005  12.337  21.692  0.00  0.00    +0.000 A 
BRANCH  14  17
ATOM     17  C   UNL     1      -3.004  13.973  23.421  0.00  0.00    +0.000 A 
ATOM     18  C   UNL     1      -4.303  13.981  22.877  0.00  0.00    +0.000 A 
ATOM     19  C   UNL     1      -5.239  14.959  23.224  0.00  0.00    +0.000 A 
ATOM     20  C   UNL     1      -4.899  15.941  24.147  0.00  0.00    +0.000 A 
ATOM     21  C   UNL     1      -3.633  15.943  24.722  0.00  0.00    +0.000 A 
ATOM     22  C   UNL     1      -2.694  14.971  24.361  0.00  0.00    +0.000 A 
ENDBRANCH  14  17
ENDBRANCH   8  11
ENDBRANCH   3   7
BRANCH   1  24
ATOM     23  C   UNL     1       1.222   3.768  20.745  0.00  0.00    +0.000 C 
ATOM     24  O   UNL     1       2.143   4.825  20.991  0.00  0.00    +0.000 OA
ENDBRANCH   1  24
BRANCH   6  25
ATOM     25  O   UNL     1       3.550   5.020  18.477  0.00  0.00    +0.000 OA
BRANCH  25  26
ATOM     26  C   UNL     1       4.834   4.967  19.116  0.00  0.00    +0.000 C 
BRANCH  26  27
ATOM     27  C   UNL     1       5.887   4.221  18.283  0.00  0.00    +0.000 C 
BRANCH  27  28
ATOM     28  N   UNL     1       6.683   5.101  17.358  0.00  0.00    +0.000 NA
BRANCH  28  29
ATOM     29  C   UNL     1       6.014   5.203  16.022  0.00  0.00    +0.000 C 
ATOM     30  C   UNL     1       5.203   6.488  15.811  0.00  0.00    +0.000 C 
ATOM     31  C   UNL     1       6.839   4.874  14.768  0.00  0.00    +0.000 C 
ENDBRANCH  28  29
BRANCH  28  32
ATOM     32  C   UNL     1       7.029   6.386  18.040  0.00  0.00    +0.000 C 
ATOM     33  C   UNL     1       8.015   6.183  19.214  0.00  0.00    +0.000 C 
ATOM     34  C   UNL     1       7.685   7.444  17.139  0.00  0.00    +0.000 C 
ENDBRANCH  28  32
ENDBRANCH  27  28
ENDBRANCH  26  27
ENDBRANCH  25  26
ENDBRANCH   6  25
TORSDOF 10
ENDMDL
MODEL 6
REMARK VINA RESULT:      -7.2      1.375      2.460
REMARK  Name = 
REMARK  15 active torsions:
REMARK  status: ('A' for Active; 'I' for Inactive)
REMARK    1  A    between atoms: C_1  and  O_2
REMARK    2  A    between atoms: O_2  and  C_3
REMARK    3  A    between atoms: C_5  and  N_6
REMARK    4  A    between atoms: C_7  and  C_9
REMARK    5  A    between atoms: C_12  and  C_13
REMARK    6  A    between atoms: C_23  and  O_24
REMARK    7  A    between atoms: O_24  and  C_25
REMARK    8  A    between atoms: C_25  and  C_26
REMARK    9  A    between atoms: C_26  and  N_27
REMARK   10  A    between atoms: N_27  and  C_28
REMARK   11  A    between atoms: N_27  and  C_31
REMARK   12  A    between atoms: C_28  and  C_29
REMARK   13  A    between atoms: C_28  and  C_30
REMARK   14  A    between atoms: C_31  and  C_32
REMARK   15  A    between atoms: C_31  and  C_33
REMARK                            x       y       z     vdW  Elec       q    Type
REMARK                         _______ _______ _______ _____ _____    ______ ____
ROOT
ATOM      1  C   UNL     1       2.104   5.090  20.268  0.00  0.00    +0.000 A 
ATOM      2  C   UNL     1       1.672   6.268  20.907  0.00  0.00    +0.000 A 
ATOM      3  C   UNL     1       1.679   7.505  20.250  0.00  0.00    +0.000 A 
ATOM      4  C   UNL     1       2.096   7.556  18.925  0.00  0.00    +0.000 A 
ATOM      5  C   UNL     1       2.528   6.396  18.284  0.00  0.00    +0.000 A 
ATOM      6  C   UNL     1       2.584   5.160  18.953  0.00  0.00    +0.000 A 
ENDROOT
BRANCH   3   7
ATOM      7  N   UNL     1       1.275   8.726  20.831  0.00  0.00    +0.000 N 
ATOM      8  C   UNL     1       0.090   8.953  21.498  0.00  0.00    +0.000 C 
ATOM      9  O   UNL     1      -0.735   8.098  21.802  0.00  0.00    +0.000 OA
ATOM     10  H   UNL     1       1.921   9.495  20.734  0.00  0.00    +0.000 HD
BRANCH   8  11
ATOM     11  C   UNL     1      -0.222  10.368  21.845  0.00  0.00    +0.000 A 
ATOM     12  C   UNL     1       0.405  11.339  21.062  0.00  0.00    +0.000 A 
ATOM     13  C   UNL     1       0.198  12.696  21.314  0.00  0.00    +0.000 A 
ATOM     14  C   UNL     1      -0.664  13.127  22.335  0.00  0.00    +0.000 A 
ATOM     15  C   UNL     1      -1.292  12.137  23.115  0.00  0.00    +0.000 A 
ATOM     16  C   UNL     1      -1.074  10.767  22.878  0.00  0.00    +0.000 A 
BRANCH  14  17
ATOM     17  C   UNL     1      -0.876  14.578  22.567  0.00  0.00    +0.000 A 
ATOM     18  C   UNL     1       0.204  15.481  22.534  0.00  0.00    +0.000 A 
ATOM     19  C   UNL     1       0.036  16.837  22.825  0.00  0.00    +0.000 A 
ATOM     20  C   UNL     1      -1.229  17.325  23.133  0.00  0.00    +0.000 A 
ATOM     21  C   UNL     1      -2.320  16.463  23.146  0.00  0.00    +0.000 A 
ATOM     22  C   UNL     1      -2.145  15.103  22.868  0.00  0.00    +0.000 A 
ENDBRANCH  14  17
ENDBRANCH   8  11
ENDBRANCH   3   7
BRANCH   1  24
ATOM     23  C   UNL     1       1.194   2.980  20.893  0.00  0.00    +0.000 C 
ATOM     24  O   UNL     1       2.173   3.994  21.088  0.00  0.00    +0.000 OA
ENDBRANCH   1  24
BRANCH   6  25
ATOM     25  O   UNL     1       3.149   4.042  18.370  0.00  0.00    +0.000 OA
BRANCH  25  26
ATOM     26  C   UNL     1       4.513   3.835  18.765  0.00  0.00    +0.000 C 
BRANCH  26  27
ATOM     27  C   UNL     1       5.396   5.071  18.540  0.00  0.00    +0.000 C 
BRANCH  27  28
ATOM     28  N   UNL     1       6.547   4.848  17.597  0.00  0.00    +0.000 NA
BRANCH  28  29
ATOM     29  C   UNL     1       6.081   4.903  16.174  0.00  0.00    +0.000 C 
ATOM     30  C   UNL     1       5.132   6.067  15.857  0.00  0.00    +0.000 C 
ATOM     31  C   UNL     1       7.125   4.741  15.059  0.00  0.00    +0.000 C 
ENDBRANCH  28  29
BRANCH  28  32
ATOM     32  C   UNL     1       7.694   5.733  17.965  0.00  0.00    +0.000 C 
ATOM     33  C   UNL     1       7.422   7.219  17.632  0.00  0.00    +0.000 C 
ATOM     34  C   UNL     1       8.078   5.717  19.453  0.00  0.00    +0.000 C 
ENDBRANCH  28  32
ENDBRANCH  27  28
ENDBRANCH  26  27
ENDBRANCH  25  26
ENDBRANCH   6  25
TORSDOF 10
ENDMDL
MODEL 7
REMARK VINA RESULT:      -7.1      1.220      2.254
REMARK  Name = 
REMARK  15 active torsions:
REMARK  status: ('A' for Active; 'I' for Inactive)
REMARK    1  A    between atoms: C_1  and  O_2
REMARK    2  A    between atoms: O_2  and  C_3
REMARK    3  A    between atoms: C_5  and  N_6
REMARK    4  A    between atoms: C_7  and  C_9
REMARK    5  A    between atoms: C_12  and  C_13
REMARK    6  A    between atoms: C_23  and  O_24
REMARK    7  A    between atoms: O_24  and  C_25
REMARK    8  A    between atoms: C_25  and  C_26
REMARK    9  A    between atoms: C_26  and  N_27
REMARK   10  A    between atoms: N_27  and  C_28
REMARK   11  A    between atoms: N_27  and  C_31
REMARK   12  A    between atoms: C_28  and  C_29
REMARK   13  A    between atoms: C_28  and  C_30
REMARK   14  A    between atoms: C_31  and  C_32
REMARK   15  A    between atoms: C_31  and  C_33
REMARK                            x       y       z     vdW  Elec       q    Type
REMARK                         _______ _______ _______ _____ _____    ______ ____
ROOT
ATOM      1  C   UNL     1       2.290   4.682  20.526  0.00  0.00    +0.000 A 
ATOM      2  C   UNL     1       1.507   5.719  21.068  0.00  0.00    +0.000 A 
ATOM      3  C   UNL     1       1.603   7.035  20.598  0.00  0.00    +0.000 A 
ATOM      4  C   UNL     1       2.473   7.307  19.548  0.00  0.00    +0.000 A 
ATOM      5  C   UNL     1       3.253   6.288  19.005  0.00  0.00    +0.000 A 
ATOM      6  C   UNL     1       3.210   4.976  19.511  0.00  0.00    +0.000 A 
ENDROOT
BRANCH   3   7
ATOM      7  N   UNL     1       0.863   8.126  21.102  0.00  0.00    +0.000 N 
ATOM      8  C   UNL     1       0.746   9.367  20.514  0.00  0.00    +0.000 C 
ATOM      9  O   UNL     1       1.160   9.673  19.400  0.00  0.00    +0.000 OA
ATOM     10  H   UNL     1       0.387   7.967  21.978  0.00  0.00    +0.000 HD
BRANCH   8  11
ATOM     11  C   UNL     1       0.090  10.431  21.324  0.00  0.00    +0.000 A 
ATOM     12  C   UNL     1       0.326  11.743  20.911  0.00  0.00    +0.000 A 
ATOM     13  C   UNL     1      -0.225  12.818  21.612  0.00  0.00    +0.000 A 
ATOM     14  C   UNL     1      -1.052  12.616  22.728  0.00  0.00    +0.000 A 
ATOM     15  C   UNL     1      -1.285  11.287  23.131  0.00  0.00    +0.000 A 
ATOM     16  C   UNL     1      -0.718  10.199  22.441  0.00  0.00    +0.000 A 
BRANCH  14  17
ATOM     17  C   UNL     1      -1.637  13.779  23.441  0.00  0.00    +0.000 A 
ATOM     18  C   UNL     1      -0.908  14.974  23.594  0.00  0.00    +0.000 A 
ATOM     19  C   UNL     1      -1.410  16.052  24.327  0.00  0.00    +0.000 A 
ATOM     20  C   UNL     1      -2.671  15.964  24.906  0.00  0.00    +0.000 A 
ATOM     21  C   UNL     1      -3.427  14.807  24.749  0.00  0.00    +0.000 A 
ATOM     22  C   UNL     1      -2.914  13.725  24.026  0.00  0.00    +0.000 A 
ENDBRANCH  14  17
ENDBRANCH   8  11
ENDBRANCH   3   7
BRANCH   1  24
ATOM     23  C   UNL     1       1.262   2.538  20.669  0.00  0.00    +0.000 C 
ATOM     24  O   UNL     1       2.186   3.488  21.190  0.00  0.00    +0.000 OA
ENDBRANCH   1  24
BRANCH   6  25
ATOM     25  O   UNL     1       4.087   4.001  19.077  0.00  0.00    +0.000 OA
BRANCH  25  26
ATOM     26  C   UNL     1       5.436   4.475  18.958  0.00  0.00    +0.000 C 
BRANCH  26  27
ATOM     27  C   UNL     1       6.050   4.193  17.579  0.00  0.00    +0.000 C 
BRANCH  27  28
ATOM     28  N   UNL     1       6.987   5.263  17.087  0.00  0.00    +0.000 NA
BRANCH  28  29
ATOM     29  C   UNL     1       6.597   5.715  15.713  0.00  0.00    +0.000 C 
ATOM     30  C   UNL     1       6.991   4.749  14.586  0.00  0.00    +0.000 C 
ATOM     31  C   UNL     1       5.169   6.239  15.497  0.00  0.00    +0.000 C 
ENDBRANCH  28  29
BRANCH  28  32
ATOM     32  C   UNL     1       7.148   6.326  18.126  0.00  0.00    +0.000 C 
ATOM     33  C   UNL     1       8.166   5.929  19.220  0.00  0.00    +0.000 C 
ATOM     34  C   UNL     1       7.632   7.685  17.597  0.00  0.00    +0.000 C 
ENDBRANCH  28  32
ENDBRANCH  27  28
ENDBRANCH  26  27
ENDBRANCH  25  26
ENDBRANCH   6  25
TORSDOF 10
ENDMDL
MODEL 8
REMARK VINA RESULT:      -7.1      3.146     11.864
REMARK  Name = 
REMARK  15 active torsions:
REMARK  status: ('A' for Active; 'I' for Inactive)
REMARK    1  A    between atoms: C_1  and  O_2
REMARK    2  A    between atoms: O_2  and  C_3
REMARK    3  A    between atoms: C_5  and  N_6
REMARK    4  A    between atoms: C_7  and  C_9
REMARK    5  A    between atoms: C_12  and  C_13
REMARK    6  A    between atoms: C_23  and  O_24
REMARK    7  A    between atoms: O_24  and  C_25
REMARK    8  A    between atoms: C_25  and  C_26
REMARK    9  A    between atoms: C_26  and  N_27
REMARK   10  A    between atoms: N_27  and  C_28
REMARK   11  A    between atoms: N_27  and  C_31
REMARK   12  A    between atoms: C_28  and  C_29
REMARK   13  A    between atoms: C_28  and  C_30
REMARK   14  A    between atoms: C_31  and  C_32
REMARK   15  A    between atoms: C_31  and  C_33
REMARK                            x       y       z     vdW  Elec       q    Type
REMARK                         _______ _______ _______ _____ _____    ______ ____
ROOT
ATOM      1  C   UNL     1      -0.706  14.630  22.223  0.00  0.00    +0.000 A 
ATOM      2  C   UNL     1       0.027  13.692  21.471  0.00  0.00    +0.000 A 
ATOM      3  C   UNL     1      -0.076  12.316  21.712  0.00  0.00    +0.000 A 
ATOM      4  C   UNL     1      -0.949  11.874  22.699  0.00  0.00    +0.000 A 
ATOM      5  C   UNL     1      -1.678  12.795  23.450  0.00  0.00    +0.000 A 
ATOM      6  C   UNL     1      -1.535  14.181  23.259  0.00  0.00    +0.000 A 
ENDROOT
BRANCH   3   7
ATOM      7  N   UNL     1       0.637  11.320  21.010  0.00  0.00    +0.000 N 
ATOM      8  C   UNL     1       0.167  10.589  19.940  0.00  0.00    +0.000 C 
ATOM      9  O   UNL     1      -0.893  10.780  19.353  0.00  0.00    +0.000 OA
ATOM     10  H   UNL     1       1.574  11.135  21.338  0.00  0.00    +0.000 HD
BRANCH   8  11
ATOM     11  C   UNL     1       1.011   9.448  19.488  0.00  0.00    +0.000 A 
ATOM     12  C   UNL     1       1.409   9.476  18.151  0.00  0.00    +0.000 A 
ATOM     13  C   UNL     1       2.185   8.445  17.619  0.00  0.00    +0.000 A 
ATOM     14  C   UNL     1       2.614   7.369  18.412  0.00  0.00    +0.000 A 
ATOM     15  C   UNL     1       2.208   7.355  19.761  0.00  0.00    +0.000 A 
ATOM     16  C   UNL     1       1.410   8.381  20.299  0.00  0.00    +0.000 A 
BRANCH  14  17
ATOM     17  C   UNL     1       3.454   6.297  17.821  0.00  0.00    +0.000 A 
ATOM     18  C   UNL     1       4.607   6.611  17.076  0.00  0.00    +0.000 A 
ATOM     19  C   UNL     1       5.367   5.621  16.447  0.00  0.00    +0.000 A 
ATOM     20  C   UNL     1       4.999   4.286  16.573  0.00  0.00    +0.000 A 
ATOM     21  C   UNL     1       3.882   3.943  17.326  0.00  0.00    +0.000 A 
ATOM     22  C   UNL     1       3.115   4.938  17.941  0.00  0.00    +0.000 A 
ENDBRANCH  14  17
ENDBRANCH   8  11
ENDBRANCH   3   7
BRANCH   1  24
ATOM     23  C   UNL     1       0.521  16.179  20.893  0.00  0.00    +0.000 C 
ATOM     24  O   UNL     1      -0.385  15.937  21.964  0.00  0.00    +0.000 OA
ENDBRANCH   1  24
BRANCH   6  25
ATOM     25  O   UNL     1      -2.141  15.096  24.098  0.00  0.00    +0.000 OA
BRANCH  25  26
ATOM     26  C   UNL     1      -3.440  14.676  24.539  0.00  0.00    +0.000 C 
BRANCH  26  27
ATOM     27  C   UNL     1      -4.571  15.569  24.008  0.00  0.00    +0.000 C 
BRANCH  27  28
ATOM     28  N   UNL     1      -5.505  14.882  23.048  0.00  0.00    +0.000 NA
BRANCH  28  29
ATOM     29  C   UNL     1      -5.343  15.437  21.666  0.00  0.00    +0.000 C 
ATOM     30  C   UNL     1      -6.611  16.073  21.081  0.00  0.00    +0.000 C 
ATOM     31  C   UNL     1      -4.117  16.315  21.373  0.00  0.00    +0.000 C 
ENDBRANCH  28  29
BRANCH  28  32
ATOM     32  C   UNL     1      -5.395  13.398  23.195  0.00  0.00    +0.000 C 
ATOM     33  C   UNL     1      -6.675  12.770  23.795  0.00  0.00    +0.000 C 
ATOM     34  C   UNL     1      -5.144  12.631  21.888  0.00  0.00    +0.000 C 
ENDBRANCH  28  32
ENDBRANCH  27  28
ENDBRANCH  26  27
ENDBRANCH  25  26
ENDBRANCH   6  25
TORSDOF 10
ENDMDL
MODEL 9
REMARK VINA RESULT:      -7.1      0.969      1.213
REMARK  Name = 
REMARK  15 active torsions:
REMARK  status: ('A' for Active; 'I' for Inactive)
REMARK    1  A    between atoms: C_1  and  O_2
REMARK    2  A    between atoms: O_2  and  C_3
REMARK    3  A    between atoms: C_5  and  N_6
REMARK    4  A    between atoms: C_7  and  C_9
REMARK    5  A    between atoms: C_12  and  C_13
REMARK    6  A    between atoms: C_23  and  O_24
REMARK    7  A    between atoms: O_24  and  C_25
REMARK    8  A    between atoms: C_25  and  C_26
REMARK    9  A    between atoms: C_26  and  N_27
REMARK   10  A    between atoms: N_27  and  C_28
REMARK   11  A    between atoms: N_27  and  C_31
REMARK   12  A    between atoms: C_28  and  C_29
REMARK   13  A    between atoms: C_28  and  C_30
REMARK   14  A    between atoms: C_31  and  C_32
REMARK   15  A    between atoms: C_31  and  C_33
REMARK                            x       y       z     vdW  Elec       q    Type
REMARK                         _______ _______ _______ _____ _____    ______ ____
ROOT
ATOM      1  C   UNL     1       2.370   4.584  20.291  0.00  0.00    +0.000 A 
ATOM      2  C   UNL     1       1.817   5.795  20.752  0.00  0.00    +0.000 A 
ATOM      3  C   UNL     1       1.684   6.908  19.913  0.00  0.00    +0.000 A 
ATOM      4  C   UNL     1       2.082   6.796  18.586  0.00  0.00    +0.000 A 
ATOM      5  C   UNL     1       2.633   5.603  18.120  0.00  0.00    +0.000 A 
ATOM      6  C   UNL     1       2.828   4.499  18.970  0.00  0.00    +0.000 A 
ENDROOT
BRANCH   3   7
ATOM      7  N   UNL     1       1.154   8.155  20.309  0.00  0.00    +0.000 N 
ATOM      8  C   UNL     1       1.349   8.768  21.528  0.00  0.00    +0.000 C 
ATOM      9  O   UNL     1       2.117   8.387  22.406  0.00  0.00    +0.000 OA
ATOM     10  H   UNL     1       0.576   8.624  19.627  0.00  0.00    +0.000 HD
BRANCH   8  11
ATOM     11  C   UNL     1       0.526   9.978  21.807  0.00  0.00    +0.000 A 
ATOM     12  C   UNL     1      -0.409   9.854  22.835  0.00  0.00    +0.000 A 
ATOM     13  C   UNL     1      -1.246  10.922  23.166  0.00  0.00    +0.000 A 
ATOM     14  C   UNL     1      -1.156  12.155  22.501  0.00  0.00    +0.000 A 
ATOM     15  C   UNL     1      -0.205  12.267  21.468  0.00  0.00    +0.000 A 
ATOM     16  C   UNL     1       0.629  11.189  21.117  0.00  0.00    +0.000 A 
BRANCH  14  17
ATOM     17  C   UNL     1      -2.048  13.276  22.888  0.00  0.00    +0.000 A 
ATOM     18  C   UNL     1      -1.605  14.282  23.769  0.00  0.00    +0.000 A 
ATOM     19  C   UNL     1      -2.454  15.302  24.206  0.00  0.00    +0.000 A 
ATOM     20  C   UNL     1      -3.765  15.351  23.747  0.00  0.00    +0.000 A 
ATOM     21  C   UNL     1      -4.223  14.388  22.854  0.00  0.00    +0.000 A 
ATOM     22  C   UNL     1      -3.375  13.360  22.432  0.00  0.00    +0.000 A 
ENDBRANCH  14  17
ENDBRANCH   8  11
ENDBRANCH   3   7
BRANCH   1  24
ATOM     23  C   UNL     1       1.440   2.852  21.634  0.00  0.00    +0.000 C 
ATOM     24  O   UNL     1       2.564   3.643  21.268  0.00  0.00    +0.000 OA
ENDBRANCH   1  24
BRANCH   6  25
ATOM     25  O   UNL     1       3.506   3.371  18.551  0.00  0.00    +0.000 OA
BRANCH  25  26
ATOM     26  C   UNL     1       4.739   3.677  17.883  0.00  0.00    +0.000 C 
BRANCH  26  27
ATOM     27  C   UNL     1       5.548   4.774  18.591  0.00  0.00    +0.000 C 
BRANCH  27  28
ATOM     28  N   UNL     1       6.047   5.863  17.681  0.00  0.00    +0.000 NA
BRANCH  28  29
ATOM     29  C   UNL     1       7.454   6.240  18.031  0.00  0.00    +0.000 C 
ATOM     30  C   UNL     1       7.791   7.721  17.813  0.00  0.00    +0.000 C 
ATOM     31  C   UNL     1       8.028   5.747  19.368  0.00  0.00    +0.000 C 
ENDBRANCH  28  29
BRANCH  28  32
ATOM     32  C   UNL     1       5.780   5.504  16.254  0.00  0.00    +0.000 C 
ATOM     33  C   UNL     1       5.113   6.659  15.471  0.00  0.00    +0.000 C 
ATOM     34  C   UNL     1       7.024   5.127  15.434  0.00  0.00    +0.000 C 
ENDBRANCH  28  32
ENDBRANCH  27  28
ENDBRANCH  26  27
ENDBRANCH  25  26
ENDBRANCH   6  25
TORSDOF 10
ENDMDL
