MODEL 1
REMARK VINA RESULT:      -8.4      0.000      0.000
REMARK  Name = 
REMARK  7 active torsions:
REMARK  status: ('A' for Active; 'I' for Inactive)
REMARK    1  A    between atoms: C_1  and  C_2
REMARK    2  A    between atoms: C_7  and  O_8
REMARK    3  A    between atoms: O_8  and  C_9
REMARK    4  A    between atoms: C_12  and  N_13
REMARK    5  A    between atoms: N_19  and  C_20
REMARK    6  A    between atoms: C_24  and  C_25
REMARK    7  A    between atoms: C_31  and  C_32
REMARK                            x       y       z     vdW  Elec       q    Type
REMARK                         _______ _______ _______ _____ _____    ______ ____
ROOT
ATOM      1  N   UNL     1      -1.177   9.956  17.637  0.00  0.00    +0.000 N 
ATOM      2  C   UNL     1      -2.273  10.198  16.777  0.00  0.00    +0.000 A 
ATOM      3  C   UNL     1      -2.207   9.785  15.468  0.00  0.00    +0.000 A 
ATOM      4  C   UNL     1      -3.266  10.147  14.668  0.00  0.00    +0.000 A 
ATOM      5  N   UNL     1      -4.340  10.827  15.111  0.00  0.00    +0.000 NA
ATOM      6  C   UNL     1      -4.357  11.127  16.414  0.00  0.00    +0.000 A 
ATOM      7  N   UNL     1      -5.469  11.798  16.919  0.00  0.00    +0.000 N 
ATOM      8  N   UNL     1      -3.352  10.832  17.251  0.00  0.00    +0.000 NA
ATOM      9  H   UNL     1      -1.050   8.957  17.759  0.00  0.00    +0.000 HD
ATOM     10  H   UNL     1      -6.115  12.060  16.188  0.00  0.00    +0.000 HD
ENDROOT
BRANCH   1  14
ATOM     11  C   UNL     1      -0.261  12.185  21.125  0.00  0.00    +0.000 A 
ATOM     12  C   UNL     1      -0.131  10.786  21.103  0.00  0.00    +0.000 A 
ATOM     13  C   UNL     1      -0.450  10.055  19.956  0.00  0.00    +0.000 A 
ATOM     14  C   UNL     1      -0.858  10.704  18.792  0.00  0.00    +0.000 A 
ATOM     15  C   UNL     1      -0.808  12.109  18.784  0.00  0.00    +0.000 A 
ATOM     16  C   UNL     1      -0.506  12.870  19.933  0.00  0.00    +0.000 A 
BRANCH  16  17
ATOM     17  C   UNL     1      -0.447  14.365  19.783  0.00  0.00    +0.000 C 
ATOM     18  F   UNL     1       0.610  14.977  20.384  0.00  0.00    +0.000 F 
ATOM     19  F   UNL     1      -0.377  14.737  18.469  0.00  0.00    +0.000 F 
ATOM     20  F   UNL     1      -1.559  14.984  20.274  0.00  0.00    +0.000 F 
ENDBRANCH  16  17
BRANCH  11  21
ATOM     21  O   UNL     1      -0.181  12.884  22.326  0.00  0.00    +0.000 OA
BRANCH  21  28
ATOM     22  C   UNL     1      -0.538  15.525  23.489  0.00  0.00    +0.000 C 
ATOM     23  C   UNL     1      -1.538  14.412  23.610  0.00  0.00    +0.000 A 
ATOM     24  C   UNL     1      -2.661  14.599  24.439  0.00  0.00    +0.000 A 
ATOM     25  C   UNL     1      -3.631  13.606  24.574  0.00  0.00    +0.000 A 
ATOM     26  C   UNL     1      -3.534  12.439  23.830  0.00  0.00    +0.000 A 
ATOM     27  C   UNL     1      -2.436  12.244  22.996  0.00  0.00    +0.000 A 
ATOM     28  C   UNL     1      -1.385  13.176  22.960  0.00  0.00    +0.000 A 
ENDBRANCH  21  28
ENDBRANCH  11  21
ENDBRANCH   1  14
BRANCH   7  29
ATOM     29  C   UNL     1      -5.976  11.740  18.228  0.00  0.00    +0.000 A 
ATOM     30  C   UNL     1      -5.880  12.861  19.060  0.00  0.00    +0.000 A 
ATOM     31  C   UNL     1      -6.304  12.801  20.390  0.00  0.00    +0.000 A 
ATOM     32  C   UNL     1      -6.845  11.620  20.899  0.00  0.00    +0.000 A 
ATOM     33  C   UNL     1      -6.956  10.493  20.078  0.00  0.00    +0.000 A 
ATOM     34  C   UNL     1      -6.528  10.563  18.751  0.00  0.00    +0.000 A 
BRANCH  33  35
ATOM     35  C   UNL     1      -7.530   9.246  20.649  0.00  0.00    +0.000 C 
ATOM     36  N   UNL     1      -7.916   9.268  21.963  0.00  0.00    +0.000 N 
ATOM     37  O   UNL     1      -7.670   8.233  19.978  0.00  0.00    +0.000 OA
ATOM     38  H   UNL     1      -8.038  10.133  22.470  0.00  0.00    +0.000 HD
ATOM     39  H   UNL     1      -8.389   8.440  22.304  0.00  0.00    +0.000 HD
ENDBRANCH  33  35
ENDBRANCH   7  29
TORSDOF 6
ENDMDL
MODEL 2
REMARK VINA RESULT:      -8.1      1.489      1.861
REMARK  Name = 
REMARK  7 active torsions:
REMARK  status: ('A' for Active; 'I' for Inactive)
REMARK    1  A    between atoms: C_1  and  C_2
REMARK    2  A    between atoms: C_7  and  O_8
REMARK    3  A    between atoms: O_8  and  C_9
REMARK    4  A    between atoms: C_12  and  N_13
REMARK    5  A    between atoms: N_19  and  C_20
REMARK    6  A    between atoms: C_24  and  C_25
REMARK    7  A    between atoms: C_31  and  C_32
REMARK                            x       y       z     vdW  Elec       q    Type
REMARK                         _______ _______ _______ _____ _____    ______ ____
ROOT
ATOM      1  N   UNL     1      -1.130   9.984  17.609  0.00  0.00    +0.000 N 
ATOM      2  C   UNL     1      -2.249  10.207  16.774  0.00  0.00    +0.000 A 
ATOM      3  C   UNL     1      -2.199   9.809  15.459  0.00  0.00    +0.000 A 
ATOM      4  C   UNL     1      -3.283  10.153  14.685  0.00  0.00    +0.000 A 
ATOM      5  N   UNL     1      -4.365  10.801  15.156  0.00  0.00    +0.000 NA
ATOM      6  C   UNL     1      -4.362  11.088  16.462  0.00  0.00    +0.000 A 
ATOM      7  N   UNL     1      -5.480  11.727  16.996  0.00  0.00    +0.000 N 
ATOM      8  N   UNL     1      -3.333  10.810  17.276  0.00  0.00    +0.000 NA
ATOM      9  H   UNL     1      -0.977   8.988  17.718  0.00  0.00    +0.000 HD
ATOM     10  H   UNL     1      -6.147  11.980  16.282  0.00  0.00    +0.000 HD
ENDROOT
BRANCH   1  14
ATOM     11  C   UNL     1      -0.198  12.201  21.101  0.00  0.00    +0.000 A 
ATOM     12  C   UNL     1      -0.057  10.804  21.069  0.00  0.00    +0.000 A 
ATOM     13  C   UNL     1      -0.381  10.076  19.921  0.00  0.00    +0.000 A 
ATOM     14  C   UNL     1      -0.806  10.728  18.766  0.00  0.00    +0.000 A 
ATOM     15  C   UNL     1      -0.768  12.134  18.765  0.00  0.00    +0.000 A 
ATOM     16  C   UNL     1      -0.461  12.891  19.914  0.00  0.00    +0.000 A 
BRANCH  16  17
ATOM     17  C   UNL     1      -0.414  14.387  19.772  0.00  0.00    +0.000 C 
ATOM     18  F   UNL     1       0.644  15.004  20.365  0.00  0.00    +0.000 F 
ATOM     19  F   UNL     1      -0.363  14.767  18.460  0.00  0.00    +0.000 F 
ATOM     20  F   UNL     1      -1.526  14.995  20.279  0.00  0.00    +0.000 F 
ENDBRANCH  16  17
BRANCH  11  21
ATOM     21  O   UNL     1      -0.112  12.895  22.304  0.00  0.00    +0.000 OA
BRANCH  21  28
ATOM     22  C   UNL     1      -0.504  15.545  23.433  0.00  0.00    +0.000 C 
ATOM     23  C   UNL     1      -1.480  14.415  23.585  0.00  0.00    +0.000 A 
ATOM     24  C   UNL     1      -2.594  14.594  24.429  0.00  0.00    +0.000 A 
ATOM     25  C   UNL     1      -3.543  13.584  24.593  0.00  0.00    +0.000 A 
ATOM     26  C   UNL     1      -3.434  12.408  23.864  0.00  0.00    +0.000 A 
ATOM     27  C   UNL     1      -2.345  12.221  23.017  0.00  0.00    +0.000 A 
ATOM     28  C   UNL     1      -1.313  13.173  22.951  0.00  0.00    +0.000 A 
ENDBRANCH  21  28
ENDBRANCH  11  21
ENDBRANCH   1  14
BRANCH   7  29
ATOM     29  C   UNL     1      -5.958  11.644  18.315  0.00  0.00    +0.000 A 
ATOM     30  C   UNL     1      -6.788  10.581  18.688  0.00  0.00    +0.000 A 
ATOM     31  C   UNL     1      -7.339  10.523  19.971  0.00  0.00    +0.000 A 
ATOM     32  C   UNL     1      -7.052  11.521  20.901  0.00  0.00    +0.000 A 
ATOM     33  C   UNL     1      -6.217  12.585  20.548  0.00  0.00    +0.000 A 
ATOM     34  C   UNL     1      -5.673  12.636  19.263  0.00  0.00    +0.000 A 
BRANCH  33  35
ATOM     35  C   UNL     1      -5.933  13.639  21.558  0.00  0.00    +0.000 C 
ATOM     36  N   UNL     1      -4.941  14.539  21.274  0.00  0.00    +0.000 N 
ATOM     37  O   UNL     1      -6.564  13.720  22.603  0.00  0.00    +0.000 OA
ATOM     38  H   UNL     1      -4.570  14.651  20.341  0.00  0.00    +0.000 HD
ATOM     39  H   UNL     1      -4.828  15.302  21.931  0.00  0.00    +0.000 HD
ENDBRANCH  33  35
ENDBRANCH   7  29
TORSDOF 6
ENDMDL
MODEL 3
REMARK VINA RESULT:      -8.0      2.450      5.491
REMARK  Name = 
REMARK  7 active torsions:
REMARK  status: ('A' for Active; 'I' for Inactive)
REMARK    1  A    between atoms: C_1  and  C_2
REMARK    2  A    between atoms: C_7  and  O_8
REMARK    3  A    between atoms: O_8  and  C_9
REMARK    4  A    between atoms: C_12  and  N_13
REMARK    5  A    between atoms: N_19  and  C_20
REMARK    6  A    between atoms: C_24  and  C_25
REMARK    7  A    between atoms: C_31  and  C_32
REMARK                            x       y       z     vdW  Elec       q    Type
REMARK                         _______ _______ _______ _____ _____    ______ ____
ROOT
ATOM      1  N   UNL     1      -4.898  10.942  17.752  0.00  0.00    +0.000 N 
ATOM      2  C   UNL     1      -5.783  11.855  18.369  0.00  0.00    +0.000 A 
ATOM      3  C   UNL     1      -7.002  12.113  17.786  0.00  0.00    +0.000 A 
ATOM      4  C   UNL     1      -7.763  13.088  18.388  0.00  0.00    +0.000 A 
ATOM      5  N   UNL     1      -7.394  13.743  19.505  0.00  0.00    +0.000 NA
ATOM      6  C   UNL     1      -6.227  13.381  20.047  0.00  0.00    +0.000 A 
ATOM      7  N   UNL     1      -5.827  14.010  21.225  0.00  0.00    +0.000 N 
ATOM      8  N   UNL     1      -5.417  12.460  19.506  0.00  0.00    +0.000 NA
ATOM      9  H   UNL     1      -5.308  10.015  17.750  0.00  0.00    +0.000 HD
ATOM     10  H   UNL     1      -6.457  14.754  21.487  0.00  0.00    +0.000 HD
ENDROOT
BRANCH   1  14
ATOM     11  C   UNL     1      -0.686  10.873  18.232  0.00  0.00    +0.000 A 
ATOM     12  C   UNL     1      -1.353   9.859  17.525  0.00  0.00    +0.000 A 
ATOM     13  C   UNL     1      -2.743   9.878  17.383  0.00  0.00    +0.000 A 
ATOM     14  C   UNL     1      -3.493  10.931  17.901  0.00  0.00    +0.000 A 
ATOM     15  C   UNL     1      -2.790  12.020  18.446  0.00  0.00    +0.000 A 
ATOM     16  C   UNL     1      -1.390  12.018  18.616  0.00  0.00    +0.000 A 
BRANCH  16  17
ATOM     17  C   UNL     1      -0.753  13.260  19.175  0.00  0.00    +0.000 C 
ATOM     18  F   UNL     1      -1.607  14.164  19.726  0.00  0.00    +0.000 F 
ATOM     19  F   UNL     1       0.145  12.965  20.163  0.00  0.00    +0.000 F 
ATOM     20  F   UNL     1      -0.041  13.950  18.237  0.00  0.00    +0.000 F 
ENDBRANCH  16  17
BRANCH  11  21
ATOM     21  O   UNL     1       0.653  10.731  18.581  0.00  0.00    +0.000 OA
BRANCH  21  28
ATOM     22  C   UNL     1       2.467   8.612  17.760  0.00  0.00    +0.000 C 
ATOM     23  C   UNL     1       1.754   8.643  19.081  0.00  0.00    +0.000 A 
ATOM     24  C   UNL     1       1.860   7.524  19.931  0.00  0.00    +0.000 A 
ATOM     25  C   UNL     1       1.234   7.506  21.178  0.00  0.00    +0.000 A 
ATOM     26  C   UNL     1       0.554   8.629  21.627  0.00  0.00    +0.000 A 
ATOM     27  C   UNL     1       0.451   9.747  20.803  0.00  0.00    +0.000 A 
ATOM     28  C   UNL     1       0.958   9.723  19.492  0.00  0.00    +0.000 A 
ENDBRANCH  21  28
ENDBRANCH  11  21
ENDBRANCH   1  14
BRANCH   7  29
ATOM     29  C   UNL     1      -5.007  13.481  22.236  0.00  0.00    +0.000 A 
ATOM     30  C   UNL     1      -5.585  12.966  23.401  0.00  0.00    +0.000 A 
ATOM     31  C   UNL     1      -4.786  12.509  24.452  0.00  0.00    +0.000 A 
ATOM     32  C   UNL     1      -3.397  12.548  24.343  0.00  0.00    +0.000 A 
ATOM     33  C   UNL     1      -2.802  13.052  23.181  0.00  0.00    +0.000 A 
ATOM     34  C   UNL     1      -3.609  13.508  22.137  0.00  0.00    +0.000 A 
BRANCH  33  35
ATOM     35  C   UNL     1      -1.318  13.088  23.093  0.00  0.00    +0.000 C 
ATOM     36  N   UNL     1      -0.719  14.315  22.993  0.00  0.00    +0.000 N 
ATOM     37  O   UNL     1      -0.644  12.068  23.122  0.00  0.00    +0.000 OA
ATOM     38  H   UNL     1      -1.212  15.171  23.204  0.00  0.00    +0.000 HD
ATOM     39  H   UNL     1       0.294  14.322  23.029  0.00  0.00    +0.000 HD
ENDBRANCH  33  35
ENDBRANCH   7  29
TORSDOF 6
ENDMDL
MODEL 4
REMARK VINA RESULT:      -8.0      2.537      5.530
REMARK  Name = 
REMARK  7 active torsions:
REMARK  status: ('A' for Active; 'I' for Inactive)
REMARK    1  A    between atoms: C_1  and  C_2
REMARK    2  A    between atoms: C_7  and  O_8
REMARK    3  A    between atoms: O_8  and  C_9
REMARK    4  A    between atoms: C_12  and  N_13
REMARK    5  A    between atoms: N_19  and  C_20
REMARK    6  A    between atoms: C_24  and  C_25
REMARK    7  A    between atoms: C_31  and  C_32
REMARK                            x       y       z     vdW  Elec       q    Type
REMARK                         _______ _______ _______ _____ _____    ______ ____
ROOT
ATOM      1  N   UNL     1      -4.793  11.006  17.696  0.00  0.00    +0.000 N 
ATOM      2  C   UNL     1      -5.728  11.903  18.260  0.00  0.00    +0.000 A 
ATOM      3  C   UNL     1      -6.896  12.172  17.585  0.00  0.00    +0.000 A 
ATOM      4  C   UNL     1      -7.707  13.131  18.145  0.00  0.00    +0.000 A 
ATOM      5  N   UNL     1      -7.433  13.762  19.303  0.00  0.00    +0.000 NA
ATOM      6  C   UNL     1      -6.313  13.389  19.930  0.00  0.00    +0.000 A 
ATOM      7  N   UNL     1      -6.012  13.992  21.150  0.00  0.00    +0.000 N 
ATOM      8  N   UNL     1      -5.458  12.482  19.436  0.00  0.00    +0.000 NA
ATOM      9  H   UNL     1      -5.197  10.078  17.641  0.00  0.00    +0.000 HD
ATOM     10  H   UNL     1      -6.664  14.729  21.378  0.00  0.00    +0.000 HD
ENDROOT
BRANCH   1  14
ATOM     11  C   UNL     1      -0.634  10.933  18.517  0.00  0.00    +0.000 A 
ATOM     12  C   UNL     1      -1.238   9.929  17.743  0.00  0.00    +0.000 A 
ATOM     13  C   UNL     1      -2.612   9.948  17.490  0.00  0.00    +0.000 A 
ATOM     14  C   UNL     1      -3.404  10.993  17.959  0.00  0.00    +0.000 A 
ATOM     15  C   UNL     1      -2.750  12.075  18.575  0.00  0.00    +0.000 A 
ATOM     16  C   UNL     1      -1.368  12.072  18.857  0.00  0.00    +0.000 A 
BRANCH  16  17
ATOM     17  C   UNL     1      -0.781  13.307  19.483  0.00  0.00    +0.000 C 
ATOM     18  F   UNL     1       0.060  13.094  20.532  0.00  0.00    +0.000 F 
ATOM     19  F   UNL     1      -0.053  14.032  18.581  0.00  0.00    +0.000 F 
ATOM     20  F   UNL     1      -1.737  14.163  19.945  0.00  0.00    +0.000 F 
ENDBRANCH  16  17
BRANCH  11  21
ATOM     21  O   UNL     1       0.673  10.787  18.971  0.00  0.00    +0.000 OA
BRANCH  21  28
ATOM     22  C   UNL     1       0.329   9.266  21.425  0.00  0.00    +0.000 C 
ATOM     23  C   UNL     1       1.102   8.776  20.235  0.00  0.00    +0.000 A 
ATOM     24  C   UNL     1       1.814   7.566  20.344  0.00  0.00    +0.000 A 
ATOM     25  C   UNL     1       2.534   7.054  19.264  0.00  0.00    +0.000 A 
ATOM     26  C   UNL     1       2.496   7.703  18.037  0.00  0.00    +0.000 A 
ATOM     27  C   UNL     1       1.785   8.894  17.910  0.00  0.00    +0.000 A 
ATOM     28  C   UNL     1       1.174   9.489  19.027  0.00  0.00    +0.000 A 
ENDBRANCH  21  28
ENDBRANCH  11  21
ENDBRANCH   1  14
BRANCH   7  29
ATOM     29  C   UNL     1      -5.275  13.442  22.213  0.00  0.00    +0.000 A 
ATOM     30  C   UNL     1      -5.942  12.944  23.337  0.00  0.00    +0.000 A 
ATOM     31  C   UNL     1      -5.227  12.467  24.438  0.00  0.00    +0.000 A 
ATOM     32  C   UNL     1      -3.833  12.467  24.420  0.00  0.00    +0.000 A 
ATOM     33  C   UNL     1      -3.150  12.952  23.300  0.00  0.00    +0.000 A 
ATOM     34  C   UNL     1      -3.874  13.429  22.205  0.00  0.00    +0.000 A 
BRANCH  33  35
ATOM     35  C   UNL     1      -1.663  12.946  23.309  0.00  0.00    +0.000 C 
ATOM     36  N   UNL     1      -1.025  14.153  23.415  0.00  0.00    +0.000 N 
ATOM     37  O   UNL     1      -1.020  11.908  23.239  0.00  0.00    +0.000 OA
ATOM     38  H   UNL     1      -1.507  14.990  23.711  0.00  0.00    +0.000 HD
ATOM     39  H   UNL     1      -0.017  14.119  23.514  0.00  0.00    +0.000 HD
ENDBRANCH  33  35
ENDBRANCH   7  29
TORSDOF 6
ENDMDL
MODEL 5
REMARK VINA RESULT:      -8.0      3.410      6.335
REMARK  Name = 
REMARK  7 active torsions:
REMARK  status: ('A' for Active; 'I' for Inactive)
REMARK    1  A    between atoms: C_1  and  C_2
REMARK    2  A    between atoms: C_7  and  O_8
REMARK    3  A    between atoms: O_8  and  C_9
REMARK    4  A    between atoms: C_12  and  N_13
REMARK    5  A    between atoms: N_19  and  C_20
REMARK    6  A    between atoms: C_24  and  C_25
REMARK    7  A    between atoms: C_31  and  C_32
REMARK                            x       y       z     vdW  Elec       q    Type
REMARK                         _______ _______ _______ _____ _____    ______ ____
ROOT
ATOM      1  N   UNL     1      -0.074  10.139  18.733  0.00  0.00    +0.000 N 
ATOM      2  C   UNL     1       0.196   9.848  20.090  0.00  0.00    +0.000 A 
ATOM      3  C   UNL     1       1.237   9.008  20.406  0.00  0.00    +0.000 A 
ATOM      4  C   UNL     1       1.373   8.692  21.738  0.00  0.00    +0.000 A 
ATOM      5  N   UNL     1       0.583   9.185  22.709  0.00  0.00    +0.000 NA
ATOM      6  C   UNL     1      -0.360  10.051  22.324  0.00  0.00    +0.000 A 
ATOM      7  N   UNL     1      -1.175  10.614  23.305  0.00  0.00    +0.000 N 
ATOM      8  N   UNL     1      -0.572  10.389  21.044  0.00  0.00    +0.000 NA
ATOM      9  H   UNL     1       0.706  10.644  18.329  0.00  0.00    +0.000 HD
ATOM     10  H   UNL     1      -0.998  10.215  24.216  0.00  0.00    +0.000 HD
ENDROOT
BRANCH   1  14
ATOM     11  C   UNL     1      -3.853  11.300  17.200  0.00  0.00    +0.000 A 
ATOM     12  C   UNL     1      -3.355  11.846  18.395  0.00  0.00    +0.000 A 
ATOM     13  C   UNL     1      -2.117  11.448  18.905  0.00  0.00    +0.000 A 
ATOM     14  C   UNL     1      -1.326  10.535  18.211  0.00  0.00    +0.000 A 
ATOM     15  C   UNL     1      -1.763  10.140  16.934  0.00  0.00    +0.000 A 
ATOM     16  C   UNL     1      -3.016  10.514  16.405  0.00  0.00    +0.000 A 
BRANCH  16  17
ATOM     17  C   UNL     1      -3.348  10.059  15.011  0.00  0.00    +0.000 C 
ATOM     18  F   UNL     1      -3.785  11.028  14.162  0.00  0.00    +0.000 F 
ATOM     19  F   UNL     1      -2.265   9.500  14.391  0.00  0.00    +0.000 F 
ATOM     20  F   UNL     1      -4.311   9.092  14.993  0.00  0.00    +0.000 F 
ENDBRANCH  16  17
BRANCH  11  21
ATOM     21  O   UNL     1      -5.176  11.508  16.823  0.00  0.00    +0.000 OA
BRANCH  21  28
ATOM     22  C   UNL     1      -6.727  13.949  17.118  0.00  0.00    +0.000 C 
ATOM     23  C   UNL     1      -6.802  12.787  18.065  0.00  0.00    +0.000 A 
ATOM     24  C   UNL     1      -7.567  12.922  19.240  0.00  0.00    +0.000 A 
ATOM     25  C   UNL     1      -7.687  11.868  20.147  0.00  0.00    +0.000 A 
ATOM     26  C   UNL     1      -7.105  10.641  19.862  0.00  0.00    +0.000 A 
ATOM     27  C   UNL     1      -6.356  10.488  18.698  0.00  0.00    +0.000 A 
ATOM     28  C   UNL     1      -6.114  11.583  17.849  0.00  0.00    +0.000 A 
ENDBRANCH  21  28
ENDBRANCH  11  21
ENDBRANCH   1  14
BRANCH   7  29
ATOM     29  C   UNL     1      -1.808  11.868  23.269  0.00  0.00    +0.000 A 
ATOM     30  C   UNL     1      -1.053  13.022  23.038  0.00  0.00    +0.000 A 
ATOM     31  C   UNL     1      -1.649  14.285  23.078  0.00  0.00    +0.000 A 
ATOM     32  C   UNL     1      -3.014  14.406  23.333  0.00  0.00    +0.000 A 
ATOM     33  C   UNL     1      -3.787  13.261  23.556  0.00  0.00    +0.000 A 
ATOM     34  C   UNL     1      -3.181  12.004  23.517  0.00  0.00    +0.000 A 
BRANCH  33  35
ATOM     35  C   UNL     1      -5.239  13.420  23.833  0.00  0.00    +0.000 C 
ATOM     36  N   UNL     1      -5.712  14.690  24.028  0.00  0.00    +0.000 N 
ATOM     37  O   UNL     1      -5.998  12.461  23.874  0.00  0.00    +0.000 OA
ATOM     38  H   UNL     1      -5.177  15.507  23.770  0.00  0.00    +0.000 HD
ATOM     39  H   UNL     1      -6.717  14.783  24.122  0.00  0.00    +0.000 HD
ENDBRANCH  33  35
ENDBRANCH   7  29
TORSDOF 6
ENDMDL
MODEL 6
REMARK VINA RESULT:      -7.9      6.924     10.204
REMARK  Name = 
REMARK  7 active torsions:
REMARK  status: ('A' for Active; 'I' for Inactive)
REMARK    1  A    between atoms: C_1  and  C_2
REMARK    2  A    between atoms: C_7  and  O_8
REMARK    3  A    between atoms: O_8  and  C_9
REMARK    4  A    between atoms: C_12  and  N_13
REMARK    5  A    between atoms: N_19  and  C_20
REMARK    6  A    between atoms: C_24  and  C_25
REMARK    7  A    between atoms: C_31  and  C_32
REMARK                            x       y       z     vdW  Elec       q    Type
REMARK                         _______ _______ _______ _____ _____    ______ ____
ROOT
ATOM      1  N   UNL     1       1.673   4.774  20.226  0.00  0.00    +0.000 N 
ATOM      2  C   UNL     1       2.814   3.945  20.131  0.00  0.00    +0.000 A 
ATOM      3  C   UNL     1       2.878   2.797  20.885  0.00  0.00    +0.000 A 
ATOM      4  C   UNL     1       4.061   2.098  20.818  0.00  0.00    +0.000 A 
ATOM      5  N   UNL     1       5.100   2.457  20.040  0.00  0.00    +0.000 NA
ATOM      6  C   UNL     1       4.927   3.546  19.284  0.00  0.00    +0.000 A 
ATOM      7  N   UNL     1       5.965   3.929  18.438  0.00  0.00    +0.000 N 
ATOM      8  N   UNL     1       3.815   4.295  19.314  0.00  0.00    +0.000 NA
ATOM      9  H   UNL     1       0.858   4.277  19.885  0.00  0.00    +0.000 HD
ATOM     10  H   UNL     1       6.789   3.359  18.569  0.00  0.00    +0.000 HD
ENDROOT
BRANCH   1  14
ATOM     11  C   UNL     1       1.617   8.930  19.390  0.00  0.00    +0.000 A 
ATOM     12  C   UNL     1       1.915   7.992  18.387  0.00  0.00    +0.000 A 
ATOM     13  C   UNL     1       1.948   6.625  18.672  0.00  0.00    +0.000 A 
ATOM     14  C   UNL     1       1.638   6.159  19.947  0.00  0.00    +0.000 A 
ATOM     15  C   UNL     1       1.171   7.099  20.884  0.00  0.00    +0.000 A 
ATOM     16  C   UNL     1       1.144   8.485  20.626  0.00  0.00    +0.000 A 
BRANCH  16  17
ATOM     17  C   UNL     1       0.584   9.382  21.696  0.00  0.00    +0.000 C 
ATOM     18  F   UNL     1      -0.627   9.940  21.424  0.00  0.00    +0.000 F 
ATOM     19  F   UNL     1       0.415   8.713  22.876  0.00  0.00    +0.000 F 
ATOM     20  F   UNL     1       1.413  10.426  21.989  0.00  0.00    +0.000 F 
ENDBRANCH  16  17
BRANCH  11  21
ATOM     21  O   UNL     1       1.822  10.289  19.171  0.00  0.00    +0.000 OA
BRANCH  21  28
ATOM     22  C   UNL     1       1.807  13.117  19.846  0.00  0.00    +0.000 C 
ATOM     23  C   UNL     1       0.636  12.389  19.252  0.00  0.00    +0.000 A 
ATOM     24  C   UNL     1      -0.590  13.071  19.126  0.00  0.00    +0.000 A 
ATOM     25  C   UNL     1      -1.706  12.450  18.564  0.00  0.00    +0.000 A 
ATOM     26  C   UNL     1      -1.597  11.164  18.053  0.00  0.00    +0.000 A 
ATOM     27  C   UNL     1      -0.388  10.481  18.159  0.00  0.00    +0.000 A 
ATOM     28  C   UNL     1       0.699  11.046  18.848  0.00  0.00    +0.000 A 
ENDBRANCH  21  28
ENDBRANCH  11  21
ENDBRANCH   1  14
BRANCH   7  29
ATOM     29  C   UNL     1       5.860   4.627  17.223  0.00  0.00    +0.000 A 
ATOM     30  C   UNL     1       5.216   5.869  17.189  0.00  0.00    +0.000 A 
ATOM     31  C   UNL     1       5.029   6.543  15.979  0.00  0.00    +0.000 A 
ATOM     32  C   UNL     1       5.499   5.988  14.790  0.00  0.00    +0.000 A 
ATOM     33  C   UNL     1       6.153   4.752  14.807  0.00  0.00    +0.000 A 
ATOM     34  C   UNL     1       6.334   4.085  16.021  0.00  0.00    +0.000 A 
BRANCH  33  35
ATOM     35  C   UNL     1       6.639   4.180  13.523  0.00  0.00    +0.000 C 
ATOM     36  N   UNL     1       6.123   2.974  13.131  0.00  0.00    +0.000 N 
ATOM     37  O   UNL     1       7.459   4.761  12.826  0.00  0.00    +0.000 OA
ATOM     38  H   UNL     1       5.287   2.588  13.547  0.00  0.00    +0.000 HD
ATOM     39  H   UNL     1       6.396   2.649  12.211  0.00  0.00    +0.000 HD
ENDBRANCH  33  35
ENDBRANCH   7  29
TORSDOF 6
ENDMDL
MODEL 7
REMARK VINA RESULT:      -7.8      8.791     12.167
REMARK  Name = 
REMARK  7 active torsions:
REMARK  status: ('A' for Active; 'I' for Inactive)
REMARK    1  A    between atoms: C_1  and  C_2
REMARK    2  A    between atoms: C_7  and  O_8
REMARK    3  A    between atoms: O_8  and  C_9
REMARK    4  A    between atoms: C_12  and  N_13
REMARK    5  A    between atoms: N_19  and  C_20
REMARK    6  A    between atoms: C_24  and  C_25
REMARK    7  A    between atoms: C_31  and  C_32
REMARK                            x       y       z     vdW  Elec       q    Type
REMARK                         _______ _______ _______ _____ _____    ______ ____
ROOT
ATOM      1  N   UNL     1       3.019   8.325  17.483  0.00  0.00    +0.000 N 
ATOM      2  C   UNL     1       2.342   8.140  18.711  0.00  0.00    +0.000 A 
ATOM      3  C   UNL     1       1.682   9.202  19.284  0.00  0.00    +0.000 A 
ATOM      4  C   UNL     1       1.137   8.972  20.526  0.00  0.00    +0.000 A 
ATOM      5  N   UNL     1       1.186   7.784  21.158  0.00  0.00    +0.000 NA
ATOM      6  C   UNL     1       1.785   6.786  20.499  0.00  0.00    +0.000 A 
ATOM      7  N   UNL     1       1.824   5.531  21.103  0.00  0.00    +0.000 N 
ATOM      8  N   UNL     1       2.363   6.938  19.299  0.00  0.00    +0.000 NA
ATOM      9  H   UNL     1       2.351   8.549  16.754  0.00  0.00    +0.000 HD
ATOM     10  H   UNL     1       1.454   5.553  22.043  0.00  0.00    +0.000 HD
ENDROOT
BRANCH   1  14
ATOM     11  C   UNL     1       6.264   5.980  16.089  0.00  0.00    +0.000 A 
ATOM     12  C   UNL     1       5.377   6.599  15.192  0.00  0.00    +0.000 A 
ATOM     13  C   UNL     1       4.300   7.357  15.657  0.00  0.00    +0.000 A 
ATOM     14  C   UNL     1       4.110   7.556  17.023  0.00  0.00    +0.000 A 
ATOM     15  C   UNL     1       5.108   7.078  17.891  0.00  0.00    +0.000 A 
ATOM     16  C   UNL     1       6.196   6.296  17.448  0.00  0.00    +0.000 A 
BRANCH  16  17
ATOM     17  C   UNL     1       7.217   5.880  18.471  0.00  0.00    +0.000 C 
ATOM     18  F   UNL     1       7.881   4.722  18.204  0.00  0.00    +0.000 F 
ATOM     19  F   UNL     1       8.192   6.826  18.622  0.00  0.00    +0.000 F 
ATOM     20  F   UNL     1       6.677   5.717  19.713  0.00  0.00    +0.000 F 
ENDBRANCH  16  17
BRANCH  11  21
ATOM     21  O   UNL     1       7.181   5.034  15.640  0.00  0.00    +0.000 OA
BRANCH  21  28
ATOM     22  C   UNL     1       8.856   5.815  13.396  0.00  0.00    +0.000 C 
ATOM     23  C   UNL     1       7.669   4.903  13.281  0.00  0.00    +0.000 A 
ATOM     24  C   UNL     1       7.252   4.496  11.998  0.00  0.00    +0.000 A 
ATOM     25  C   UNL     1       6.167   3.634  11.833  0.00  0.00    +0.000 A 
ATOM     26  C   UNL     1       5.526   3.109  12.946  0.00  0.00    +0.000 A 
ATOM     27  C   UNL     1       5.934   3.493  14.221  0.00  0.00    +0.000 A 
ATOM     28  C   UNL     1       6.933   4.466  14.394  0.00  0.00    +0.000 A 
ENDBRANCH  21  28
ENDBRANCH  11  21
ENDBRANCH   1  14
BRANCH   7  29
ATOM     29  C   UNL     1       1.872   4.280  20.465  0.00  0.00    +0.000 A 
ATOM     30  C   UNL     1       0.696   3.708  19.969  0.00  0.00    +0.000 A 
ATOM     31  C   UNL     1       0.707   2.430  19.403  0.00  0.00    +0.000 A 
ATOM     32  C   UNL     1       1.901   1.717  19.312  0.00  0.00    +0.000 A 
ATOM     33  C   UNL     1       3.088   2.278  19.795  0.00  0.00    +0.000 A 
ATOM     34  C   UNL     1       3.066   3.554  20.360  0.00  0.00    +0.000 A 
BRANCH  33  35
ATOM     35  C   UNL     1       4.346   1.491  19.691  0.00  0.00    +0.000 C 
ATOM     36  N   UNL     1       4.458   0.609  18.650  0.00  0.00    +0.000 N 
ATOM     37  O   UNL     1       5.261   1.627  20.492  0.00  0.00    +0.000 OA
ATOM     38  H   UNL     1       3.842   0.642  17.851  0.00  0.00    +0.000 HD
ATOM     39  H   UNL     1       5.358   0.154  18.545  0.00  0.00    +0.000 HD
ENDBRANCH  33  35
ENDBRANCH   7  29
TORSDOF 6
ENDMDL
MODEL 8
REMARK VINA RESULT:      -7.8      4.470      8.355
REMARK  Name = 
REMARK  7 active torsions:
REMARK  status: ('A' for Active; 'I' for Inactive)
REMARK    1  A    between atoms: C_1  and  C_2
REMARK    2  A    between atoms: C_7  and  O_8
REMARK    3  A    between atoms: O_8  and  C_9
REMARK    4  A    between atoms: C_12  and  N_13
REMARK    5  A    between atoms: N_19  and  C_20
REMARK    6  A    between atoms: C_24  and  C_25
REMARK    7  A    between atoms: C_31  and  C_32
REMARK                            x       y       z     vdW  Elec       q    Type
REMARK                         _______ _______ _______ _____ _____    ______ ____
ROOT
ATOM      1  N   UNL     1      -1.030  11.000  22.499  0.00  0.00    +0.000 N 
ATOM      2  C   UNL     1      -1.645  12.151  21.955  0.00  0.00    +0.000 A 
ATOM      3  C   UNL     1      -2.806  12.626  22.520  0.00  0.00    +0.000 A 
ATOM      4  C   UNL     1      -3.400  13.685  21.873  0.00  0.00    +0.000 A 
ATOM      5  N   UNL     1      -2.888  14.276  20.777  0.00  0.00    +0.000 NA
ATOM      6  C   UNL     1      -1.720  13.798  20.336  0.00  0.00    +0.000 A 
ATOM      7  N   UNL     1      -1.138  14.407  19.226  0.00  0.00    +0.000 N 
ATOM      8  N   UNL     1      -1.093  12.753  20.895  0.00  0.00    +0.000 NA
ATOM      9  H   UNL     1      -0.717  11.193  23.444  0.00  0.00    +0.000 HD
ATOM     10  H   UNL     1      -1.740  15.112  18.824  0.00  0.00    +0.000 HD
ENDROOT
BRANCH   1  14
ATOM     11  C   UNL     1       1.557   8.359  20.424  0.00  0.00    +0.000 A 
ATOM     12  C   UNL     1       1.228   8.142  21.773  0.00  0.00    +0.000 A 
ATOM     13  C   UNL     1       0.388   9.025  22.457  0.00  0.00    +0.000 A 
ATOM     14  C   UNL     1      -0.181  10.114  21.800  0.00  0.00    +0.000 A 
ATOM     15  C   UNL     1       0.020  10.209  20.411  0.00  0.00    +0.000 A 
ATOM     16  C   UNL     1       0.876   9.342  19.701  0.00  0.00    +0.000 A 
BRANCH  16  17
ATOM     17  C   UNL     1       0.974   9.523  18.212  0.00  0.00    +0.000 C 
ATOM     18  F   UNL     1       2.100  10.142  17.765  0.00  0.00    +0.000 F 
ATOM     19  F   UNL     1       0.939   8.323  17.555  0.00  0.00    +0.000 F 
ATOM     20  F   UNL     1      -0.069  10.241  17.703  0.00  0.00    +0.000 F 
ENDBRANCH  16  17
BRANCH  11  21
ATOM     21  O   UNL     1       2.575   7.630  19.817  0.00  0.00    +0.000 OA
BRANCH  21  28
ATOM     22  C   UNL     1       3.671   6.426  17.409  0.00  0.00    +0.000 C 
ATOM     23  C   UNL     1       2.756   5.714  18.362  0.00  0.00    +0.000 A 
ATOM     24  C   UNL     1       2.289   4.430  18.018  0.00  0.00    +0.000 A 
ATOM     25  C   UNL     1       1.453   3.714  18.875  0.00  0.00    +0.000 A 
ATOM     26  C   UNL     1       1.126   4.237  20.118  0.00  0.00    +0.000 A 
ATOM     27  C   UNL     1       1.589   5.500  20.478  0.00  0.00    +0.000 A 
ATOM     28  C   UNL     1       2.316   6.285  19.567  0.00  0.00    +0.000 A 
ENDBRANCH  21  28
ENDBRANCH  11  21
ENDBRANCH   1  14
BRANCH   7  29
ATOM     29  C   UNL     1       0.230  14.486  18.918  0.00  0.00    +0.000 A 
ATOM     30  C   UNL     1       0.885  13.376  18.373  0.00  0.00    +0.000 A 
ATOM     31  C   UNL     1       2.262  13.405  18.134  0.00  0.00    +0.000 A 
ATOM     32  C   UNL     1       2.997  14.554  18.423  0.00  0.00    +0.000 A 
ATOM     33  C   UNL     1       2.356  15.676  18.958  0.00  0.00    +0.000 A 
ATOM     34  C   UNL     1       0.981  15.636  19.195  0.00  0.00    +0.000 A 
BRANCH  33  35
ATOM     35  C   UNL     1       3.166  16.886  19.262  0.00  0.00    +0.000 C 
ATOM     36  N   UNL     1       2.705  17.729  20.238  0.00  0.00    +0.000 N 
ATOM     37  O   UNL     1       4.215  17.125  18.679  0.00  0.00    +0.000 OA
ATOM     38  H   UNL     1       1.989  17.449  20.893  0.00  0.00    +0.000 HD
ATOM     39  H   UNL     1       3.317  18.495  20.493  0.00  0.00    +0.000 HD
ENDBRANCH  33  35
ENDBRANCH   7  29
TORSDOF 6
ENDMDL
MODEL 9
REMARK VINA RESULT:      -7.8      2.288      2.931
REMARK  Name = 
REMARK  7 active torsions:
REMARK  status: ('A' for Active; 'I' for Inactive)
REMARK    1  A    between atoms: C_1  and  C_2
REMARK    2  A    between atoms: C_7  and  O_8
REMARK    3  A    between atoms: O_8  and  C_9
REMARK    4  A    between atoms: C_12  and  N_13
REMARK    5  A    between atoms: N_19  and  C_20
REMARK    6  A    between atoms: C_24  and  C_25
REMARK    7  A    between atoms: C_31  and  C_32
REMARK                            x       y       z     vdW  Elec       q    Type
REMARK                         _______ _______ _______ _____ _____    ______ ____
ROOT
ATOM      1  N   UNL     1      -1.210  10.093  17.632  0.00  0.00    +0.000 N 
ATOM      2  C   UNL     1      -2.347  10.281  16.812  0.00  0.00    +0.000 A 
ATOM      3  C   UNL     1      -2.258  10.015  15.466  0.00  0.00    +0.000 A 
ATOM      4  C   UNL     1      -3.371  10.319  14.718  0.00  0.00    +0.000 A 
ATOM      5  N   UNL     1      -4.512  10.809  15.238  0.00  0.00    +0.000 NA
ATOM      6  C   UNL     1      -4.538  10.971  16.565  0.00  0.00    +0.000 A 
ATOM      7  N   UNL     1      -5.714  11.440  17.147  0.00  0.00    +0.000 N 
ATOM      8  N   UNL     1      -3.486  10.722  17.359  0.00  0.00    +0.000 NA
ATOM      9  H   UNL     1      -0.958   9.111  17.649  0.00  0.00    +0.000 HD
ATOM     10  H   UNL     1      -6.404  11.692  16.453  0.00  0.00    +0.000 HD
ENDROOT
BRANCH   1  14
ATOM     11  C   UNL     1      -0.421  12.089  21.289  0.00  0.00    +0.000 A 
ATOM     12  C   UNL     1      -0.752  12.806  20.127  0.00  0.00    +0.000 A 
ATOM     13  C   UNL     1      -0.995  12.144  18.920  0.00  0.00    +0.000 A 
ATOM     14  C   UNL     1      -0.962  10.753  18.856  0.00  0.00    +0.000 A 
ATOM     15  C   UNL     1      -0.806  10.053  20.066  0.00  0.00    +0.000 A 
ATOM     16  C   UNL     1      -0.543  10.697  21.293  0.00  0.00    +0.000 A 
BRANCH  16  17
ATOM     17  C   UNL     1      -0.437   9.838  22.523  0.00  0.00    +0.000 C 
ATOM     18  F   UNL     1       0.810   9.725  23.058  0.00  0.00    +0.000 F 
ATOM     19  F   UNL     1      -1.221  10.313  23.538  0.00  0.00    +0.000 F 
ATOM     20  F   UNL     1      -0.862   8.560  22.306  0.00  0.00    +0.000 F 
ENDBRANCH  16  17
BRANCH  11  21
ATOM     21  O   UNL     1       0.056  12.749  22.417  0.00  0.00    +0.000 OA
BRANCH  21  28
ATOM     22  C   UNL     1       1.000  15.493  22.236  0.00  0.00    +0.000 C 
ATOM     23  C   UNL     1      -0.262  15.083  22.939  0.00  0.00    +0.000 A 
ATOM     24  C   UNL     1      -0.974  16.055  23.669  0.00  0.00    +0.000 A 
ATOM     25  C   UNL     1      -2.163  15.735  24.326  0.00  0.00    +0.000 A 
ATOM     26  C   UNL     1      -2.696  14.460  24.207  0.00  0.00    +0.000 A 
ATOM     27  C   UNL     1      -2.009  13.491  23.480  0.00  0.00    +0.000 A 
ATOM     28  C   UNL     1      -0.744  13.765  22.932  0.00  0.00    +0.000 A 
ENDBRANCH  21  28
ENDBRANCH  11  21
ENDBRANCH   1  14
BRANCH   7  29
ATOM     29  C   UNL     1      -6.181  11.186  18.448  0.00  0.00    +0.000 A 
ATOM     30  C   UNL     1      -6.807   9.969  18.736  0.00  0.00    +0.000 A 
ATOM     31  C   UNL     1      -7.349   9.728  20.001  0.00  0.00    +0.000 A 
ATOM     32  C   UNL     1      -7.257  10.698  20.998  0.00  0.00    +0.000 A 
ATOM     33  C   UNL     1      -6.626  11.917  20.730  0.00  0.00    +0.000 A 
ATOM     34  C   UNL     1      -6.089  12.149  19.462  0.00  0.00    +0.000 A 
BRANCH  33  35
ATOM     35  C   UNL     1      -6.548  12.936  21.810  0.00  0.00    +0.000 C 
ATOM     36  N   UNL     1      -6.638  12.497  23.104  0.00  0.00    +0.000 N 
ATOM     37  O   UNL     1      -6.395  14.125  21.566  0.00  0.00    +0.000 OA
ATOM     38  H   UNL     1      -6.525  11.524  23.348  0.00  0.00    +0.000 HD
ATOM     39  H   UNL     1      -6.489  13.194  23.824  0.00  0.00    +0.000 HD
ENDBRANCH  33  35
ENDBRANCH   7  29
TORSDOF 6
ENDMDL
