MODEL 1
REMARK VINA RESULT:      -8.5      0.000      0.000
REMARK  Name = 
REMARK  1 active torsions:
REMARK  status: ('A' for Active; 'I' for Inactive)
REMARK    1  A    between atoms: C_2  and  C_13
REMARK                            x       y       z     vdW  Elec       q    Type
REMARK                         _______ _______ _______ _____ _____    ______ ____
ROOT
ATOM      1  O   UNL     1       2.558   7.581  18.464  0.00  0.00    +0.000 OA
ATOM      2  C   UNL     1       2.552   6.993  19.550  0.00  0.00    +0.000 C 
ATOM      3  N   UNL     1       1.880   7.403  20.685  0.00  0.00    +0.000 N 
ATOM      4  C   UNL     1       1.156   8.568  20.683  0.00  0.00    +0.000 A 
ATOM      5  N   UNL     1       0.716   9.238  19.650  0.00  0.00    +0.000 NA
ATOM      6  C   UNL     1       0.092  10.384  20.079  0.00  0.00    +0.000 A 
ATOM      7  C   UNL     1       0.068  10.574  21.444  0.00  0.00    +0.000 A 
ATOM      8  S   UNL     1       0.788   9.231  22.225  0.00  0.00    +0.000 S 
ATOM      9  C   UNL     1      -0.462  11.794  22.126  0.00  0.00    +0.000 C 
ATOM     10  C   UNL     1      -1.311  12.629  21.140  0.00  0.00    +0.000 C 
ATOM     11  C   UNL     1      -0.672  12.726  19.742  0.00  0.00    +0.000 C 
ATOM     12  C   UNL     1      -0.504  11.338  19.107  0.00  0.00    +0.000 C 
ATOM     13  H   UNL     1       2.076   6.984  21.583  0.00  0.00    +0.000 HD
ENDROOT
BRANCH   2  14
ATOM     14  C   UNL     1       3.345   5.682  19.668  0.00  0.00    +0.000 C 
ATOM     15  C   UNL     1       4.658   5.740  18.882  0.00  0.00    +0.000 C 
ATOM     16  C   UNL     1       4.482   5.383  17.413  0.00  0.00    +0.000 C 
ATOM     17  C   UNL     1       3.858   3.999  17.240  0.00  0.00    +0.000 C 
ATOM     18  C   UNL     1       2.726   3.700  18.191  0.00  0.00    +0.000 A 
ATOM     19  C   UNL     1       1.914   2.584  17.946  0.00  0.00    +0.000 A 
ATOM     20  C   UNL     1       0.916   2.214  18.851  0.00  0.00    +0.000 A 
ATOM     21  C   UNL     1       0.725   2.948  20.015  0.00  0.00    +0.000 A 
ATOM     22  C   UNL     1       1.520   4.064  20.268  0.00  0.00    +0.000 A 
ATOM     23  C   UNL     1       2.520   4.452  19.360  0.00  0.00    +0.000 A 
ENDBRANCH   2  14
TORSDOF 1
ENDMDL
MODEL 2
REMARK VINA RESULT:      -8.3      1.780      3.616
REMARK  Name = 
REMARK  1 active torsions:
REMARK  status: ('A' for Active; 'I' for Inactive)
REMARK    1  A    between atoms: C_2  and  C_13
REMARK                            x       y       z     vdW  Elec       q    Type
REMARK                         _______ _______ _______ _____ _____    ______ ____
ROOT
ATOM      1  O   UNL     1       2.286   5.926  19.918  0.00  0.00    +0.000 OA
ATOM      2  C   UNL     1       2.479   6.494  18.838  0.00  0.00    +0.000 C 
ATOM      3  N   UNL     1       2.154   7.803  18.545  0.00  0.00    +0.000 N 
ATOM      4  C   UNL     1       1.536   8.593  19.482  0.00  0.00    +0.000 A 
ATOM      5  N   UNL     1       1.477   8.408  20.775  0.00  0.00    +0.000 NA
ATOM      6  C   UNL     1       0.710   9.394  21.345  0.00  0.00    +0.000 A 
ATOM      7  C   UNL     1       0.189  10.324  20.470  0.00  0.00    +0.000 A 
ATOM      8  S   UNL     1       0.742   9.993  18.883  0.00  0.00    +0.000 S 
ATOM      9  C   UNL     1      -0.755  11.418  20.851  0.00  0.00    +0.000 C 
ATOM     10  C   UNL     1      -0.767  11.601  22.385  0.00  0.00    +0.000 C 
ATOM     11  C   UNL     1      -0.773  10.260  23.142  0.00  0.00    +0.000 C 
ATOM     12  C   UNL     1       0.472   9.425  22.812  0.00  0.00    +0.000 C 
ATOM     13  H   UNL     1       2.161   8.138  17.592  0.00  0.00    +0.000 HD
ENDROOT
BRANCH   2  14
ATOM     14  C   UNL     1       3.152   5.694  17.711  0.00  0.00    +0.000 C 
ATOM     15  C   UNL     1       2.623   4.258  17.639  0.00  0.00    +0.000 C 
ATOM     16  C   UNL     1       3.341   3.317  18.597  0.00  0.00    +0.000 C 
ATOM     17  C   UNL     1       4.848   3.306  18.353  0.00  0.00    +0.000 C 
ATOM     18  C   UNL     1       5.451   4.665  18.097  0.00  0.00    +0.000 A 
ATOM     19  C   UNL     1       6.846   4.803  18.130  0.00  0.00    +0.000 A 
ATOM     20  C   UNL     1       7.451   6.019  17.805  0.00  0.00    +0.000 A 
ATOM     21  C   UNL     1       6.670   7.108  17.434  0.00  0.00    +0.000 A 
ATOM     22  C   UNL     1       5.284   6.987  17.404  0.00  0.00    +0.000 A 
ATOM     23  C   UNL     1       4.663   5.771  17.739  0.00  0.00    +0.000 A 
ENDBRANCH   2  14
TORSDOF 1
ENDMDL
MODEL 3
REMARK VINA RESULT:      -8.0      1.686      3.585
REMARK  Name = 
REMARK  1 active torsions:
REMARK  status: ('A' for Active; 'I' for Inactive)
REMARK    1  A    between atoms: C_2  and  C_13
REMARK                            x       y       z     vdW  Elec       q    Type
REMARK                         _______ _______ _______ _____ _____    ______ ____
ROOT
ATOM      1  O   UNL     1       3.031   8.466  17.242  0.00  0.00    +0.000 OA
ATOM      2  C   UNL     1       3.038   7.435  17.920  0.00  0.00    +0.000 C 
ATOM      3  N   UNL     1       2.356   7.244  19.106  0.00  0.00    +0.000 N 
ATOM      4  C   UNL     1       1.606   8.257  19.648  0.00  0.00    +0.000 A 
ATOM      5  N   UNL     1       1.151   9.327  19.051  0.00  0.00    +0.000 NA
ATOM      6  C   UNL     1       0.500  10.120  19.963  0.00  0.00    +0.000 A 
ATOM      7  C   UNL     1       0.472   9.641  21.256  0.00  0.00    +0.000 A 
ATOM      8  S   UNL     1       1.222   8.103  21.315  0.00  0.00    +0.000 S 
ATOM      9  C   UNL     1      -0.087  10.381  22.428  0.00  0.00    +0.000 C 
ATOM     10  C   UNL     1      -0.954  11.566  21.946  0.00  0.00    +0.000 C 
ATOM     11  C   UNL     1      -0.316  12.326  20.768  0.00  0.00    +0.000 C 
ATOM     12  C   UNL     1      -0.117  11.409  19.553  0.00  0.00    +0.000 C 
ATOM     13  H   UNL     1       2.561   6.454  19.701  0.00  0.00    +0.000 HD
ENDROOT
BRANCH   2  14
ATOM     14  C   UNL     1       3.861   6.240  17.412  0.00  0.00    +0.000 C 
ATOM     15  C   UNL     1       3.173   4.906  17.715  0.00  0.00    +0.000 C 
ATOM     16  C   UNL     1       3.478   4.390  19.115  0.00  0.00    +0.000 C 
ATOM     17  C   UNL     1       4.980   4.240  19.346  0.00  0.00    +0.000 C 
ATOM     18  C   UNL     1       5.813   5.374  18.802  0.00  0.00    +0.000 A 
ATOM     19  C   UNL     1       7.157   5.474  19.191  0.00  0.00    +0.000 A 
ATOM     20  C   UNL     1       7.989   6.450  18.640  0.00  0.00    +0.000 A 
ATOM     21  C   UNL     1       7.493   7.331  17.687  0.00  0.00    +0.000 A 
ATOM     22  C   UNL     1       6.159   7.249  17.297  0.00  0.00    +0.000 A 
ATOM     23  C   UNL     1       5.308   6.278  17.852  0.00  0.00    +0.000 A 
ENDBRANCH   2  14
TORSDOF 1
ENDMDL
MODEL 4
REMARK VINA RESULT:      -8.0      2.327      3.658
REMARK  Name = 
REMARK  1 active torsions:
REMARK  status: ('A' for Active; 'I' for Inactive)
REMARK    1  A    between atoms: C_2  and  C_13
REMARK                            x       y       z     vdW  Elec       q    Type
REMARK                         _______ _______ _______ _____ _____    ______ ____
ROOT
ATOM      1  O   UNL     1       4.089   7.135  17.350  0.00  0.00    +0.000 OA
ATOM      2  C   UNL     1       3.872   6.277  18.211  0.00  0.00    +0.000 C 
ATOM      3  N   UNL     1       2.951   6.377  19.235  0.00  0.00    +0.000 N 
ATOM      4  C   UNL     1       2.194   7.512  19.382  0.00  0.00    +0.000 A 
ATOM      5  N   UNL     1       1.960   8.442  18.494  0.00  0.00    +0.000 NA
ATOM      6  C   UNL     1       1.207   9.439  19.062  0.00  0.00    +0.000 A 
ATOM      7  C   UNL     1       0.877   9.256  20.388  0.00  0.00    +0.000 A 
ATOM      8  S   UNL     1       1.468   7.740  20.923  0.00  0.00    +0.000 S 
ATOM      9  C   UNL     1       0.156  10.255  21.234  0.00  0.00    +0.000 C 
ATOM     10  C   UNL     1      -0.493  11.338  20.343  0.00  0.00    +0.000 C 
ATOM     11  C   UNL     1       0.431  11.798  19.200  0.00  0.00    +0.000 C 
ATOM     12  C   UNL     1       0.795  10.630  18.272  0.00  0.00    +0.000 C 
ATOM     13  H   UNL     1       2.964   5.728  20.009  0.00  0.00    +0.000 HD
ENDROOT
BRANCH   2  14
ATOM     14  C   UNL     1       4.678   4.970  18.149  0.00  0.00    +0.000 C 
ATOM     15  C   UNL     1       5.573   4.796  19.380  0.00  0.00    +0.000 C 
ATOM     16  C   UNL     1       6.911   5.508  19.243  0.00  0.00    +0.000 C 
ATOM     17  C   UNL     1       7.673   5.044  18.003  0.00  0.00    +0.000 C 
ATOM     18  C   UNL     1       6.819   4.876  16.771  0.00  0.00    +0.000 A 
ATOM     19  C   UNL     1       7.449   4.720  15.528  0.00  0.00    +0.000 A 
ATOM     20  C   UNL     1       6.702   4.467  14.375  0.00  0.00    +0.000 A 
ATOM     21  C   UNL     1       5.319   4.357  14.452  0.00  0.00    +0.000 A 
ATOM     22  C   UNL     1       4.679   4.518  15.678  0.00  0.00    +0.000 A 
ATOM     23  C   UNL     1       5.419   4.784  16.843  0.00  0.00    +0.000 A 
ENDBRANCH   2  14
TORSDOF 1
ENDMDL
MODEL 5
REMARK VINA RESULT:      -8.0      7.012     10.210
REMARK  Name = 
REMARK  1 active torsions:
REMARK  status: ('A' for Active; 'I' for Inactive)
REMARK    1  A    between atoms: C_2  and  C_13
REMARK                            x       y       z     vdW  Elec       q    Type
REMARK                         _______ _______ _______ _____ _____    ______ ____
ROOT
ATOM      1  O   UNL     1       8.138  10.328  17.926  0.00  0.00    +0.000 OA
ATOM      2  C   UNL     1       8.919   9.808  18.728  0.00  0.00    +0.000 C 
ATOM      3  N   UNL     1       8.986   8.463  19.033  0.00  0.00    +0.000 N 
ATOM      4  C   UNL     1       8.122   7.573  18.447  0.00  0.00    +0.000 A 
ATOM      5  N   UNL     1       7.411   7.739  17.362  0.00  0.00    +0.000 NA
ATOM      6  C   UNL     1       6.628   6.631  17.152  0.00  0.00    +0.000 A 
ATOM      7  C   UNL     1       6.752   5.628  18.090  0.00  0.00    +0.000 A 
ATOM      8  S   UNL     1       7.949   6.057  19.236  0.00  0.00    +0.000 S 
ATOM      9  C   UNL     1       5.925   4.383  18.120  0.00  0.00    +0.000 C 
ATOM     10  C   UNL     1       5.195   4.194  16.771  0.00  0.00    +0.000 C 
ATOM     11  C   UNL     1       4.612   5.510  16.225  0.00  0.00    +0.000 C 
ATOM     12  C   UNL     1       5.713   6.552  15.983  0.00  0.00    +0.000 C 
ATOM     13  H   UNL     1       9.508   8.138  19.834  0.00  0.00    +0.000 HD
ENDROOT
BRANCH   2  14
ATOM     14  C   UNL     1       9.922  10.718  19.455  0.00  0.00    +0.000 C 
ATOM     15  C   UNL     1       9.503  10.982  20.904  0.00  0.00    +0.000 C 
ATOM     16  C   UNL     1       8.518  12.136  21.033  0.00  0.00    +0.000 C 
ATOM     17  C   UNL     1       9.077  13.424  20.433  0.00  0.00    +0.000 C 
ATOM     18  C   UNL     1       9.801  13.242  19.122  0.00  0.00    +0.000 A 
ATOM     19  C   UNL     1      10.114  14.375  18.358  0.00  0.00    +0.000 A 
ATOM     20  C   UNL     1      10.866  14.262  17.187  0.00  0.00    +0.000 A 
ATOM     21  C   UNL     1      11.323  13.017  16.770  0.00  0.00    +0.000 A 
ATOM     22  C   UNL     1      11.014  11.882  17.515  0.00  0.00    +0.000 A 
ATOM     23  C   UNL     1      10.249  11.982  18.690  0.00  0.00    +0.000 A 
ENDBRANCH   2  14
TORSDOF 1
ENDMDL
MODEL 6
REMARK VINA RESULT:      -7.8      2.524      8.069
REMARK  Name = 
REMARK  1 active torsions:
REMARK  status: ('A' for Active; 'I' for Inactive)
REMARK    1  A    between atoms: C_2  and  C_13
REMARK                            x       y       z     vdW  Elec       q    Type
REMARK                         _______ _______ _______ _____ _____    ______ ____
ROOT
ATOM      1  O   UNL     1       1.826   9.891  17.553  0.00  0.00    +0.000 OA
ATOM      2  C   UNL     1       1.419   9.454  18.634  0.00  0.00    +0.000 C 
ATOM      3  N   UNL     1       1.790   8.257  19.212  0.00  0.00    +0.000 N 
ATOM      4  C   UNL     1       2.665   7.417  18.572  0.00  0.00    +0.000 A 
ATOM      5  N   UNL     1       3.492   7.707  17.601  0.00  0.00    +0.000 NA
ATOM      6  C   UNL     1       4.145   6.568  17.199  0.00  0.00    +0.000 A 
ATOM      7  C   UNL     1       3.802   5.415  17.873  0.00  0.00    +0.000 A 
ATOM      8  S   UNL     1       2.674   5.785  19.107  0.00  0.00    +0.000 S 
ATOM      9  C   UNL     1       4.306   4.049  17.536  0.00  0.00    +0.000 C 
ATOM     10  C   UNL     1       5.531   4.148  16.599  0.00  0.00    +0.000 C 
ATOM     11  C   UNL     1       5.351   5.212  15.500  0.00  0.00    +0.000 C 
ATOM     12  C   UNL     1       5.148   6.609  16.102  0.00  0.00    +0.000 C 
ATOM     13  H   UNL     1       1.275   7.876  19.993  0.00  0.00    +0.000 HD
ENDROOT
BRANCH   2  14
ATOM     14  C   UNL     1       0.419  10.310  19.429  0.00  0.00    +0.000 C 
ATOM     15  C   UNL     1      -1.028   9.877  19.175  0.00  0.00    +0.000 C 
ATOM     16  C   UNL     1      -1.625  10.517  17.931  0.00  0.00    +0.000 C 
ATOM     17  C   UNL     1      -1.566  12.042  17.997  0.00  0.00    +0.000 C 
ATOM     18  C   UNL     1      -0.270  12.595  18.537  0.00  0.00    +0.000 A 
ATOM     19  C   UNL     1      -0.005  13.964  18.390  0.00  0.00    +0.000 A 
ATOM     20  C   UNL     1       1.135  14.536  18.957  0.00  0.00    +0.000 A 
ATOM     21  C   UNL     1       2.020  13.749  19.686  0.00  0.00    +0.000 A 
ATOM     22  C   UNL     1       1.774  12.387  19.834  0.00  0.00    +0.000 A 
ATOM     23  C   UNL     1       0.634  11.798  19.259  0.00  0.00    +0.000 A 
ENDBRANCH   2  14
TORSDOF 1
ENDMDL
MODEL 7
REMARK VINA RESULT:      -7.5      2.073      7.539
REMARK  Name = 
REMARK  1 active torsions:
REMARK  status: ('A' for Active; 'I' for Inactive)
REMARK    1  A    between atoms: C_2  and  C_13
REMARK                            x       y       z     vdW  Elec       q    Type
REMARK                         _______ _______ _______ _____ _____    ______ ____
ROOT
ATOM      1  O   UNL     1       0.573   8.486  21.094  0.00  0.00    +0.000 OA
ATOM      2  C   UNL     1       1.107   8.908  20.064  0.00  0.00    +0.000 C 
ATOM      3  N   UNL     1       1.913   8.176  19.215  0.00  0.00    +0.000 N 
ATOM      4  C   UNL     1       2.209   6.866  19.494  0.00  0.00    +0.000 A 
ATOM      5  N   UNL     1       1.579   6.055  20.303  0.00  0.00    +0.000 NA
ATOM      6  C   UNL     1       2.234   4.849  20.347  0.00  0.00    +0.000 A 
ATOM      7  C   UNL     1       3.367   4.758  19.565  0.00  0.00    +0.000 A 
ATOM      8  S   UNL     1       3.576   6.212  18.686  0.00  0.00    +0.000 S 
ATOM      9  C   UNL     1       4.290   3.583  19.537  0.00  0.00    +0.000 C 
ATOM     10  C   UNL     1       3.616   2.359  20.195  0.00  0.00    +0.000 C 
ATOM     11  C   UNL     1       2.849   2.724  21.480  0.00  0.00    +0.000 C 
ATOM     12  C   UNL     1       1.731   3.737  21.195  0.00  0.00    +0.000 C 
ATOM     13  H   UNL     1       2.469   8.633  18.506  0.00  0.00    +0.000 HD
ENDROOT
BRANCH   2  14
ATOM     14  C   UNL     1       0.854  10.371  19.665  0.00  0.00    +0.000 C 
ATOM     15  C   UNL     1       1.103  11.329  20.834  0.00  0.00    +0.000 C 
ATOM     16  C   UNL     1      -0.108  11.475  21.745  0.00  0.00    +0.000 C 
ATOM     17  C   UNL     1      -1.342  11.939  20.973  0.00  0.00    +0.000 C 
ATOM     18  C   UNL     1      -1.529  11.273  19.633  0.00  0.00    +0.000 A 
ATOM     19  C   UNL     1      -2.755  11.421  18.969  0.00  0.00    +0.000 A 
ATOM     20  C   UNL     1      -2.939  10.903  17.685  0.00  0.00    +0.000 A 
ATOM     21  C   UNL     1      -1.898  10.240  17.046  0.00  0.00    +0.000 A 
ATOM     22  C   UNL     1      -0.678  10.079  17.696  0.00  0.00    +0.000 A 
ATOM     23  C   UNL     1      -0.483  10.587  18.992  0.00  0.00    +0.000 A 
ENDBRANCH   2  14
TORSDOF 1
ENDMDL
MODEL 8
REMARK VINA RESULT:      -7.3      1.901      7.701
REMARK  Name = 
REMARK  1 active torsions:
REMARK  status: ('A' for Active; 'I' for Inactive)
REMARK    1  A    between atoms: C_2  and  C_13
REMARK                            x       y       z     vdW  Elec       q    Type
REMARK                         _______ _______ _______ _____ _____    ______ ____
ROOT
ATOM      1  O   UNL     1       0.336   7.273  21.200  0.00  0.00    +0.000 OA
ATOM      2  C   UNL     1       1.345   7.934  20.932  0.00  0.00    +0.000 C 
ATOM      3  N   UNL     1       2.433   7.488  20.210  0.00  0.00    +0.000 N 
ATOM      4  C   UNL     1       2.475   6.200  19.738  0.00  0.00    +0.000 A 
ATOM      5  N   UNL     1       1.478   5.370  19.581  0.00  0.00    +0.000 NA
ATOM      6  C   UNL     1       1.954   4.158  19.144  0.00  0.00    +0.000 A 
ATOM      7  C   UNL     1       3.321   4.081  18.977  0.00  0.00    +0.000 A 
ATOM      8  S   UNL     1       4.028   5.605  19.306  0.00  0.00    +0.000 S 
ATOM      9  C   UNL     1       4.066   2.837  18.613  0.00  0.00    +0.000 C 
ATOM     10  C   UNL     1       3.087   1.764  18.086  0.00  0.00    +0.000 C 
ATOM     11  C   UNL     1       1.789   1.689  18.912  0.00  0.00    +0.000 C 
ATOM     12  C   UNL     1       1.030   3.023  18.884  0.00  0.00    +0.000 C 
ATOM     13  H   UNL     1       3.297   8.012  20.197  0.00  0.00    +0.000 HD
ENDROOT
BRANCH   2  14
ATOM     14  C   UNL     1       1.409   9.388  21.427  0.00  0.00    +0.000 C 
ATOM     15  C   UNL     1       1.262   9.477  22.949  0.00  0.00    +0.000 C 
ATOM     16  C   UNL     1      -0.192   9.495  23.401  0.00  0.00    +0.000 C 
ATOM     17  C   UNL     1      -0.969  10.641  22.757  0.00  0.00    +0.000 C 
ATOM     18  C   UNL     1      -0.670  10.856  21.294  0.00  0.00    +0.000 A 
ATOM     19  C   UNL     1      -1.512  11.691  20.547  0.00  0.00    +0.000 A 
ATOM     20  C   UNL     1      -1.220  11.994  19.215  0.00  0.00    +0.000 A 
ATOM     21  C   UNL     1      -0.077  11.475  18.618  0.00  0.00    +0.000 A 
ATOM     22  C   UNL     1       0.765  10.638  19.346  0.00  0.00    +0.000 A 
ATOM     23  C   UNL     1       0.475  10.317  20.683  0.00  0.00    +0.000 A 
ENDBRANCH   2  14
TORSDOF 1
ENDMDL
MODEL 9
REMARK VINA RESULT:      -7.3      1.665      2.205
REMARK  Name = 
REMARK  1 active torsions:
REMARK  status: ('A' for Active; 'I' for Inactive)
REMARK    1  A    between atoms: C_2  and  C_13
REMARK                            x       y       z     vdW  Elec       q    Type
REMARK                         _______ _______ _______ _____ _____    ______ ____
ROOT
ATOM      1  O   UNL     1       1.170   7.180  21.483  0.00  0.00    +0.000 OA
ATOM      2  C   UNL     1       1.715   7.455  20.409  0.00  0.00    +0.000 C 
ATOM      3  N   UNL     1       1.596   8.649  19.726  0.00  0.00    +0.000 N 
ATOM      4  C   UNL     1       0.798   9.653  20.213  0.00  0.00    +0.000 A 
ATOM      5  N   UNL     1       0.348   9.801  21.432  0.00  0.00    +0.000 NA
ATOM      6  C   UNL     1      -0.469  10.903  21.489  0.00  0.00    +0.000 A 
ATOM      7  C   UNL     1      -0.636  11.583  20.300  0.00  0.00    +0.000 A 
ATOM      8  S   UNL     1       0.328  10.859  19.084  0.00  0.00    +0.000 S 
ATOM      9  C   UNL     1      -1.558  12.742  20.104  0.00  0.00    +0.000 C 
ATOM     10  C   UNL     1      -2.003  13.307  21.471  0.00  0.00    +0.000 C 
ATOM     11  C   UNL     1      -2.338  12.201  22.489  0.00  0.00    +0.000 C 
ATOM     12  C   UNL     1      -1.122  11.306  22.762  0.00  0.00    +0.000 C 
ATOM     13  H   UNL     1       1.908   8.732  18.769  0.00  0.00    +0.000 HD
ENDROOT
BRANCH   2  14
ATOM     14  C   UNL     1       2.621   6.393  19.765  0.00  0.00    +0.000 C 
ATOM     15  C   UNL     1       2.807   6.639  18.265  0.00  0.00    +0.000 C 
ATOM     16  C   UNL     1       1.685   6.044  17.426  0.00  0.00    +0.000 C 
ATOM     17  C   UNL     1       1.533   4.544  17.670  0.00  0.00    +0.000 C 
ATOM     18  C   UNL     1       1.644   4.131  19.117  0.00  0.00    +0.000 A 
ATOM     19  C   UNL     1       1.255   2.834  19.482  0.00  0.00    +0.000 A 
ATOM     20  C   UNL     1       1.429   2.378  20.790  0.00  0.00    +0.000 A 
ATOM     21  C   UNL     1       2.003   3.207  21.746  0.00  0.00    +0.000 A 
ATOM     22  C   UNL     1       2.387   4.500  21.400  0.00  0.00    +0.000 A 
ATOM     23  C   UNL     1       2.207   4.974  20.089  0.00  0.00    +0.000 A 
ENDBRANCH   2  14
TORSDOF 1
ENDMDL
