MODEL 1
REMARK VINA RESULT:      -8.2      0.000      0.000
REMARK  Name = 
REMARK  5 active torsions:
REMARK  status: ('A' for Active; 'I' for Inactive)
REMARK    1  A    between atoms: C_2  and  C_3
REMARK    2  A    between atoms: C_7  and  C_8
REMARK    3  A    between atoms: C_10  and  N_11
REMARK    4  A    between atoms: C_14  and  N_15
REMARK    5  A    between atoms: C_24  and  C_25
REMARK                            x       y       z     vdW  Elec       q    Type
REMARK                         _______ _______ _______ _____ _____    ______ ____
ROOT
ATOM      1  C   UNL     1       4.321   5.872  17.562  0.00  0.00    +0.000 A 
ATOM      2  C   UNL     1       3.668   7.085  17.692  0.00  0.00    +0.000 A 
ATOM      3  C   UNL     1       2.695   7.184  18.666  0.00  0.00    +0.000 A 
ATOM      4  N   UNL     1       2.439   6.160  19.480  0.00  0.00    +0.000 NA
ATOM      5  C   UNL     1       3.122   5.021  19.319  0.00  0.00    +0.000 A 
ATOM      6  N   UNL     1       4.066   4.829  18.387  0.00  0.00    +0.000 NA
ENDROOT
BRANCH   1  11
ATOM      7  C   UNL     1       5.992   4.587  14.391  0.00  0.00    +0.000 A 
ATOM      8  C   UNL     1       7.252   5.126  14.582  0.00  0.00    +0.000 A 
ATOM      9  N   UNL     1       7.586   5.872  15.656  0.00  0.00    +0.000 NA
ATOM     10  C   UNL     1       6.613   6.081  16.581  0.00  0.00    +0.000 A 
ATOM     11  C   UNL     1       5.303   5.599  16.494  0.00  0.00    +0.000 A 
ATOM     12  C   UNL     1       5.011   4.827  15.359  0.00  0.00    +0.000 A 
BRANCH   7  14
ATOM     13  N   UNL     1       5.481   3.156  12.301  0.00  0.00    +0.000 NA
ATOM     14  C   UNL     1       5.713   3.797  13.231  0.00  0.00    +0.000 C 
ENDBRANCH   7  14
ENDBRANCH   1  11
BRANCH   3  15
ATOM     15  N   UNL     1       1.847   8.294  18.709  0.00  0.00    +0.000 N 
ATOM     16  C   UNL     1       1.530   8.716  20.082  0.00  0.00    +0.000 C 
ATOM     17  C   UNL     1       0.241   9.520  20.006  0.00  0.00    +0.000 C 
ATOM     18  C   UNL     1       0.387  10.793  19.142  0.00  0.00    +0.000 C 
ATOM     19  C   UNL     1       1.028  10.381  17.774  0.00  0.00    +0.000 C 
ATOM     20  C   UNL     1       2.241   9.438  17.881  0.00  0.00    +0.000 C 
BRANCH  18  21
ATOM     21  N   UNL     1       1.123  11.926  19.759  0.00  0.00    +0.000 NA
ATOM     22  C   UNL     1       0.560  12.478  21.018  0.00  0.00    +0.000 C 
ATOM     23  C   UNL     1      -0.673  13.382  20.848  0.00  0.00    +0.000 C 
ATOM     24  O   UNL     1      -0.379  14.483  19.984  0.00  0.00    +0.000 OA
ATOM     25  C   UNL     1       0.038  14.001  18.704  0.00  0.00    +0.000 C 
ATOM     26  C   UNL     1       1.267  13.074  18.815  0.00  0.00    +0.000 C 
ENDBRANCH  18  21
ENDBRANCH   3  15
BRANCH   5  27
ATOM     27  C   UNL     1       2.754   3.929  20.234  0.00  0.00    +0.000 A 
ATOM     28  C   UNL     1       1.478   3.907  20.822  0.00  0.00    +0.000 A 
ATOM     29  C   UNL     1       1.150   2.892  21.707  0.00  0.00    +0.000 A 
ATOM     30  N   UNL     1       1.995   1.899  22.043  0.00  0.00    +0.000 NA
ATOM     31  C   UNL     1       3.210   1.924  21.465  0.00  0.00    +0.000 A 
ATOM     32  C   UNL     1       3.632   2.893  20.568  0.00  0.00    +0.000 A 
ENDBRANCH   5  27
TORSDOF 5
ENDMDL
MODEL 2
REMARK VINA RESULT:      -7.7      3.898     10.204
REMARK  Name = 
REMARK  5 active torsions:
REMARK  status: ('A' for Active; 'I' for Inactive)
REMARK    1  A    between atoms: C_2  and  C_3
REMARK    2  A    between atoms: C_7  and  C_8
REMARK    3  A    between atoms: C_10  and  N_11
REMARK    4  A    between atoms: C_14  and  N_15
REMARK    5  A    between atoms: C_24  and  C_25
REMARK                            x       y       z     vdW  Elec       q    Type
REMARK                         _______ _______ _______ _____ _____    ______ ____
ROOT
ATOM      1  C   UNL     1      -0.753  11.453  20.431  0.00  0.00    +0.000 A 
ATOM      2  C   UNL     1       0.370  10.648  20.355  0.00  0.00    +0.000 A 
ATOM      3  C   UNL     1       0.514   9.859  19.231  0.00  0.00    +0.000 A 
ATOM      4  N   UNL     1      -0.373   9.920  18.239  0.00  0.00    +0.000 NA
ATOM      5  C   UNL     1      -1.426  10.737  18.362  0.00  0.00    +0.000 A 
ATOM      6  N   UNL     1      -1.656  11.519  19.426  0.00  0.00    +0.000 NA
ENDROOT
BRANCH   1  11
ATOM      7  C   UNL     1      -2.490  12.857  23.515  0.00  0.00    +0.000 A 
ATOM      8  C   UNL     1      -1.605  13.880  23.809  0.00  0.00    +0.000 A 
ATOM      9  N   UNL     1      -0.497  14.135  23.084  0.00  0.00    +0.000 NA
ATOM     10  C   UNL     1      -0.269  13.331  22.013  0.00  0.00    +0.000 A 
ATOM     11  C   UNL     1      -1.081  12.261  21.622  0.00  0.00    +0.000 A 
ATOM     12  C   UNL     1      -2.222  12.042  22.410  0.00  0.00    +0.000 A 
BRANCH   7  14
ATOM     13  N   UNL     1      -4.588  12.495  24.979  0.00  0.00    +0.000 NA
ATOM     14  C   UNL     1      -3.652  12.652  24.324  0.00  0.00    +0.000 C 
ENDBRANCH   7  14
ENDBRANCH   1  11
BRANCH   3  15
ATOM     15  N   UNL     1       1.495   8.865  19.185  0.00  0.00    +0.000 N 
ATOM     16  C   UNL     1       1.177   7.711  20.040  0.00  0.00    +0.000 C 
ATOM     17  C   UNL     1       2.492   7.001  20.324  0.00  0.00    +0.000 C 
ATOM     18  C   UNL     1       3.166   6.467  19.040  0.00  0.00    +0.000 C 
ATOM     19  C   UNL     1       3.219   7.633  17.998  0.00  0.00    +0.000 C 
ATOM     20  C   UNL     1       1.912   8.434  17.847  0.00  0.00    +0.000 C 
BRANCH  18  21
ATOM     21  N   UNL     1       2.570   5.243  18.445  0.00  0.00    +0.000 NA
ATOM     22  C   UNL     1       2.104   4.200  19.395  0.00  0.00    +0.000 C 
ATOM     23  C   UNL     1       3.214   3.342  20.027  0.00  0.00    +0.000 C 
ATOM     24  O   UNL     1       3.991   2.694  19.016  0.00  0.00    +0.000 OA
ATOM     25  C   UNL     1       4.579   3.670  18.152  0.00  0.00    +0.000 C 
ATOM     26  C   UNL     1       3.509   4.572  17.498  0.00  0.00    +0.000 C 
ENDBRANCH  18  21
ENDBRANCH   3  15
BRANCH   5  27
ATOM     27  C   UNL     1      -2.377  10.717  17.239  0.00  0.00    +0.000 A 
ATOM     28  C   UNL     1      -3.564  11.465  17.312  0.00  0.00    +0.000 A 
ATOM     29  C   UNL     1      -4.468  11.416  16.263  0.00  0.00    +0.000 A 
ATOM     30  N   UNL     1      -4.275  10.683  15.150  0.00  0.00    +0.000 NA
ATOM     31  C   UNL     1      -3.129   9.980  15.087  0.00  0.00    +0.000 A 
ATOM     32  C   UNL     1      -2.162   9.965  16.080  0.00  0.00    +0.000 A 
ENDBRANCH   5  27
TORSDOF 5
ENDMDL
MODEL 3
REMARK VINA RESULT:      -7.7      1.373      1.910
REMARK  Name = 
REMARK  5 active torsions:
REMARK  status: ('A' for Active; 'I' for Inactive)
REMARK    1  A    between atoms: C_2  and  C_3
REMARK    2  A    between atoms: C_7  and  C_8
REMARK    3  A    between atoms: C_10  and  N_11
REMARK    4  A    between atoms: C_14  and  N_15
REMARK    5  A    between atoms: C_24  and  C_25
REMARK                            x       y       z     vdW  Elec       q    Type
REMARK                         _______ _______ _______ _____ _____    ______ ____
ROOT
ATOM      1  C   UNL     1       4.447   5.788  17.504  0.00  0.00    +0.000 A 
ATOM      2  C   UNL     1       3.901   7.043  17.705  0.00  0.00    +0.000 A 
ATOM      3  C   UNL     1       2.993   7.186  18.735  0.00  0.00    +0.000 A 
ATOM      4  N   UNL     1       2.703   6.159  19.534  0.00  0.00    +0.000 NA
ATOM      5  C   UNL     1       3.284   4.976  19.303  0.00  0.00    +0.000 A 
ATOM      6  N   UNL     1       4.157   4.742  18.313  0.00  0.00    +0.000 NA
ENDROOT
BRANCH   1  11
ATOM      7  C   UNL     1       5.836   4.476  14.210  0.00  0.00    +0.000 A 
ATOM      8  C   UNL     1       7.143   4.915  14.341  0.00  0.00    +0.000 A 
ATOM      9  N   UNL     1       7.591   5.603  15.412  0.00  0.00    +0.000 NA
ATOM     10  C   UNL     1       6.690   5.856  16.397  0.00  0.00    +0.000 A 
ATOM     11  C   UNL     1       5.345   5.474  16.375  0.00  0.00    +0.000 A 
ATOM     12  C   UNL     1       4.932   4.759  15.239  0.00  0.00    +0.000 A 
BRANCH   7  14
ATOM     13  N   UNL     1       5.118   3.149  12.112  0.00  0.00    +0.000 NA
ATOM     14  C   UNL     1       5.434   3.742  13.050  0.00  0.00    +0.000 C 
ENDBRANCH   7  14
ENDBRANCH   1  11
BRANCH   3  15
ATOM     15  N   UNL     1       2.239   8.356  18.857  0.00  0.00    +0.000 N 
ATOM     16  C   UNL     1       1.340   8.575  17.714  0.00  0.00    +0.000 C 
ATOM     17  C   UNL     1       1.012  10.061  17.694  0.00  0.00    +0.000 C 
ATOM     18  C   UNL     1       0.275  10.521  18.971  0.00  0.00    +0.000 C 
ATOM     19  C   UNL     1       1.080  10.006  20.211  0.00  0.00    +0.000 C 
ATOM     20  C   UNL     1       1.532   8.537  20.129  0.00  0.00    +0.000 C 
BRANCH  18  21
ATOM     21  N   UNL     1      -1.160  10.150  19.072  0.00  0.00    +0.000 NA
ATOM     22  C   UNL     1      -1.923  10.086  17.798  0.00  0.00    +0.000 C 
ATOM     23  C   UNL     1      -2.325  11.447  17.203  0.00  0.00    +0.000 C 
ATOM     24  O   UNL     1      -3.104  12.198  18.139  0.00  0.00    +0.000 OA
ATOM     25  C   UNL     1      -2.356  12.407  19.339  0.00  0.00    +0.000 C 
ATOM     26  C   UNL     1      -1.910  11.072  19.975  0.00  0.00    +0.000 C 
ENDBRANCH  18  21
ENDBRANCH   3  15
BRANCH   5  27
ATOM     27  C   UNL     1       2.882   3.887  20.207  0.00  0.00    +0.000 A 
ATOM     28  C   UNL     1       1.601   3.892  20.785  0.00  0.00    +0.000 A 
ATOM     29  C   UNL     1       1.241   2.879  21.659  0.00  0.00    +0.000 A 
ATOM     30  N   UNL     1       2.059   1.864  21.995  0.00  0.00    +0.000 NA
ATOM     31  C   UNL     1       3.279   1.863  21.427  0.00  0.00    +0.000 A 
ATOM     32  C   UNL     1       3.732   2.827  20.540  0.00  0.00    +0.000 A 
ENDBRANCH   5  27
TORSDOF 5
ENDMDL
MODEL 4
REMARK VINA RESULT:      -7.6      3.830     10.223
REMARK  Name = 
REMARK  5 active torsions:
REMARK  status: ('A' for Active; 'I' for Inactive)
REMARK    1  A    between atoms: C_2  and  C_3
REMARK    2  A    between atoms: C_7  and  C_8
REMARK    3  A    between atoms: C_10  and  N_11
REMARK    4  A    between atoms: C_14  and  N_15
REMARK    5  A    between atoms: C_24  and  C_25
REMARK                            x       y       z     vdW  Elec       q    Type
REMARK                         _______ _______ _______ _____ _____    ______ ____
ROOT
ATOM      1  C   UNL     1      -1.197  11.508  18.454  0.00  0.00    +0.000 A 
ATOM      2  C   UNL     1      -0.545  10.329  18.768  0.00  0.00    +0.000 A 
ATOM      3  C   UNL     1       0.818  10.389  18.976  0.00  0.00    +0.000 A 
ATOM      4  N   UNL     1       1.463  11.554  18.927  0.00  0.00    +0.000 NA
ATOM      5  C   UNL     1       0.772  12.664  18.642  0.00  0.00    +0.000 A 
ATOM      6  N   UNL     1      -0.547  12.694  18.403  0.00  0.00    +0.000 NA
ENDROOT
BRANCH   1  11
ATOM      7  C   UNL     1      -4.974  11.958  18.622  0.00  0.00    +0.000 A 
ATOM      8  C   UNL     1      -5.290  11.587  17.327  0.00  0.00    +0.000 A 
ATOM      9  N   UNL     1      -4.368  11.210  16.417  0.00  0.00    +0.000 NA
ATOM     10  C   UNL     1      -3.073  11.201  16.827  0.00  0.00    +0.000 A 
ATOM     11  C   UNL     1      -2.630  11.564  18.102  0.00  0.00    +0.000 A 
ATOM     12  C   UNL     1      -3.630  11.945  19.010  0.00  0.00    +0.000 A 
BRANCH   7  14
ATOM     13  N   UNL     1      -6.839  12.649  20.272  0.00  0.00    +0.000 NA
ATOM     14  C   UNL     1      -6.007  12.336  19.538  0.00  0.00    +0.000 C 
ENDBRANCH   7  14
ENDBRANCH   1  11
BRANCH   3  15
ATOM     15  N   UNL     1       1.572   9.217  19.076  0.00  0.00    +0.000 N 
ATOM     16  C   UNL     1       1.047   8.287  20.087  0.00  0.00    +0.000 C 
ATOM     17  C   UNL     1       2.196   7.367  20.474  0.00  0.00    +0.000 C 
ATOM     18  C   UNL     1       2.710   6.529  19.282  0.00  0.00    +0.000 C 
ATOM     19  C   UNL     1       2.973   7.500  18.082  0.00  0.00    +0.000 C 
ATOM     20  C   UNL     1       1.855   8.524  17.815  0.00  0.00    +0.000 C 
BRANCH  18  21
ATOM     21  N   UNL     1       1.859   5.384  18.868  0.00  0.00    +0.000 NA
ATOM     22  C   UNL     1       1.461   4.430  19.935  0.00  0.00    +0.000 C 
ATOM     23  C   UNL     1       2.557   3.445  20.379  0.00  0.00    +0.000 C 
ATOM     24  O   UNL     1       3.032   2.680  19.267  0.00  0.00    +0.000 OA
ATOM     25  C   UNL     1       3.556   3.553  18.263  0.00  0.00    +0.000 C 
ATOM     26  C   UNL     1       2.501   4.577  17.789  0.00  0.00    +0.000 C 
ENDBRANCH  18  21
ENDBRANCH   3  15
BRANCH   5  27
ATOM     27  C   UNL     1       1.564  13.902  18.570  0.00  0.00    +0.000 A 
ATOM     28  C   UNL     1       0.965  15.137  18.870  0.00  0.00    +0.000 A 
ATOM     29  C   UNL     1       1.710  16.301  18.770  0.00  0.00    +0.000 A 
ATOM     30  N   UNL     1       3.004  16.324  18.400  0.00  0.00    +0.000 NA
ATOM     31  C   UNL     1       3.571  15.134  18.126  0.00  0.00    +0.000 A 
ATOM     32  C   UNL     1       2.912  13.917  18.198  0.00  0.00    +0.000 A 
ENDBRANCH   5  27
TORSDOF 5
ENDMDL
MODEL 5
REMARK VINA RESULT:      -7.5      3.835      9.360
REMARK  Name = 
REMARK  5 active torsions:
REMARK  status: ('A' for Active; 'I' for Inactive)
REMARK    1  A    between atoms: C_2  and  C_3
REMARK    2  A    between atoms: C_7  and  C_8
REMARK    3  A    between atoms: C_10  and  N_11
REMARK    4  A    between atoms: C_14  and  N_15
REMARK    5  A    between atoms: C_24  and  C_25
REMARK                            x       y       z     vdW  Elec       q    Type
REMARK                         _______ _______ _______ _____ _____    ______ ____
ROOT
ATOM      1  C   UNL     1      -1.043  10.818  18.642  0.00  0.00    +0.000 A 
ATOM      2  C   UNL     1      -0.301   9.650  18.646  0.00  0.00    +0.000 A 
ATOM      3  C   UNL     1       0.890   9.653  19.344  0.00  0.00    +0.000 A 
ATOM      4  N   UNL     1       1.274  10.730  20.029  0.00  0.00    +0.000 NA
ATOM      5  C   UNL     1       0.500  11.821  20.007  0.00  0.00    +0.000 A 
ATOM      6  N   UNL     1      -0.658  11.913  19.338  0.00  0.00    +0.000 NA
ENDROOT
BRANCH   1  11
ATOM      7  C   UNL     1      -3.601  10.728  15.823  0.00  0.00    +0.000 A 
ATOM      8  C   UNL     1      -4.637  11.394  16.455  0.00  0.00    +0.000 A 
ATOM      9  N   UNL     1      -4.560  11.857  17.720  0.00  0.00    +0.000 NA
ATOM     10  C   UNL     1      -3.388  11.649  18.376  0.00  0.00    +0.000 A 
ATOM     11  C   UNL     1      -2.277  10.983  17.849  0.00  0.00    +0.000 A 
ATOM     12  C   UNL     1      -2.411  10.524  16.529  0.00  0.00    +0.000 A 
BRANCH   7  14
ATOM     13  N   UNL     1      -3.879   9.912  13.387  0.00  0.00    +0.000 NA
ATOM     14  C   UNL     1      -3.751  10.274  14.474  0.00  0.00    +0.000 C 
ENDBRANCH   7  14
ENDBRANCH   1  11
BRANCH   3  15
ATOM     15  N   UNL     1       1.792   8.595  19.209  0.00  0.00    +0.000 N 
ATOM     16  C   UNL     1       1.422   7.425  20.020  0.00  0.00    +0.000 C 
ATOM     17  C   UNL     1       2.691   6.609  20.215  0.00  0.00    +0.000 C 
ATOM     18  C   UNL     1       3.275   6.094  18.881  0.00  0.00    +0.000 C 
ATOM     19  C   UNL     1       3.375   7.305  17.894  0.00  0.00    +0.000 C 
ATOM     20  C   UNL     1       2.126   8.204  17.836  0.00  0.00    +0.000 C 
BRANCH  18  21
ATOM     21  N   UNL     1       2.568   4.948  18.252  0.00  0.00    +0.000 NA
ATOM     22  C   UNL     1       1.997   3.932  19.173  0.00  0.00    +0.000 C 
ATOM     23  C   UNL     1       3.014   2.956  19.790  0.00  0.00    +0.000 C 
ATOM     24  O   UNL     1       3.733   2.261  18.767  0.00  0.00    +0.000 OA
ATOM     25  C   UNL     1       4.418   3.196  17.930  0.00  0.00    +0.000 C 
ATOM     26  C   UNL     1       3.446   4.213  17.294  0.00  0.00    +0.000 C 
ENDBRANCH  18  21
ENDBRANCH   3  15
BRANCH   5  27
ATOM     27  C   UNL     1       1.014  12.977  20.759  0.00  0.00    +0.000 A 
ATOM     28  C   UNL     1       0.145  13.731  21.565  0.00  0.00    +0.000 A 
ATOM     29  C   UNL     1       0.630  14.836  22.246  0.00  0.00    +0.000 A 
ATOM     30  N   UNL     1       1.913  15.240  22.186  0.00  0.00    +0.000 NA
ATOM     31  C   UNL     1       2.739  14.503  21.420  0.00  0.00    +0.000 A 
ATOM     32  C   UNL     1       2.351  13.382  20.703  0.00  0.00    +0.000 A 
ENDBRANCH   5  27
TORSDOF 5
ENDMDL
MODEL 6
REMARK VINA RESULT:      -7.5      3.851      9.436
REMARK  Name = 
REMARK  5 active torsions:
REMARK  status: ('A' for Active; 'I' for Inactive)
REMARK    1  A    between atoms: C_2  and  C_3
REMARK    2  A    between atoms: C_7  and  C_8
REMARK    3  A    between atoms: C_10  and  N_11
REMARK    4  A    between atoms: C_14  and  N_15
REMARK    5  A    between atoms: C_24  and  C_25
REMARK                            x       y       z     vdW  Elec       q    Type
REMARK                         _______ _______ _______ _____ _____    ______ ____
ROOT
ATOM      1  C   UNL     1      -0.826  10.857  18.377  0.00  0.00    +0.000 A 
ATOM      2  C   UNL     1      -0.180   9.646  18.552  0.00  0.00    +0.000 A 
ATOM      3  C   UNL     1       1.072   9.668  19.132  0.00  0.00    +0.000 A 
ATOM      4  N   UNL     1       1.606  10.814  19.554  0.00  0.00    +0.000 NA
ATOM      5  C   UNL     1       0.920  11.950  19.379  0.00  0.00    +0.000 A 
ATOM      6  N   UNL     1      -0.289  12.023  18.805  0.00  0.00    +0.000 NA
ENDROOT
BRANCH   1  11
ATOM      7  C   UNL     1      -3.569  10.703  15.741  0.00  0.00    +0.000 A 
ATOM      8  C   UNL     1      -4.583  11.322  16.453  0.00  0.00    +0.000 A 
ATOM      9  N   UNL     1      -4.434  11.773  17.716  0.00  0.00    +0.000 NA
ATOM     10  C   UNL     1      -3.213  11.602  18.287  0.00  0.00    +0.000 A 
ATOM     11  C   UNL     1      -2.118  10.984  17.674  0.00  0.00    +0.000 A 
ATOM     12  C   UNL     1      -2.326  10.535  16.361  0.00  0.00    +0.000 A 
BRANCH   7  14
ATOM     13  N   UNL     1      -3.988   9.897  13.322  0.00  0.00    +0.000 NA
ATOM     14  C   UNL     1      -3.796  10.258  14.400  0.00  0.00    +0.000 C 
ENDBRANCH   7  14
ENDBRANCH   1  11
BRANCH   3  15
ATOM     15  N   UNL     1       1.871   8.522  19.137  0.00  0.00    +0.000 N 
ATOM     16  C   UNL     1       1.381   7.490  20.062  0.00  0.00    +0.000 C 
ATOM     17  C   UNL     1       2.563   6.586  20.377  0.00  0.00    +0.000 C 
ATOM     18  C   UNL     1       3.114   5.873  19.121  0.00  0.00    +0.000 C 
ATOM     19  C   UNL     1       3.342   6.952  18.010  0.00  0.00    +0.000 C 
ATOM     20  C   UNL     1       2.185   7.950  17.824  0.00  0.00    +0.000 C 
BRANCH  18  21
ATOM     21  N   UNL     1       2.310   4.734  18.606  0.00  0.00    +0.000 NA
ATOM     22  C   UNL     1       1.964   3.669  19.581  0.00  0.00    +0.000 C 
ATOM     23  C   UNL     1       3.105   2.696  19.925  0.00  0.00    +0.000 C 
ATOM     24  O   UNL     1       3.604   2.060  18.744  0.00  0.00    +0.000 OA
ATOM     25  C   UNL     1       4.080   3.045  17.824  0.00  0.00    +0.000 C 
ATOM     26  C   UNL     1       2.977   4.061  17.453  0.00  0.00    +0.000 C 
ENDBRANCH  18  21
ENDBRANCH   3  15
BRANCH   5  27
ATOM     27  C   UNL     1       1.596  13.174  19.839  0.00  0.00    +0.000 A 
ATOM     28  C   UNL     1       2.551  13.798  19.018  0.00  0.00    +0.000 A 
ATOM     29  C   UNL     1       3.205  14.932  19.472  0.00  0.00    +0.000 A 
ATOM     30  N   UNL     1       2.975  15.490  20.675  0.00  0.00    +0.000 NA
ATOM     31  C   UNL     1       2.050  14.890  21.448  0.00  0.00    +0.000 A 
ATOM     32  C   UNL     1       1.342  13.756  21.085  0.00  0.00    +0.000 A 
ENDBRANCH   5  27
TORSDOF 5
ENDMDL
MODEL 7
REMARK VINA RESULT:      -7.4      3.743     10.207
REMARK  Name = 
REMARK  5 active torsions:
REMARK  status: ('A' for Active; 'I' for Inactive)
REMARK    1  A    between atoms: C_2  and  C_3
REMARK    2  A    between atoms: C_7  and  C_8
REMARK    3  A    between atoms: C_10  and  N_11
REMARK    4  A    between atoms: C_14  and  N_15
REMARK    5  A    between atoms: C_24  and  C_25
REMARK                            x       y       z     vdW  Elec       q    Type
REMARK                         _______ _______ _______ _____ _____    ______ ____
ROOT
ATOM      1  C   UNL     1      -0.266  11.928  20.323  0.00  0.00    +0.000 A 
ATOM      2  C   UNL     1       0.752  10.994  20.257  0.00  0.00    +0.000 A 
ATOM      3  C   UNL     1       0.669  10.029  19.273  0.00  0.00    +0.000 A 
ATOM      4  N   UNL     1      -0.332  10.040  18.393  0.00  0.00    +0.000 NA
ATOM      5  C   UNL     1      -1.273  10.985  18.495  0.00  0.00    +0.000 A 
ATOM      6  N   UNL     1      -1.283  11.945  19.431  0.00  0.00    +0.000 NA
ENDROOT
BRANCH   1  11
ATOM      7  C   UNL     1      -1.472  14.036  23.256  0.00  0.00    +0.000 A 
ATOM      8  C   UNL     1      -0.416  14.930  23.323  0.00  0.00    +0.000 A 
ATOM      9  N   UNL     1       0.646  14.888  22.493  0.00  0.00    +0.000 NA
ATOM     10  C   UNL     1       0.646  13.910  21.549  0.00  0.00    +0.000 A 
ATOM     11  C   UNL     1      -0.354  12.945  21.390  0.00  0.00    +0.000 A 
ATOM     12  C   UNL     1      -1.437  13.036  22.278  0.00  0.00    +0.000 A 
BRANCH   7  14
ATOM     13  N   UNL     1      -3.463  14.237  24.891  0.00  0.00    +0.000 NA
ATOM     14  C   UNL     1      -2.571  14.148  24.165  0.00  0.00    +0.000 C 
ENDBRANCH   7  14
ENDBRANCH   1  11
BRANCH   3  15
ATOM     15  N   UNL     1       1.532   8.930  19.284  0.00  0.00    +0.000 N 
ATOM     16  C   UNL     1       1.097   7.873  20.209  0.00  0.00    +0.000 C 
ATOM     17  C   UNL     1       2.328   7.039  20.531  0.00  0.00    +0.000 C 
ATOM     18  C   UNL     1       2.924   6.357  19.280  0.00  0.00    +0.000 C 
ATOM     19  C   UNL     1       3.095   7.444  18.167  0.00  0.00    +0.000 C 
ATOM     20  C   UNL     1       1.884   8.375  17.973  0.00  0.00    +0.000 C 
BRANCH  18  21
ATOM     21  N   UNL     1       2.189   5.173  18.763  0.00  0.00    +0.000 NA
ATOM     22  C   UNL     1       1.794   4.147  19.762  0.00  0.00    +0.000 C 
ATOM     23  C   UNL     1       2.929   3.223  20.241  0.00  0.00    +0.000 C 
ATOM     24  O   UNL     1       3.531   2.545  19.134  0.00  0.00    +0.000 OA
ATOM     25  C   UNL     1       4.052   3.497  18.204  0.00  0.00    +0.000 C 
ATOM     26  C   UNL     1       2.958   4.463  17.700  0.00  0.00    +0.000 C 
ENDBRANCH  18  21
ENDBRANCH   3  15
BRANCH   5  27
ATOM     27  C   UNL     1      -2.361  10.904  17.506  0.00  0.00    +0.000 A 
ATOM     28  C   UNL     1      -2.187  10.151  16.333  0.00  0.00    +0.000 A 
ATOM     29  C   UNL     1      -3.204  10.105  15.393  0.00  0.00    +0.000 A 
ATOM     30  N   UNL     1      -4.379  10.747  15.539  0.00  0.00    +0.000 NA
ATOM     31  C   UNL     1      -4.538  11.456  16.672  0.00  0.00    +0.000 A 
ATOM     32  C   UNL     1      -3.583  11.563  17.671  0.00  0.00    +0.000 A 
ENDBRANCH   5  27
TORSDOF 5
ENDMDL
MODEL 8
REMARK VINA RESULT:      -7.3      3.901      9.486
REMARK  Name = 
REMARK  5 active torsions:
REMARK  status: ('A' for Active; 'I' for Inactive)
REMARK    1  A    between atoms: C_2  and  C_3
REMARK    2  A    between atoms: C_7  and  C_8
REMARK    3  A    between atoms: C_10  and  N_11
REMARK    4  A    between atoms: C_14  and  N_15
REMARK    5  A    between atoms: C_24  and  C_25
REMARK                            x       y       z     vdW  Elec       q    Type
REMARK                         _______ _______ _______ _____ _____    ______ ____
ROOT
ATOM      1  C   UNL     1       0.855  12.935  18.576  0.00  0.00    +0.000 A 
ATOM      2  C   UNL     1       1.609  11.783  18.705  0.00  0.00    +0.000 A 
ATOM      3  C   UNL     1       0.950  10.574  18.606  0.00  0.00    +0.000 A 
ATOM      4  N   UNL     1      -0.356  10.531  18.342  0.00  0.00    +0.000 NA
ATOM      5  C   UNL     1      -1.025  11.681  18.203  0.00  0.00    +0.000 A 
ATOM      6  N   UNL     1      -0.470  12.897  18.306  0.00  0.00    +0.000 NA
ENDROOT
BRANCH   1  11
ATOM      7  C   UNL     1       3.258  15.874  18.877  0.00  0.00    +0.000 A 
ATOM      8  C   UNL     1       2.344  16.863  19.195  0.00  0.00    +0.000 A 
ATOM      9  N   UNL     1       1.018  16.641  19.310  0.00  0.00    +0.000 NA
ATOM     10  C   UNL     1       0.592  15.367  19.104  0.00  0.00    +0.000 A 
ATOM     11  C   UNL     1       1.415  14.287  18.768  0.00  0.00    +0.000 A 
ATOM     12  C   UNL     1       2.786  14.574  18.663  0.00  0.00    +0.000 A 
BRANCH   7  14
ATOM     13  N   UNL     1       5.774  16.438  18.704  0.00  0.00    +0.000 NA
ATOM     14  C   UNL     1       4.652  16.181  18.781  0.00  0.00    +0.000 C 
ENDBRANCH   7  14
ENDBRANCH   1  11
BRANCH   3  15
ATOM     15  N   UNL     1       1.598   9.384  18.945  0.00  0.00    +0.000 N 
ATOM     16  C   UNL     1       0.924   8.659  20.034  0.00  0.00    +0.000 C 
ATOM     17  C   UNL     1       1.963   7.735  20.653  0.00  0.00    +0.000 C 
ATOM     18  C   UNL     1       2.499   6.690  19.649  0.00  0.00    +0.000 C 
ATOM     19  C   UNL     1       2.929   7.443  18.346  0.00  0.00    +0.000 C 
ATOM     20  C   UNL     1       1.921   8.486  17.832  0.00  0.00    +0.000 C 
BRANCH  18  21
ATOM     21  N   UNL     1       1.593   5.554  19.336  0.00  0.00    +0.000 NA
ATOM     22  C   UNL     1       1.237   4.657  20.466  0.00  0.00    +0.000 C 
ATOM     23  C   UNL     1       2.331   3.659  20.886  0.00  0.00    +0.000 C 
ATOM     24  O   UNL     1       2.716   2.836  19.781  0.00  0.00    +0.000 OA
ATOM     25  C   UNL     1       3.200   3.650  18.711  0.00  0.00    +0.000 C 
ATOM     26  C   UNL     1       2.147   4.684  18.257  0.00  0.00    +0.000 C 
ENDBRANCH  18  21
ENDBRANCH   3  15
BRANCH   5  27
ATOM     27  C   UNL     1      -2.469  11.546  17.948  0.00  0.00    +0.000 A 
ATOM     28  C   UNL     1      -2.921  11.107  16.693  0.00  0.00    +0.000 A 
ATOM     29  C   UNL     1      -4.282  11.012  16.451  0.00  0.00    +0.000 A 
ATOM     30  N   UNL     1      -5.221  11.316  17.367  0.00  0.00    +0.000 NA
ATOM     31  C   UNL     1      -4.776  11.725  18.570  0.00  0.00    +0.000 A 
ATOM     32  C   UNL     1      -3.438  11.851  18.909  0.00  0.00    +0.000 A 
ENDBRANCH   5  27
TORSDOF 5
ENDMDL
MODEL 9
REMARK VINA RESULT:      -7.3      3.432      9.047
REMARK  Name = 
REMARK  5 active torsions:
REMARK  status: ('A' for Active; 'I' for Inactive)
REMARK    1  A    between atoms: C_2  and  C_3
REMARK    2  A    between atoms: C_7  and  C_8
REMARK    3  A    between atoms: C_10  and  N_11
REMARK    4  A    between atoms: C_14  and  N_15
REMARK    5  A    between atoms: C_24  and  C_25
REMARK                            x       y       z     vdW  Elec       q    Type
REMARK                         _______ _______ _______ _____ _____    ______ ____
ROOT
ATOM      1  C   UNL     1       1.270  12.658  19.164  0.00  0.00    +0.000 A 
ATOM      2  C   UNL     1       1.600  11.372  18.772  0.00  0.00    +0.000 A 
ATOM      3  C   UNL     1       0.838  10.337  19.276  0.00  0.00    +0.000 A 
ATOM      4  N   UNL     1      -0.206  10.583  20.067  0.00  0.00    +0.000 NA
ATOM      5  C   UNL     1      -0.488  11.851  20.389  0.00  0.00    +0.000 A 
ATOM      6  N   UNL     1       0.210  12.913  19.965  0.00  0.00    +0.000 NA
ENDROOT
BRANCH   1  11
ATOM      7  C   UNL     1       4.144  14.945  18.158  0.00  0.00    +0.000 A 
ATOM      8  C   UNL     1       3.458  16.147  18.128  0.00  0.00    +0.000 A 
ATOM      9  N   UNL     1       2.142  16.258  18.405  0.00  0.00    +0.000 NA
ATOM     10  C   UNL     1       1.488  15.113  18.732  0.00  0.00    +0.000 A 
ATOM     11  C   UNL     1       2.067  13.841  18.785  0.00  0.00    +0.000 A 
ATOM     12  C   UNL     1       3.439  13.783  18.490  0.00  0.00    +0.000 A 
BRANCH   7  14
ATOM     13  N   UNL     1       6.669  14.867  17.616  0.00  0.00    +0.000 NA
ATOM     14  C   UNL     1       5.543  14.905  17.862  0.00  0.00    +0.000 C 
ENDBRANCH   7  14
ENDBRANCH   1  11
BRANCH   3  15
ATOM     15  N   UNL     1       1.244   9.011  19.106  0.00  0.00    +0.000 N 
ATOM     16  C   UNL     1       2.075   8.819  17.908  0.00  0.00    +0.000 C 
ATOM     17  C   UNL     1       1.988   7.344  17.546  0.00  0.00    +0.000 C 
ATOM     18  C   UNL     1       2.545   6.428  18.659  0.00  0.00    +0.000 C 
ATOM     19  C   UNL     1       1.883   6.851  20.013  0.00  0.00    +0.000 C 
ATOM     20  C   UNL     1       1.848   8.367  20.277  0.00  0.00    +0.000 C 
BRANCH  18  21
ATOM     21  N   UNL     1       4.025   6.368  18.783  0.00  0.00    +0.000 NA
ATOM     22  C   UNL     1       4.801   6.432  17.518  0.00  0.00    +0.000 C 
ATOM     23  C   UNL     1       4.825   5.133  16.694  0.00  0.00    +0.000 C 
ATOM     24  O   UNL     1       5.346   4.050  17.470  0.00  0.00    +0.000 OA
ATOM     25  C   UNL     1       4.545   3.857  18.638  0.00  0.00    +0.000 C 
ATOM     26  C   UNL     1       4.472   5.137  19.499  0.00  0.00    +0.000 C 
ENDBRANCH  18  21
ENDBRANCH   3  15
BRANCH   5  27
ATOM     27  C   UNL     1      -1.634  12.032  21.295  0.00  0.00    +0.000 A 
ATOM     28  C   UNL     1      -2.832  12.583  20.809  0.00  0.00    +0.000 A 
ATOM     29  C   UNL     1      -3.895  12.779  21.675  0.00  0.00    +0.000 A 
ATOM     30  N   UNL     1      -3.854  12.464  22.984  0.00  0.00    +0.000 NA
ATOM     31  C   UNL     1      -2.706  11.928  23.436  0.00  0.00    +0.000 A 
ATOM     32  C   UNL     1      -1.589  11.690  22.650  0.00  0.00    +0.000 A 
ENDBRANCH   5  27
TORSDOF 5
ENDMDL
