MODEL 1
REMARK VINA RESULT:      -7.5      0.000      0.000
REMARK  Name = 
REMARK  0 active torsions:
REMARK  status: ('A' for Active; 'I' for Inactive)
REMARK                            x       y       z     vdW  Elec       q    Type
REMARK                         _______ _______ _______ _____ _____    ______ ____
ROOT
ATOM      1  O   UNL     1       6.529   5.531  14.524  0.00  0.00    +0.000 OA
ATOM      2  C   UNL     1       5.934   5.357  15.578  0.00  0.00    +0.000 C 
ATOM      3  C   UNL     1       5.849   4.015  16.232  0.00  0.00    +0.000 C 
ATOM      4  C   UNL     1       4.422   3.629  16.548  0.00  0.00    +0.000 C 
ATOM      5  C   UNL     1       3.660   4.603  17.415  0.00  0.00    +0.000 A 
ATOM      6  C   UNL     1       4.026   5.955  17.499  0.00  0.00    +0.000 A 
ATOM      7  C   UNL     1       3.390   6.777  18.436  0.00  0.00    +0.000 A 
ATOM      8  C   UNL     1       2.441   6.253  19.316  0.00  0.00    +0.000 A 
ATOM      9  C   UNL     1       2.051   4.909  19.234  0.00  0.00    +0.000 A 
ATOM     10  C   UNL     1       1.151   4.343  20.154  0.00  0.00    +0.000 A 
ATOM     11  C   UNL     1       0.760   3.007  20.045  0.00  0.00    +0.000 A 
ATOM     12  C   UNL     1       1.194   2.245  18.971  0.00  0.00    +0.000 A 
ATOM     13  C   UNL     1       2.082   2.797  18.055  0.00  0.00    +0.000 A 
ATOM     14  C   UNL     1       2.596   4.101  18.213  0.00  0.00    +0.000 A 
ATOM     15  S   UNL     1       5.266   6.709  16.470  0.00  0.00    +0.000 S 
ENDROOT
TORSDOF 0
ENDMDL
MODEL 2
REMARK VINA RESULT:      -7.4      2.974      4.973
REMARK  Name = 
REMARK  0 active torsions:
REMARK  status: ('A' for Active; 'I' for Inactive)
REMARK                            x       y       z     vdW  Elec       q    Type
REMARK                         _______ _______ _______ _____ _____    ______ ____
ROOT
ATOM      1  O   UNL     1       1.471   2.533  21.836  0.00  0.00    +0.000 OA
ATOM      2  C   UNL     1       1.740   3.134  20.806  0.00  0.00    +0.000 C 
ATOM      3  C   UNL     1       1.897   2.434  19.493  0.00  0.00    +0.000 C 
ATOM      4  C   UNL     1       3.208   2.776  18.823  0.00  0.00    +0.000 C 
ATOM      5  C   UNL     1       3.453   4.246  18.582  0.00  0.00    +0.000 A 
ATOM      6  C   UNL     1       2.809   5.234  19.343  0.00  0.00    +0.000 A 
ATOM      7  C   UNL     1       2.947   6.577  18.976  0.00  0.00    +0.000 A 
ATOM      8  C   UNL     1       3.671   6.933  17.836  0.00  0.00    +0.000 A 
ATOM      9  C   UNL     1       4.335   5.961  17.075  0.00  0.00    +0.000 A 
ATOM     10  C   UNL     1       5.010   6.288  15.885  0.00  0.00    +0.000 A 
ATOM     11  C   UNL     1       5.681   5.309  15.150  0.00  0.00    +0.000 A 
ATOM     12  C   UNL     1       5.760   4.013  15.635  0.00  0.00    +0.000 A 
ATOM     13  C   UNL     1       5.098   3.681  16.811  0.00  0.00    +0.000 A 
ATOM     14  C   UNL     1       4.304   4.618  17.505  0.00  0.00    +0.000 A 
ATOM     15  S   UNL     1       1.813   4.884  20.775  0.00  0.00    +0.000 S 
ENDROOT
TORSDOF 0
ENDMDL
MODEL 3
REMARK VINA RESULT:      -7.3      1.247      2.578
REMARK  Name = 
REMARK  0 active torsions:
REMARK  status: ('A' for Active; 'I' for Inactive)
REMARK                            x       y       z     vdW  Elec       q    Type
REMARK                         _______ _______ _______ _____ _____    ______ ____
ROOT
ATOM      1  O   UNL     1       7.441   5.923  15.578  0.00  0.00    +0.000 OA
ATOM      2  C   UNL     1       6.332   5.561  15.942  0.00  0.00    +0.000 C 
ATOM      3  C   UNL     1       5.289   6.530  16.404  0.00  0.00    +0.000 C 
ATOM      4  C   UNL     1       4.730   6.157  17.758  0.00  0.00    +0.000 C 
ATOM      5  C   UNL     1       4.136   4.773  17.860  0.00  0.00    +0.000 A 
ATOM      6  C   UNL     1       4.510   3.745  16.980  0.00  0.00    +0.000 A 
ATOM      7  C   UNL     1       3.816   2.531  17.014  0.00  0.00    +0.000 A 
ATOM      8  C   UNL     1       2.728   2.356  17.872  0.00  0.00    +0.000 A 
ATOM      9  C   UNL     1       2.352   3.366  18.769  0.00  0.00    +0.000 A 
ATOM     10  C   UNL     1       1.218   3.240  19.591  0.00  0.00    +0.000 A 
ATOM     11  C   UNL     1       0.870   4.248  20.491  0.00  0.00    +0.000 A 
ATOM     12  C   UNL     1       1.692   5.353  20.644  0.00  0.00    +0.000 A 
ATOM     13  C   UNL     1       2.817   5.486  19.838  0.00  0.00    +0.000 A 
ATOM     14  C   UNL     1       3.121   4.547  18.829  0.00  0.00    +0.000 A 
ATOM     15  S   UNL     1       5.840   3.886  15.805  0.00  0.00    +0.000 S 
ENDROOT
TORSDOF 0
ENDMDL
MODEL 4
REMARK VINA RESULT:      -7.1      1.864      2.416
REMARK  Name = 
REMARK  0 active torsions:
REMARK  status: ('A' for Active; 'I' for Inactive)
REMARK                            x       y       z     vdW  Elec       q    Type
REMARK                         _______ _______ _______ _____ _____    ______ ____
ROOT
ATOM      1  O   UNL     1       7.788   4.658  16.564  0.00  0.00    +0.000 OA
ATOM      2  C   UNL     1       6.666   4.710  17.047  0.00  0.00    +0.000 C 
ATOM      3  C   UNL     1       6.425   5.148  18.458  0.00  0.00    +0.000 C 
ATOM      4  C   UNL     1       5.598   4.145  19.228  0.00  0.00    +0.000 C 
ATOM      5  C   UNL     1       4.256   3.806  18.626  0.00  0.00    +0.000 A 
ATOM      6  C   UNL     1       3.999   3.981  17.257  0.00  0.00    +0.000 A 
ATOM      7  C   UNL     1       2.695   3.804  16.780  0.00  0.00    +0.000 A 
ATOM      8  C   UNL     1       1.648   3.513  17.657  0.00  0.00    +0.000 A 
ATOM      9  C   UNL     1       1.890   3.319  19.024  0.00  0.00    +0.000 A 
ATOM     10  C   UNL     1       0.843   3.095  19.936  0.00  0.00    +0.000 A 
ATOM     11  C   UNL     1       1.106   2.885  21.291  0.00  0.00    +0.000 A 
ATOM     12  C   UNL     1       2.416   2.811  21.738  0.00  0.00    +0.000 A 
ATOM     13  C   UNL     1       3.457   3.029  20.844  0.00  0.00    +0.000 A 
ATOM     14  C   UNL     1       3.219   3.373  19.497  0.00  0.00    +0.000 A 
ATOM     15  S   UNL     1       5.246   4.413  16.065  0.00  0.00    +0.000 S 
ENDROOT
TORSDOF 0
ENDMDL
MODEL 5
REMARK VINA RESULT:      -7.0      3.231      5.188
REMARK  Name = 
REMARK  0 active torsions:
REMARK  status: ('A' for Active; 'I' for Inactive)
REMARK                            x       y       z     vdW  Elec       q    Type
REMARK                         _______ _______ _______ _____ _____    ______ ____
ROOT
ATOM      1  O   UNL     1       1.859   2.860  22.239  0.00  0.00    +0.000 OA
ATOM      2  C   UNL     1       2.219   3.322  21.166  0.00  0.00    +0.000 C 
ATOM      3  C   UNL     1       2.994   2.517  20.172  0.00  0.00    +0.000 C 
ATOM      4  C   UNL     1       4.258   3.221  19.735  0.00  0.00    +0.000 C 
ATOM      5  C   UNL     1       4.068   4.600  19.150  0.00  0.00    +0.000 A 
ATOM      6  C   UNL     1       2.933   5.372  19.441  0.00  0.00    +0.000 A 
ATOM      7  C   UNL     1       2.729   6.572  18.750  0.00  0.00    +0.000 A 
ATOM      8  C   UNL     1       3.609   6.973  17.743  0.00  0.00    +0.000 A 
ATOM      9  C   UNL     1       4.756   6.222  17.451  0.00  0.00    +0.000 A 
ATOM     10  C   UNL     1       5.618   6.568  16.395  0.00  0.00    +0.000 A 
ATOM     11  C   UNL     1       6.766   5.818  16.131  0.00  0.00    +0.000 A 
ATOM     12  C   UNL     1       7.112   4.768  16.967  0.00  0.00    +0.000 A 
ATOM     13  C   UNL     1       6.268   4.419  18.015  0.00  0.00    +0.000 A 
ATOM     14  C   UNL     1       5.037   5.076  18.225  0.00  0.00    +0.000 A 
ATOM     15  S   UNL     1       1.718   4.922  20.660  0.00  0.00    +0.000 S 
ENDROOT
TORSDOF 0
ENDMDL
MODEL 6
REMARK VINA RESULT:      -7.0      1.546      1.569
REMARK  Name = 
REMARK  0 active torsions:
REMARK  status: ('A' for Active; 'I' for Inactive)
REMARK                            x       y       z     vdW  Elec       q    Type
REMARK                         _______ _______ _______ _____ _____    ______ ____
ROOT
ATOM      1  O   UNL     1       7.570   5.725  15.707  0.00  0.00    +0.000 OA
ATOM      2  C   UNL     1       6.794   5.784  16.649  0.00  0.00    +0.000 C 
ATOM      3  C   UNL     1       7.027   5.033  17.922  0.00  0.00    +0.000 C 
ATOM      4  C   UNL     1       5.830   4.197  18.313  0.00  0.00    +0.000 C 
ATOM      5  C   UNL     1       4.530   4.949  18.465  0.00  0.00    +0.000 A 
ATOM      6  C   UNL     1       4.312   6.178  17.823  0.00  0.00    +0.000 A 
ATOM      7  C   UNL     1       3.157   6.909  18.123  0.00  0.00    +0.000 A 
ATOM      8  C   UNL     1       2.258   6.455  19.090  0.00  0.00    +0.000 A 
ATOM      9  C   UNL     1       2.452   5.223  19.728  0.00  0.00    +0.000 A 
ATOM     10  C   UNL     1       1.598   4.779  20.754  0.00  0.00    +0.000 A 
ATOM     11  C   UNL     1       1.796   3.540  21.366  0.00  0.00    +0.000 A 
ATOM     12  C   UNL     1       2.793   2.694  20.906  0.00  0.00    +0.000 A 
ATOM     13  C   UNL     1       3.641   3.122  19.891  0.00  0.00    +0.000 A 
ATOM     14  C   UNL     1       3.546   4.420  19.345  0.00  0.00    +0.000 A 
ATOM     15  S   UNL     1       5.425   6.876  16.623  0.00  0.00    +0.000 S 
ENDROOT
TORSDOF 0
ENDMDL
MODEL 7
REMARK VINA RESULT:      -7.0      2.877      5.165
REMARK  Name = 
REMARK  0 active torsions:
REMARK  status: ('A' for Active; 'I' for Inactive)
REMARK                            x       y       z     vdW  Elec       q    Type
REMARK                         _______ _______ _______ _____ _____    ______ ____
ROOT
ATOM      1  O   UNL     1       0.649   3.093  19.889  0.00  0.00    +0.000 OA
ATOM      2  C   UNL     1       1.529   3.720  19.317  0.00  0.00    +0.000 C 
ATOM      3  C   UNL     1       1.466   4.025  17.853  0.00  0.00    +0.000 C 
ATOM      4  C   UNL     1       2.723   3.595  17.132  0.00  0.00    +0.000 C 
ATOM      5  C   UNL     1       4.011   4.179  17.660  0.00  0.00    +0.000 A 
ATOM      6  C   UNL     1       4.119   4.649  18.977  0.00  0.00    +0.000 A 
ATOM      7  C   UNL     1       5.282   5.325  19.367  0.00  0.00    +0.000 A 
ATOM      8  C   UNL     1       6.300   5.580  18.447  0.00  0.00    +0.000 A 
ATOM      9  C   UNL     1       6.215   5.102  17.132  0.00  0.00    +0.000 A 
ATOM     10  C   UNL     1       7.195   5.407  16.170  0.00  0.00    +0.000 A 
ATOM     11  C   UNL     1       7.103   4.907  14.870  0.00  0.00    +0.000 A 
ATOM     12  C   UNL     1       6.082   4.030  14.537  0.00  0.00    +0.000 A 
ATOM     13  C   UNL     1       5.110   3.721  15.481  0.00  0.00    +0.000 A 
ATOM     14  C   UNL     1       5.105   4.314  16.762  0.00  0.00    +0.000 A 
ATOM     15  S   UNL     1       2.855   4.433  20.211  0.00  0.00    +0.000 S 
ENDROOT
TORSDOF 0
ENDMDL
MODEL 8
REMARK VINA RESULT:      -6.8      1.291      2.654
REMARK  Name = 
REMARK  0 active torsions:
REMARK  status: ('A' for Active; 'I' for Inactive)
REMARK                            x       y       z     vdW  Elec       q    Type
REMARK                         _______ _______ _______ _____ _____    ______ ____
ROOT
ATOM      1  O   UNL     1       6.933   7.273  16.676  0.00  0.00    +0.000 OA
ATOM      2  C   UNL     1       5.960   6.542  16.799  0.00  0.00    +0.000 C 
ATOM      3  C   UNL     1       4.600   7.075  17.121  0.00  0.00    +0.000 C 
ATOM      4  C   UNL     1       3.989   6.380  18.317  0.00  0.00    +0.000 C 
ATOM      5  C   UNL     1       3.872   4.878  18.209  0.00  0.00    +0.000 A 
ATOM      6  C   UNL     1       4.695   4.137  17.347  0.00  0.00    +0.000 A 
ATOM      7  C   UNL     1       4.439   2.772  17.167  0.00  0.00    +0.000 A 
ATOM      8  C   UNL     1       3.348   2.163  17.790  0.00  0.00    +0.000 A 
ATOM      9  C   UNL     1       2.527   2.886  18.667  0.00  0.00    +0.000 A 
ATOM     10  C   UNL     1       1.383   2.312  19.250  0.00  0.00    +0.000 A 
ATOM     11  C   UNL     1       0.587   3.042  20.135  0.00  0.00    +0.000 A 
ATOM     12  C   UNL     1       0.969   4.319  20.516  0.00  0.00    +0.000 A 
ATOM     13  C   UNL     1       2.100   4.893  19.947  0.00  0.00    +0.000 A 
ATOM     14  C   UNL     1       2.848   4.229  18.952  0.00  0.00    +0.000 A 
ATOM     15  S   UNL     1       6.071   4.828  16.457  0.00  0.00    +0.000 S 
ENDROOT
TORSDOF 0
ENDMDL
MODEL 9
REMARK VINA RESULT:      -6.7      1.366      1.415
REMARK  Name = 
REMARK  0 active torsions:
REMARK  status: ('A' for Active; 'I' for Inactive)
REMARK                            x       y       z     vdW  Elec       q    Type
REMARK                         _______ _______ _______ _____ _____    ______ ____
ROOT
ATOM      1  O   UNL     1       7.588   5.432  14.465  0.00  0.00    +0.000 OA
ATOM      2  C   UNL     1       6.964   5.016  15.431  0.00  0.00    +0.000 C 
ATOM      3  C   UNL     1       6.192   3.735  15.389  0.00  0.00    +0.000 C 
ATOM      4  C   UNL     1       4.761   3.923  15.839  0.00  0.00    +0.000 C 
ATOM      5  C   UNL     1       4.583   4.512  17.218  0.00  0.00    +0.000 A 
ATOM      6  C   UNL     1       5.585   5.286  17.822  0.00  0.00    +0.000 A 
ATOM      7  C   UNL     1       5.436   5.674  19.158  0.00  0.00    +0.000 A 
ATOM      8  C   UNL     1       4.333   5.251  19.903  0.00  0.00    +0.000 A 
ATOM      9  C   UNL     1       3.315   4.492  19.311  0.00  0.00    +0.000 A 
ATOM     10  C   UNL     1       2.231   3.997  20.058  0.00  0.00    +0.000 A 
ATOM     11  C   UNL     1       1.217   3.258  19.447  0.00  0.00    +0.000 A 
ATOM     12  C   UNL     1       1.226   3.077  18.073  0.00  0.00    +0.000 A 
ATOM     13  C   UNL     1       2.291   3.564  17.325  0.00  0.00    +0.000 A 
ATOM     14  C   UNL     1       3.394   4.200  17.933  0.00  0.00    +0.000 A 
ATOM     15  S   UNL     1       7.059   5.824  16.982  0.00  0.00    +0.000 S 
ENDROOT
TORSDOF 0
ENDMDL
