MODEL 1
REMARK VINA RESULT:      -7.8      0.000      0.000
REMARK  Name = 
REMARK  8 active torsions:
REMARK  status: ('A' for Active; 'I' for Inactive)
REMARK    1  A    between atoms: C_1  and  C_2
REMARK    2  A    between atoms: C_2  and  C_3
REMARK    3  A    between atoms: C_3  and  O_4
REMARK    4  A    between atoms: O_4  and  C_5
REMARK    5  A    between atoms: C_8  and  C_9
REMARK    6  A    between atoms: C_15  and  C_16
REMARK    7  A    between atoms: C_20  and  C_21
REMARK    8  A    between atoms: N_23  and  C_24
REMARK                            x       y       z     vdW  Elec       q    Type
REMARK                         _______ _______ _______ _____ _____    ______ ____
ROOT
ATOM      1  C   UNL     1       7.042   5.361  16.251  0.00  0.00    +0.000 A 
ATOM      2  C   UNL     1       7.739   5.402  15.032  0.00  0.00    +0.000 A 
ATOM      3  C   UNL     1       7.222   4.818  13.876  0.00  0.00    +0.000 A 
ATOM      4  C   UNL     1       5.994   4.159  13.896  0.00  0.00    +0.000 A 
ATOM      5  C   UNL     1       5.285   4.127  15.105  0.00  0.00    +0.000 A 
ATOM      6  C   UNL     1       5.792   4.710  16.290  0.00  0.00    +0.000 A 
ENDROOT
BRANCH   6   7
ATOM      7  C   UNL     1       4.948   4.531  17.522  0.00  0.00    +0.000 A 
ATOM      8  N   UNL     1       4.199   5.513  17.960  0.00  0.00    +0.000 NA
ATOM      9  C   UNL     1       3.450   5.198  19.046  0.00  0.00    +0.000 A 
ATOM     10  C   UNL     1       3.401   3.997  19.710  0.00  0.00    +0.000 A 
ATOM     11  C   UNL     1       2.441   4.158  20.727  0.00  0.00    +0.000 A 
ATOM     12  C   UNL     1       1.961   3.162  21.715  0.00  0.00    +0.000 C 
ATOM     13  N   UNL     1       1.925   5.399  20.719  0.00  0.00    +0.000 NA
ATOM     14  N   UNL     1       2.555   6.009  19.686  0.00  0.00    +0.000 N 
ATOM     15  C   UNL     1       2.231   7.372  19.347  0.00  0.00    +0.000 C 
ATOM     16  C   UNL     1       4.240   2.932  19.251  0.00  0.00    +0.000 A 
ATOM     17  O   UNL     1       4.298   1.818  19.760  0.00  0.00    +0.000 OA
ATOM     18  N   UNL     1       4.991   3.286  18.144  0.00  0.00    +0.000 N 
ATOM     19  H   UNL     1       5.590   2.563  17.771  0.00  0.00    +0.000 HD
ENDBRANCH   6   7
BRANCH   4  20
ATOM     20  C   UNL     1       5.455   3.497  12.699  0.00  0.00    +0.000 A 
ATOM     21  C   UNL     1       4.257   3.724  12.045  0.00  0.00    +0.000 A 
ATOM     22  C   UNL     1       4.056   2.847  10.938  0.00  0.00    +0.000 A 
ATOM     23  C   UNL     1       5.108   1.978  10.773  0.00  0.00    +0.000 A 
ATOM     24  S   UNL     1       6.322   2.213  11.947  0.00  0.00    +0.000 S 
ENDBRANCH   4  20
BRANCH   1  25
ATOM     25  O   UNL     1       7.543   5.930  17.406  0.00  0.00    +0.000 OA
BRANCH  25  26
ATOM     26  C   UNL     1       7.334   7.343  17.538  0.00  0.00    +0.000 C 
BRANCH  26  28
ATOM     27  C   UNL     1       8.474   9.466  18.183  0.00  0.00    +0.000 C 
ATOM     28  C   UNL     1       8.377   7.970  18.452  0.00  0.00    +0.000 C 
ENDBRANCH  26  28
ENDBRANCH  25  26
ENDBRANCH   1  25
TORSDOF 5
ENDMDL
MODEL 2
REMARK VINA RESULT:      -7.7      3.832      8.023
REMARK  Name = 
REMARK  8 active torsions:
REMARK  status: ('A' for Active; 'I' for Inactive)
REMARK    1  A    between atoms: C_1  and  C_2
REMARK    2  A    between atoms: C_2  and  C_3
REMARK    3  A    between atoms: C_3  and  O_4
REMARK    4  A    between atoms: O_4  and  C_5
REMARK    5  A    between atoms: C_8  and  C_9
REMARK    6  A    between atoms: C_15  and  C_16
REMARK    7  A    between atoms: C_20  and  C_21
REMARK    8  A    between atoms: N_23  and  C_24
REMARK                            x       y       z     vdW  Elec       q    Type
REMARK                         _______ _______ _______ _____ _____    ______ ____
ROOT
ATOM      1  C   UNL     1       1.809   6.893  20.383  0.00  0.00    +0.000 A 
ATOM      2  C   UNL     1       0.911   7.678  21.125  0.00  0.00    +0.000 A 
ATOM      3  C   UNL     1       0.541   8.955  20.704  0.00  0.00    +0.000 A 
ATOM      4  C   UNL     1       1.062   9.502  19.534  0.00  0.00    +0.000 A 
ATOM      5  C   UNL     1       1.947   8.718  18.780  0.00  0.00    +0.000 A 
ATOM      6  C   UNL     1       2.339   7.422  19.188  0.00  0.00    +0.000 A 
ENDROOT
BRANCH   6   7
ATOM      7  C   UNL     1       3.349   6.734  18.312  0.00  0.00    +0.000 A 
ATOM      8  N   UNL     1       4.522   7.279  18.097  0.00  0.00    +0.000 NA
ATOM      9  C   UNL     1       5.352   6.527  17.335  0.00  0.00    +0.000 A 
ATOM     10  C   UNL     1       5.098   5.296  16.783  0.00  0.00    +0.000 A 
ATOM     11  C   UNL     1       6.286   4.912  16.131  0.00  0.00    +0.000 A 
ATOM     12  C   UNL     1       6.580   3.654  15.405  0.00  0.00    +0.000 C 
ATOM     13  N   UNL     1       7.234   5.859  16.249  0.00  0.00    +0.000 NA
ATOM     14  N   UNL     1       6.640   6.827  16.986  0.00  0.00    +0.000 N 
ATOM     15  C   UNL     1       7.377   8.013  17.346  0.00  0.00    +0.000 C 
ATOM     16  C   UNL     1       3.808   4.711  16.992  0.00  0.00    +0.000 A 
ATOM     17  O   UNL     1       3.452   3.626  16.546  0.00  0.00    +0.000 OA
ATOM     18  N   UNL     1       2.985   5.503  17.771  0.00  0.00    +0.000 N 
ATOM     19  H   UNL     1       2.066   5.128  17.961  0.00  0.00    +0.000 HD
ENDBRANCH   6   7
BRANCH   4  20
ATOM     20  C   UNL     1       0.720  10.864  19.100  0.00  0.00    +0.000 A 
ATOM     21  C   UNL     1       1.552  11.955  18.918  0.00  0.00    +0.000 A 
ATOM     22  C   UNL     1       0.847  13.133  18.532  0.00  0.00    +0.000 A 
ATOM     23  C   UNL     1      -0.505  12.909  18.424  0.00  0.00    +0.000 A 
ATOM     24  S   UNL     1      -0.919  11.296  18.791  0.00  0.00    +0.000 S 
ENDBRANCH   4  20
BRANCH   1  25
ATOM     25  O   UNL     1       2.191   5.628  20.789  0.00  0.00    +0.000 OA
BRANCH  25  26
ATOM     26  C   UNL     1       1.210   4.598  20.599  0.00  0.00    +0.000 C 
BRANCH  26  28
ATOM     27  C   UNL     1       1.187   2.559  19.160  0.00  0.00    +0.000 C 
ATOM     28  C   UNL     1       1.871   3.253  20.331  0.00  0.00    +0.000 C 
ENDBRANCH  26  28
ENDBRANCH  25  26
ENDBRANCH   1  25
TORSDOF 5
ENDMDL
MODEL 3
REMARK VINA RESULT:      -7.3      2.992      5.916
REMARK  Name = 
REMARK  8 active torsions:
REMARK  status: ('A' for Active; 'I' for Inactive)
REMARK    1  A    between atoms: C_1  and  C_2
REMARK    2  A    between atoms: C_2  and  C_3
REMARK    3  A    between atoms: C_3  and  O_4
REMARK    4  A    between atoms: O_4  and  C_5
REMARK    5  A    between atoms: C_8  and  C_9
REMARK    6  A    between atoms: C_15  and  C_16
REMARK    7  A    between atoms: C_20  and  C_21
REMARK    8  A    between atoms: N_23  and  C_24
REMARK                            x       y       z     vdW  Elec       q    Type
REMARK                         _______ _______ _______ _____ _____    ______ ____
ROOT
ATOM      1  C   UNL     1       3.356   4.960  19.774  0.00  0.00    +0.000 A 
ATOM      2  C   UNL     1       4.117   3.822  19.458  0.00  0.00    +0.000 A 
ATOM      3  C   UNL     1       4.846   3.739  18.273  0.00  0.00    +0.000 A 
ATOM      4  C   UNL     1       4.833   4.784  17.351  0.00  0.00    +0.000 A 
ATOM      5  C   UNL     1       4.089   5.929  17.667  0.00  0.00    +0.000 A 
ATOM      6  C   UNL     1       3.339   6.034  18.861  0.00  0.00    +0.000 A 
ENDROOT
BRANCH   6   7
ATOM      7  C   UNL     1       2.535   7.295  19.024  0.00  0.00    +0.000 A 
ATOM      8  N   UNL     1       1.745   7.448  20.059  0.00  0.00    +0.000 NA
ATOM      9  C   UNL     1       1.124   8.652  20.109  0.00  0.00    +0.000 A 
ATOM     10  C   UNL     1       1.233   9.689  19.217  0.00  0.00    +0.000 A 
ATOM     11  C   UNL     1       0.440  10.730  19.736  0.00  0.00    +0.000 A 
ATOM     12  C   UNL     1       0.231  12.095  19.195  0.00  0.00    +0.000 C 
ATOM     13  N   UNL     1      -0.155  10.363  20.884  0.00  0.00    +0.000 NA
ATOM     14  N   UNL     1       0.279   9.097  21.088  0.00  0.00    +0.000 N 
ATOM     15  C   UNL     1      -0.135   8.373  22.264  0.00  0.00    +0.000 C 
ATOM     16  C   UNL     1       2.074   9.514  18.071  0.00  0.00    +0.000 A 
ATOM     17  O   UNL     1       2.249  10.355  17.197  0.00  0.00    +0.000 OA
ATOM     18  N   UNL     1       2.691   8.276  18.048  0.00  0.00    +0.000 N 
ATOM     19  H   UNL     1       3.308   8.108  17.266  0.00  0.00    +0.000 HD
ENDBRANCH   6   7
BRANCH   4  20
ATOM     20  C   UNL     1       5.558   4.696  16.075  0.00  0.00    +0.000 A 
ATOM     21  C   UNL     1       5.179   4.069  14.901  0.00  0.00    +0.000 A 
ATOM     22  C   UNL     1       6.171   4.156  13.880  0.00  0.00    +0.000 A 
ATOM     23  C   UNL     1       7.279   4.852  14.300  0.00  0.00    +0.000 A 
ATOM     24  S   UNL     1       7.126   5.388  15.912  0.00  0.00    +0.000 S 
ENDBRANCH   4  20
BRANCH   1  25
ATOM     25  O   UNL     1       2.623   5.055  20.942  0.00  0.00    +0.000 OA
BRANCH  25  26
ATOM     26  C   UNL     1       1.790   3.926  21.241  0.00  0.00    +0.000 C 
BRANCH  26  28
ATOM     27  C   UNL     1       0.791   2.547  19.418  0.00  0.00    +0.000 C 
ATOM     28  C   UNL     1       0.640   3.813  20.251  0.00  0.00    +0.000 C 
ENDBRANCH  26  28
ENDBRANCH  25  26
ENDBRANCH   1  25
TORSDOF 5
ENDMDL
MODEL 4
REMARK VINA RESULT:      -7.1      3.652      8.040
REMARK  Name = 
REMARK  8 active torsions:
REMARK  status: ('A' for Active; 'I' for Inactive)
REMARK    1  A    between atoms: C_1  and  C_2
REMARK    2  A    between atoms: C_2  and  C_3
REMARK    3  A    between atoms: C_3  and  O_4
REMARK    4  A    between atoms: O_4  and  C_5
REMARK    5  A    between atoms: C_8  and  C_9
REMARK    6  A    between atoms: C_15  and  C_16
REMARK    7  A    between atoms: C_20  and  C_21
REMARK    8  A    between atoms: N_23  and  C_24
REMARK                            x       y       z     vdW  Elec       q    Type
REMARK                         _______ _______ _______ _____ _____    ______ ____
ROOT
ATOM      1  C   UNL     1       1.772   6.804  20.352  0.00  0.00    +0.000 A 
ATOM      2  C   UNL     1       0.967   7.678  21.101  0.00  0.00    +0.000 A 
ATOM      3  C   UNL     1       0.691   8.972  20.661  0.00  0.00    +0.000 A 
ATOM      4  C   UNL     1       1.218   9.448  19.462  0.00  0.00    +0.000 A 
ATOM      5  C   UNL     1       2.010   8.577  18.702  0.00  0.00    +0.000 A 
ATOM      6  C   UNL     1       2.306   7.262  19.129  0.00  0.00    +0.000 A 
ENDROOT
BRANCH   6   7
ATOM      7  C   UNL     1       3.227   6.473  18.240  0.00  0.00    +0.000 A 
ATOM      8  N   UNL     1       3.219   5.163  18.273  0.00  0.00    +0.000 NA
ATOM      9  C   UNL     1       4.058   4.580  17.382  0.00  0.00    +0.000 A 
ATOM     10  C   UNL     1       4.886   5.201  16.480  0.00  0.00    +0.000 A 
ATOM     11  C   UNL     1       5.507   4.170  15.750  0.00  0.00    +0.000 A 
ATOM     12  C   UNL     1       6.465   4.277  14.625  0.00  0.00    +0.000 C 
ATOM     13  N   UNL     1       5.107   2.960  16.181  0.00  0.00    +0.000 NA
ATOM     14  N   UNL     1       4.226   3.239  17.171  0.00  0.00    +0.000 N 
ATOM     15  C   UNL     1       3.555   2.167  17.863  0.00  0.00    +0.000 C 
ATOM     16  C   UNL     1       4.917   6.633  16.461  0.00  0.00    +0.000 A 
ATOM     17  O   UNL     1       5.618   7.308  15.715  0.00  0.00    +0.000 OA
ATOM     18  N   UNL     1       4.053   7.196  17.382  0.00  0.00    +0.000 N 
ATOM     19  H   UNL     1       4.025   8.206  17.399  0.00  0.00    +0.000 HD
ENDBRANCH   6   7
BRANCH   4  20
ATOM     20  C   UNL     1       0.976  10.825  19.006  0.00  0.00    +0.000 A 
ATOM     21  C   UNL     1       1.891  11.834  18.764  0.00  0.00    +0.000 A 
ATOM     22  C   UNL     1       1.273  13.060  18.374  0.00  0.00    +0.000 A 
ATOM     23  C   UNL     1      -0.096  12.951  18.323  0.00  0.00    +0.000 A 
ATOM     24  S   UNL     1      -0.631  11.389  18.749  0.00  0.00    +0.000 S 
ENDBRANCH   4  20
BRANCH   1  25
ATOM     25  O   UNL     1       2.060   5.521  20.777  0.00  0.00    +0.000 OA
BRANCH  25  26
ATOM     26  C   UNL     1       0.977   4.585  20.689  0.00  0.00    +0.000 C 
BRANCH  26  28
ATOM     27  C   UNL     1       2.386   2.820  21.749  0.00  0.00    +0.000 C 
ATOM     28  C   UNL     1       1.492   3.158  20.563  0.00  0.00    +0.000 C 
ENDBRANCH  26  28
ENDBRANCH  25  26
ENDBRANCH   1  25
TORSDOF 5
ENDMDL
MODEL 5
REMARK VINA RESULT:      -7.0      1.431      2.267
REMARK  Name = 
REMARK  8 active torsions:
REMARK  status: ('A' for Active; 'I' for Inactive)
REMARK    1  A    between atoms: C_1  and  C_2
REMARK    2  A    between atoms: C_2  and  C_3
REMARK    3  A    between atoms: C_3  and  O_4
REMARK    4  A    between atoms: O_4  and  C_5
REMARK    5  A    between atoms: C_8  and  C_9
REMARK    6  A    between atoms: C_15  and  C_16
REMARK    7  A    between atoms: C_20  and  C_21
REMARK    8  A    between atoms: N_23  and  C_24
REMARK                            x       y       z     vdW  Elec       q    Type
REMARK                         _______ _______ _______ _____ _____    ______ ____
ROOT
ATOM      1  C   UNL     1       6.912   5.622  16.350  0.00  0.00    +0.000 A 
ATOM      2  C   UNL     1       7.768   5.298  15.284  0.00  0.00    +0.000 A 
ATOM      3  C   UNL     1       7.293   4.667  14.135  0.00  0.00    +0.000 A 
ATOM      4  C   UNL     1       5.948   4.325  14.010  0.00  0.00    +0.000 A 
ATOM      5  C   UNL     1       5.085   4.660  15.063  0.00  0.00    +0.000 A 
ATOM      6  C   UNL     1       5.545   5.296  16.240  0.00  0.00    +0.000 A 
ENDROOT
BRANCH   6   7
ATOM      7  C   UNL     1       4.513   5.524  17.310  0.00  0.00    +0.000 A 
ATOM      8  N   UNL     1       4.213   4.570  18.157  0.00  0.00    +0.000 NA
ATOM      9  C   UNL     1       3.308   4.930  19.100  0.00  0.00    +0.000 A 
ATOM     10  C   UNL     1       2.696   6.149  19.252  0.00  0.00    +0.000 A 
ATOM     11  C   UNL     1       1.890   6.036  20.402  0.00  0.00    +0.000 A 
ATOM     12  C   UNL     1       1.043   7.068  21.046  0.00  0.00    +0.000 C 
ATOM     13  N   UNL     1       1.975   4.805  20.936  0.00  0.00    +0.000 NA
ATOM     14  N   UNL     1       2.844   4.155  20.126  0.00  0.00    +0.000 N 
ATOM     15  C   UNL     1       3.210   2.789  20.409  0.00  0.00    +0.000 C 
ATOM     16  C   UNL     1       3.000   7.185  18.312  0.00  0.00    +0.000 A 
ATOM     17  O   UNL     1       2.516   8.311  18.330  0.00  0.00    +0.000 OA
ATOM     18  N   UNL     1       3.924   6.786  17.362  0.00  0.00    +0.000 N 
ATOM     19  H   UNL     1       4.185   7.486  16.682  0.00  0.00    +0.000 HD
ENDBRANCH   6   7
BRANCH   4  20
ATOM     20  C   UNL     1       5.438   3.618  12.826  0.00  0.00    +0.000 A 
ATOM     21  C   UNL     1       4.215   3.752  12.193  0.00  0.00    +0.000 A 
ATOM     22  C   UNL     1       4.060   2.857  11.093  0.00  0.00    +0.000 A 
ATOM     23  C   UNL     1       5.170   2.068  10.913  0.00  0.00    +0.000 A 
ATOM     24  S   UNL     1       6.385   2.398  12.063  0.00  0.00    +0.000 S 
ENDBRANCH   4  20
BRANCH   1  25
ATOM     25  O   UNL     1       7.368   6.242  17.498  0.00  0.00    +0.000 OA
BRANCH  25  26
ATOM     26  C   UNL     1       7.440   7.673  17.440  0.00  0.00    +0.000 C 
BRANCH  26  28
ATOM     27  C   UNL     1       8.611   9.714  18.270  0.00  0.00    +0.000 C 
ATOM     28  C   UNL     1       8.414   8.218  18.475  0.00  0.00    +0.000 C 
ENDBRANCH  26  28
ENDBRANCH  25  26
ENDBRANCH   1  25
TORSDOF 5
ENDMDL
MODEL 6
REMARK VINA RESULT:      -6.8      3.211      5.898
REMARK  Name = 
REMARK  8 active torsions:
REMARK  status: ('A' for Active; 'I' for Inactive)
REMARK    1  A    between atoms: C_1  and  C_2
REMARK    2  A    between atoms: C_2  and  C_3
REMARK    3  A    between atoms: C_3  and  O_4
REMARK    4  A    between atoms: O_4  and  C_5
REMARK    5  A    between atoms: C_8  and  C_9
REMARK    6  A    between atoms: C_15  and  C_16
REMARK    7  A    between atoms: C_20  and  C_21
REMARK    8  A    between atoms: N_23  and  C_24
REMARK                            x       y       z     vdW  Elec       q    Type
REMARK                         _______ _______ _______ _____ _____    ______ ____
ROOT
ATOM      1  C   UNL     1       1.961   4.477  18.809  0.00  0.00    +0.000 A 
ATOM      2  C   UNL     1       2.473   3.358  18.130  0.00  0.00    +0.000 A 
ATOM      3  C   UNL     1       3.573   3.462  17.279  0.00  0.00    +0.000 A 
ATOM      4  C   UNL     1       4.197   4.689  17.064  0.00  0.00    +0.000 A 
ATOM      5  C   UNL     1       3.702   5.807  17.750  0.00  0.00    +0.000 A 
ATOM      6  C   UNL     1       2.586   5.726  18.615  0.00  0.00    +0.000 A 
ENDROOT
BRANCH   6   7
ATOM      7  C   UNL     1       2.129   7.024  19.222  0.00  0.00    +0.000 A 
ATOM      8  N   UNL     1       2.268   8.149  18.564  0.00  0.00    +0.000 NA
ATOM      9  C   UNL     1       1.764   9.232  19.206  0.00  0.00    +0.000 A 
ATOM     10  C   UNL     1       1.148   9.269  20.431  0.00  0.00    +0.000 A 
ATOM     11  C   UNL     1       0.760  10.608  20.629  0.00  0.00    +0.000 A 
ATOM     12  C   UNL     1       0.020  11.201  21.768  0.00  0.00    +0.000 C 
ATOM     13  N   UNL     1       1.129  11.380  19.591  0.00  0.00    +0.000 NA
ATOM     14  N   UNL     1       1.736  10.518  18.741  0.00  0.00    +0.000 N 
ATOM     15  C   UNL     1       2.247  10.990  17.478  0.00  0.00    +0.000 C 
ATOM     16  C   UNL     1       1.021   8.046  21.165  0.00  0.00    +0.000 A 
ATOM     17  O   UNL     1       0.502   7.944  22.271  0.00  0.00    +0.000 OA
ATOM     18  N   UNL     1       1.545   6.961  20.485  0.00  0.00    +0.000 N 
ATOM     19  H   UNL     1       1.466   6.070  20.954  0.00  0.00    +0.000 HD
ENDBRANCH   6   7
BRANCH   4  20
ATOM     20  C   UNL     1       5.328   4.827  16.135  0.00  0.00    +0.000 A 
ATOM     21  C   UNL     1       5.412   4.452  14.805  0.00  0.00    +0.000 A 
ATOM     22  C   UNL     1       6.697   4.703  14.239  0.00  0.00    +0.000 A 
ATOM     23  C   UNL     1       7.557   5.268  15.150  0.00  0.00    +0.000 A 
ATOM     24  S   UNL     1       6.825   5.486  16.674  0.00  0.00    +0.000 S 
ENDBRANCH   4  20
BRANCH   1  25
ATOM     25  O   UNL     1       0.869   4.391  19.650  0.00  0.00    +0.000 OA
BRANCH  25  26
ATOM     26  C   UNL     1       0.887   3.295  20.575  0.00  0.00    +0.000 C 
BRANCH  26  28
ATOM     27  C   UNL     1       2.976   2.329  21.539  0.00  0.00    +0.000 C 
ATOM     28  C   UNL     1       1.977   3.476  21.622  0.00  0.00    +0.000 C 
ENDBRANCH  26  28
ENDBRANCH  25  26
ENDBRANCH   1  25
TORSDOF 5
ENDMDL
MODEL 7
REMARK VINA RESULT:      -6.7      4.191      7.609
REMARK  Name = 
REMARK  8 active torsions:
REMARK  status: ('A' for Active; 'I' for Inactive)
REMARK    1  A    between atoms: C_1  and  C_2
REMARK    2  A    between atoms: C_2  and  C_3
REMARK    3  A    between atoms: C_3  and  O_4
REMARK    4  A    between atoms: O_4  and  C_5
REMARK    5  A    between atoms: C_8  and  C_9
REMARK    6  A    between atoms: C_15  and  C_16
REMARK    7  A    between atoms: C_20  and  C_21
REMARK    8  A    between atoms: N_23  and  C_24
REMARK                            x       y       z     vdW  Elec       q    Type
REMARK                         _______ _______ _______ _____ _____    ______ ____
ROOT
ATOM      1  C   UNL     1       2.445   8.289  17.889  0.00  0.00    +0.000 A 
ATOM      2  C   UNL     1       1.927   9.595  17.849  0.00  0.00    +0.000 A 
ATOM      3  C   UNL     1       1.253  10.146  18.938  0.00  0.00    +0.000 A 
ATOM      4  C   UNL     1       1.058   9.410  20.105  0.00  0.00    +0.000 A 
ATOM      5  C   UNL     1       1.585   8.113  20.159  0.00  0.00    +0.000 A 
ATOM      6  C   UNL     1       2.269   7.532  19.066  0.00  0.00    +0.000 A 
ENDROOT
BRANCH   6   7
ATOM      7  C   UNL     1       2.713   6.106  19.250  0.00  0.00    +0.000 A 
ATOM      8  N   UNL     1       1.856   5.123  19.120  0.00  0.00    +0.000 NA
ATOM      9  C   UNL     1       2.402   3.890  19.258  0.00  0.00    +0.000 A 
ATOM     10  C   UNL     1       3.714   3.578  19.513  0.00  0.00    +0.000 A 
ATOM     11  C   UNL     1       3.784   2.171  19.510  0.00  0.00    +0.000 A 
ATOM     12  C   UNL     1       4.971   1.302  19.692  0.00  0.00    +0.000 C 
ATOM     13  N   UNL     1       2.577   1.624  19.287  0.00  0.00    +0.000 NA
ATOM     14  N   UNL     1       1.756   2.691  19.135  0.00  0.00    +0.000 N 
ATOM     15  C   UNL     1       0.358   2.490  18.846  0.00  0.00    +0.000 C 
ATOM     16  C   UNL     1       4.647   4.650  19.682  0.00  0.00    +0.000 A 
ATOM     17  O   UNL     1       5.841   4.508  19.922  0.00  0.00    +0.000 OA
ATOM     18  N   UNL     1       4.059   5.894  19.537  0.00  0.00    +0.000 N 
ATOM     19  H   UNL     1       4.679   6.687  19.633  0.00  0.00    +0.000 HD
ENDBRANCH   6   7
BRANCH   4  20
ATOM     20  C   UNL     1       0.309   9.958  21.245  0.00  0.00    +0.000 A 
ATOM     21  C   UNL     1      -0.063   9.333  22.422  0.00  0.00    +0.000 A 
ATOM     22  C   UNL     1      -0.829  10.177  23.280  0.00  0.00    +0.000 A 
ATOM     23  C   UNL     1      -1.016  11.426  22.738  0.00  0.00    +0.000 A 
ATOM     24  S   UNL     1      -0.282  11.575  21.206  0.00  0.00    +0.000 S 
ENDBRANCH   4  20
BRANCH   1  25
ATOM     25  O   UNL     1       3.110   7.727  16.817  0.00  0.00    +0.000 OA
BRANCH  25  26
ATOM     26  C   UNL     1       4.533   7.610  16.966  0.00  0.00    +0.000 C 
BRANCH  26  28
ATOM     27  C   UNL     1       6.385   5.970  16.644  0.00  0.00    +0.000 C 
ATOM     28  C   UNL     1       5.094   6.526  16.057  0.00  0.00    +0.000 C 
ENDBRANCH  26  28
ENDBRANCH  25  26
ENDBRANCH   1  25
TORSDOF 5
ENDMDL
MODEL 8
REMARK VINA RESULT:      -6.7      3.089      5.974
REMARK  Name = 
REMARK  8 active torsions:
REMARK  status: ('A' for Active; 'I' for Inactive)
REMARK    1  A    between atoms: C_1  and  C_2
REMARK    2  A    between atoms: C_2  and  C_3
REMARK    3  A    between atoms: C_3  and  O_4
REMARK    4  A    between atoms: O_4  and  C_5
REMARK    5  A    between atoms: C_8  and  C_9
REMARK    6  A    between atoms: C_15  and  C_16
REMARK    7  A    between atoms: C_20  and  C_21
REMARK    8  A    between atoms: N_23  and  C_24
REMARK                            x       y       z     vdW  Elec       q    Type
REMARK                         _______ _______ _______ _____ _____    ______ ____
ROOT
ATOM      1  C   UNL     1       3.157   4.608  20.081  0.00  0.00    +0.000 A 
ATOM      2  C   UNL     1       3.900   3.506  19.628  0.00  0.00    +0.000 A 
ATOM      3  C   UNL     1       4.670   3.573  18.467  0.00  0.00    +0.000 A 
ATOM      4  C   UNL     1       4.717   4.740  17.707  0.00  0.00    +0.000 A 
ATOM      5  C   UNL     1       3.990   5.849  18.161  0.00  0.00    +0.000 A 
ATOM      6  C   UNL     1       3.200   5.803  19.333  0.00  0.00    +0.000 A 
ENDROOT
BRANCH   6   7
ATOM      7  C   UNL     1       2.422   7.050  19.651  0.00  0.00    +0.000 A 
ATOM      8  N   UNL     1       2.541   8.116  18.898  0.00  0.00    +0.000 NA
ATOM      9  C   UNL     1       1.742   9.147  19.267  0.00  0.00    +0.000 A 
ATOM     10  C   UNL     1       0.854   9.188  20.312  0.00  0.00    +0.000 A 
ATOM     11  C   UNL     1       0.233  10.450  20.243  0.00  0.00    +0.000 A 
ATOM     12  C   UNL     1      -0.837  11.005  21.106  0.00  0.00    +0.000 C 
ATOM     13  N   UNL     1       0.717  11.175  19.220  0.00  0.00    +0.000 NA
ATOM     14  N   UNL     1       1.631  10.359  18.643  0.00  0.00    +0.000 N 
ATOM     15  C   UNL     1       2.349  10.796  17.471  0.00  0.00    +0.000 C 
ATOM     16  C   UNL     1       0.743   8.035  21.154  0.00  0.00    +0.000 A 
ATOM     17  O   UNL     1      -0.002   7.946  22.124  0.00  0.00    +0.000 OA
ATOM     18  N   UNL     1       1.571   7.002  20.753  0.00  0.00    +0.000 N 
ATOM     19  H   UNL     1       1.519   6.158  21.306  0.00  0.00    +0.000 HD
ENDBRANCH   6   7
BRANCH   4  20
ATOM     20  C   UNL     1       5.486   4.815  16.456  0.00  0.00    +0.000 A 
ATOM     21  C   UNL     1       5.167   4.309  15.208  0.00  0.00    +0.000 A 
ATOM     22  C   UNL     1       6.188   4.539  14.240  0.00  0.00    +0.000 A 
ATOM     23  C   UNL     1       7.257   5.218  14.773  0.00  0.00    +0.000 A 
ATOM     24  S   UNL     1       7.034   5.569  16.426  0.00  0.00    +0.000 S 
ENDBRANCH   4  20
BRANCH   1  25
ATOM     25  O   UNL     1       2.384   4.555  21.226  0.00  0.00    +0.000 OA
BRANCH  25  26
ATOM     26  C   UNL     1       1.457   3.463  21.295  0.00  0.00    +0.000 C 
BRANCH  26  28
ATOM     27  C   UNL     1       0.679   2.307  19.225  0.00  0.00    +0.000 C 
ATOM     28  C   UNL     1       0.467   3.507  20.139  0.00  0.00    +0.000 C 
ENDBRANCH  26  28
ENDBRANCH  25  26
ENDBRANCH   1  25
TORSDOF 5
ENDMDL
MODEL 9
REMARK VINA RESULT:      -6.7      0.837      1.076
REMARK  Name = 
REMARK  8 active torsions:
REMARK  status: ('A' for Active; 'I' for Inactive)
REMARK    1  A    between atoms: C_1  and  C_2
REMARK    2  A    between atoms: C_2  and  C_3
REMARK    3  A    between atoms: C_3  and  O_4
REMARK    4  A    between atoms: O_4  and  C_5
REMARK    5  A    between atoms: C_8  and  C_9
REMARK    6  A    between atoms: C_15  and  C_16
REMARK    7  A    between atoms: C_20  and  C_21
REMARK    8  A    between atoms: N_23  and  C_24
REMARK                            x       y       z     vdW  Elec       q    Type
REMARK                         _______ _______ _______ _____ _____    ______ ____
ROOT
ATOM      1  C   UNL     1       6.652   5.526  16.139  0.00  0.00    +0.000 A 
ATOM      2  C   UNL     1       7.449   5.625  14.986  0.00  0.00    +0.000 A 
ATOM      3  C   UNL     1       7.176   4.873  13.844  0.00  0.00    +0.000 A 
ATOM      4  C   UNL     1       6.103   3.985  13.813  0.00  0.00    +0.000 A 
ATOM      5  C   UNL     1       5.293   3.892  14.953  0.00  0.00    +0.000 A 
ATOM      6  C   UNL     1       5.553   4.642  16.124  0.00  0.00    +0.000 A 
ENDROOT
BRANCH   6   7
ATOM      7  C   UNL     1       4.638   4.381  17.289  0.00  0.00    +0.000 A 
ATOM      8  N   UNL     1       4.031   5.374  17.890  0.00  0.00    +0.000 NA
ATOM      9  C   UNL     1       3.195   4.991  18.887  0.00  0.00    +0.000 A 
ATOM     10  C   UNL     1       2.931   3.714  19.315  0.00  0.00    +0.000 A 
ATOM     11  C   UNL     1       1.962   3.839  20.329  0.00  0.00    +0.000 A 
ATOM     12  C   UNL     1       1.291   2.771  21.107  0.00  0.00    +0.000 C 
ATOM     13  N   UNL     1       1.646   5.128  20.544  0.00  0.00    +0.000 NA
ATOM     14  N   UNL     1       2.409   5.806  19.653  0.00  0.00    +0.000 N 
ATOM     15  C   UNL     1       2.315   7.242  19.570  0.00  0.00    +0.000 C 
ATOM     16  C   UNL     1       3.614   2.629  18.678  0.00  0.00    +0.000 A 
ATOM     17  O   UNL     1       3.476   1.447  18.971  0.00  0.00    +0.000 OA
ATOM     18  N   UNL     1       4.460   3.053  17.668  0.00  0.00    +0.000 N 
ATOM     19  H   UNL     1       4.955   2.323  17.176  0.00  0.00    +0.000 HD
ENDBRANCH   6   7
BRANCH   4  20
ATOM     20  C   UNL     1       5.828   3.150  12.634  0.00  0.00    +0.000 A 
ATOM     21  C   UNL     1       6.634   2.199  12.035  0.00  0.00    +0.000 A 
ATOM     22  C   UNL     1       6.042   1.623  10.872  0.00  0.00    +0.000 A 
ATOM     23  C   UNL     1       4.796   2.145  10.619  0.00  0.00    +0.000 A 
ATOM     24  S   UNL     1       4.350   3.324  11.767  0.00  0.00    +0.000 S 
ENDBRANCH   4  20
BRANCH   1  25
ATOM     25  O   UNL     1       6.912   6.260  17.280  0.00  0.00    +0.000 OA
BRANCH  25  26
ATOM     26  C   UNL     1       6.801   7.683  17.138  0.00  0.00    +0.000 C 
BRANCH  26  28
ATOM     27  C   UNL     1       8.513   7.481  18.942  0.00  0.00    +0.000 C 
ATOM     28  C   UNL     1       7.921   8.399  17.880  0.00  0.00    +0.000 C 
ENDBRANCH  26  28
ENDBRANCH  25  26
ENDBRANCH   1  25
TORSDOF 5
ENDMDL
