MODEL 1
REMARK VINA RESULT:      -9.1      0.000      0.000
REMARK  Name = 
REMARK  7 active torsions:
REMARK  status: ('A' for Active; 'I' for Inactive)
REMARK    1  A    between atoms: C_2  and  C_26
REMARK    2  A    between atoms: N_3  and  C_4
REMARK    3  A    between atoms: C_4  and  C_5
REMARK    4  A    between atoms: C_8  and  C_9
REMARK    5  A    between atoms: C_9  and  N_10
REMARK    6  A    between atoms: N_10  and  S_11
REMARK    7  A    between atoms: S_11  and  C_14
REMARK                            x       y       z     vdW  Elec       q    Type
REMARK                         _______ _______ _______ _____ _____    ______ ____
ROOT
ATOM      1  C   UNL     1       1.919   8.504  18.663  0.00  0.00    +0.000 A 
ATOM      2  C   UNL     1       1.759   8.228  20.028  0.00  0.00    +0.000 A 
ATOM      3  C   UNL     1       1.979   6.941  20.524  0.00  0.00    +0.000 A 
ATOM      4  C   UNL     1       2.352   5.897  19.666  0.00  0.00    +0.000 A 
ATOM      5  C   UNL     1       2.551   6.186  18.307  0.00  0.00    +0.000 A 
ATOM      6  C   UNL     1       2.341   7.476  17.810  0.00  0.00    +0.000 A 
ENDROOT
BRANCH   1   7
ATOM      7  C   UNL     1       1.696   9.899  18.144  0.00  0.00    +0.000 C 
BRANCH   7  10
ATOM      8  O   UNL     1      -0.128  11.335  19.718  0.00  0.00    +0.000 OA
ATOM      9  C   UNL     1      -0.511  10.828  18.669  0.00  0.00    +0.000 C 
ATOM     10  N   UNL     1       0.304  10.110  17.825  0.00  0.00    +0.000 N 
ATOM     11  H   UNL     1       0.004   9.919  16.879  0.00  0.00    +0.000 HD
BRANCH   9  12
ATOM     12  C   UNL     1      -1.919  10.996  18.221  0.00  0.00    +0.000 A 
ATOM     13  C   UNL     1      -2.318  10.435  17.000  0.00  0.00    +0.000 A 
ATOM     14  C   UNL     1      -3.632  10.592  16.554  0.00  0.00    +0.000 A 
ATOM     15  C   UNL     1      -4.535  11.319  17.325  0.00  0.00    +0.000 A 
ATOM     16  F   UNL     1      -5.793  11.474  16.895  0.00  0.00    +0.000 F 
ATOM     17  C   UNL     1      -4.149  11.895  18.530  0.00  0.00    +0.000 A 
ATOM     18  C   UNL     1      -2.837  11.738  18.982  0.00  0.00    +0.000 A 
ENDBRANCH   9  12
ENDBRANCH   7  10
ENDBRANCH   1   7
BRANCH   4  19
ATOM     19  C   UNL     1       2.587   4.493  20.183  0.00  0.00    +0.000 C 
BRANCH  19  20
ATOM     20  N   UNL     1       2.518   3.486  19.120  0.00  0.00    +0.000 NA
ATOM     21  H   UNL     1       1.985   3.757  18.292  0.00  0.00    +0.000 HD
BRANCH  20  22
ATOM     22  S   UNL     1       3.958   2.761  18.661  0.00  0.00    +0.000 S 
ATOM     23  O   UNL     1       4.770   2.692  19.855  0.00  0.00    +0.000 OA
ATOM     24  O   UNL     1       3.627   1.558  17.929  0.00  0.00    +0.000 OA
BRANCH  22  25
ATOM     25  C   UNL     1       4.722   3.921  17.537  0.00  0.00    +0.000 A 
ATOM     26  C   UNL     1       4.428   3.757  16.174  0.00  0.00    +0.000 A 
ATOM     27  C   UNL     1       5.152   4.451  15.212  0.00  0.00    +0.000 A 
ATOM     28  C   UNL     1       6.205   5.270  15.603  0.00  0.00    +0.000 A 
ATOM     29  C   UNL     1       6.528   5.438  16.959  0.00  0.00    +0.000 A 
ATOM     30  C   UNL     1       7.652   6.204  17.310  0.00  0.00    +0.000 A 
ATOM     31  C   UNL     1       7.994   6.408  18.644  0.00  0.00    +0.000 A 
ATOM     32  C   UNL     1       7.184   5.894  19.646  0.00  0.00    +0.000 A 
ATOM     33  C   UNL     1       6.076   5.110  19.312  0.00  0.00    +0.000 A 
ATOM     34  C   UNL     1       5.749   4.810  17.966  0.00  0.00    +0.000 A 
ENDBRANCH  22  25
ENDBRANCH  20  22
ENDBRANCH  19  20
ENDBRANCH   4  19
TORSDOF 7
ENDMDL
MODEL 2
REMARK VINA RESULT:      -8.8      6.460      9.561
REMARK  Name = 
REMARK  7 active torsions:
REMARK  status: ('A' for Active; 'I' for Inactive)
REMARK    1  A    between atoms: C_2  and  C_26
REMARK    2  A    between atoms: N_3  and  C_4
REMARK    3  A    between atoms: C_4  and  C_5
REMARK    4  A    between atoms: C_8  and  C_9
REMARK    5  A    between atoms: C_9  and  N_10
REMARK    6  A    between atoms: N_10  and  S_11
REMARK    7  A    between atoms: S_11  and  C_14
REMARK                            x       y       z     vdW  Elec       q    Type
REMARK                         _______ _______ _______ _____ _____    ______ ____
ROOT
ATOM      1  C   UNL     1       7.073   5.658  17.801  0.00  0.00    +0.000 A 
ATOM      2  C   UNL     1       6.571   6.621  16.915  0.00  0.00    +0.000 A 
ATOM      3  C   UNL     1       6.963   7.957  17.020  0.00  0.00    +0.000 A 
ATOM      4  C   UNL     1       7.855   8.366  18.020  0.00  0.00    +0.000 A 
ATOM      5  C   UNL     1       8.387   7.392  18.881  0.00  0.00    +0.000 A 
ATOM      6  C   UNL     1       8.005   6.052  18.771  0.00  0.00    +0.000 A 
ENDROOT
BRANCH   1   7
ATOM      7  C   UNL     1       6.656   4.218  17.666  0.00  0.00    +0.000 C 
BRANCH   7  10
ATOM      8  O   UNL     1       3.892   4.289  17.199  0.00  0.00    +0.000 OA
ATOM      9  C   UNL     1       4.304   3.959  18.306  0.00  0.00    +0.000 C 
ATOM     10  N   UNL     1       5.638   3.887  18.635  0.00  0.00    +0.000 N 
ATOM     11  H   UNL     1       5.925   3.393  19.469  0.00  0.00    +0.000 HD
BRANCH   9  12
ATOM     12  C   UNL     1       3.351   3.572  19.380  0.00  0.00    +0.000 A 
ATOM     13  C   UNL     1       2.039   4.064  19.336  0.00  0.00    +0.000 A 
ATOM     14  C   UNL     1       1.131   3.723  20.341  0.00  0.00    +0.000 A 
ATOM     15  C   UNL     1       1.542   2.905  21.389  0.00  0.00    +0.000 A 
ATOM     16  F   UNL     1       0.673   2.583  22.355  0.00  0.00    +0.000 F 
ATOM     17  C   UNL     1       2.845   2.423  21.454  0.00  0.00    +0.000 A 
ATOM     18  C   UNL     1       3.756   2.758  20.450  0.00  0.00    +0.000 A 
ENDBRANCH   9  12
ENDBRANCH   7  10
ENDBRANCH   1   7
BRANCH   4  19
ATOM     19  C   UNL     1       8.285   9.811  18.156  0.00  0.00    +0.000 C 
BRANCH  19  20
ATOM     20  N   UNL     1       9.442   9.970  19.043  0.00  0.00    +0.000 NA
ATOM     21  H   UNL     1      10.156   9.244  18.968  0.00  0.00    +0.000 HD
BRANCH  20  22
ATOM     22  S   UNL     1      10.165  11.482  19.092  0.00  0.00    +0.000 S 
ATOM     23  O   UNL     1      11.591  11.246  19.041  0.00  0.00    +0.000 OA
ATOM     24  O   UNL     1       9.523  12.306  18.091  0.00  0.00    +0.000 OA
BRANCH  22  25
ATOM     25  C   UNL     1       9.769  12.131  20.708  0.00  0.00    +0.000 A 
ATOM     26  C   UNL     1       8.912  11.350  21.502  0.00  0.00    +0.000 A 
ATOM     27  C   UNL     1       8.362  11.875  22.665  0.00  0.00    +0.000 A 
ATOM     28  C   UNL     1       8.621  13.197  23.012  0.00  0.00    +0.000 A 
ATOM     29  C   UNL     1       9.461  14.001  22.226  0.00  0.00    +0.000 A 
ATOM     30  C   UNL     1       9.631  15.355  22.561  0.00  0.00    +0.000 A 
ATOM     31  C   UNL     1      10.469  16.180  21.817  0.00  0.00    +0.000 A 
ATOM     32  C   UNL     1      11.193  15.648  20.760  0.00  0.00    +0.000 A 
ATOM     33  C   UNL     1      11.018  14.309  20.400  0.00  0.00    +0.000 A 
ATOM     34  C   UNL     1      10.107  13.463  21.082  0.00  0.00    +0.000 A 
ENDBRANCH  22  25
ENDBRANCH  20  22
ENDBRANCH  19  20
ENDBRANCH   4  19
TORSDOF 7
ENDMDL
MODEL 3
REMARK VINA RESULT:      -8.8      0.592      1.045
REMARK  Name = 
REMARK  7 active torsions:
REMARK  status: ('A' for Active; 'I' for Inactive)
REMARK    1  A    between atoms: C_2  and  C_26
REMARK    2  A    between atoms: N_3  and  C_4
REMARK    3  A    between atoms: C_4  and  C_5
REMARK    4  A    between atoms: C_8  and  C_9
REMARK    5  A    between atoms: C_9  and  N_10
REMARK    6  A    between atoms: N_10  and  S_11
REMARK    7  A    between atoms: S_11  and  C_14
REMARK                            x       y       z     vdW  Elec       q    Type
REMARK                         _______ _______ _______ _____ _____    ______ ____
ROOT
ATOM      1  C   UNL     1       1.823   8.411  18.833  0.00  0.00    +0.000 A 
ATOM      2  C   UNL     1       1.490   8.191  20.176  0.00  0.00    +0.000 A 
ATOM      3  C   UNL     1       1.585   6.914  20.732  0.00  0.00    +0.000 A 
ATOM      4  C   UNL     1       2.002   5.824  19.956  0.00  0.00    +0.000 A 
ATOM      5  C   UNL     1       2.372   6.055  18.621  0.00  0.00    +0.000 A 
ATOM      6  C   UNL     1       2.288   7.334  18.066  0.00  0.00    +0.000 A 
ENDROOT
BRANCH   1   7
ATOM      7  C   UNL     1       1.733   9.796  18.250  0.00  0.00    +0.000 C 
BRANCH   7  10
ATOM      8  O   UNL     1      -0.142  11.240  19.755  0.00  0.00    +0.000 OA
ATOM      9  C   UNL     1      -0.464  10.805  18.654  0.00  0.00    +0.000 C 
ATOM     10  N   UNL     1       0.381  10.091  17.837  0.00  0.00    +0.000 N 
ATOM     11  H   UNL     1       0.148   9.963  16.862  0.00  0.00    +0.000 HD
BRANCH   9  12
ATOM     12  C   UNL     1      -1.824  11.066  18.111  0.00  0.00    +0.000 A 
ATOM     13  C   UNL     1      -2.774  11.697  18.926  0.00  0.00    +0.000 A 
ATOM     14  C   UNL     1      -4.060  11.940  18.440  0.00  0.00    +0.000 A 
ATOM     15  C   UNL     1      -4.392  11.541  17.149  0.00  0.00    +0.000 A 
ATOM     16  F   UNL     1      -5.627  11.769  16.684  0.00  0.00    +0.000 F 
ATOM     17  C   UNL     1      -3.465  10.899  16.335  0.00  0.00    +0.000 A 
ATOM     18  C   UNL     1      -2.176  10.657  16.815  0.00  0.00    +0.000 A 
ENDBRANCH   9  12
ENDBRANCH   7  10
ENDBRANCH   1   7
BRANCH   4  19
ATOM     19  C   UNL     1       2.103   4.429  20.538  0.00  0.00    +0.000 C 
BRANCH  19  20
ATOM     20  N   UNL     1       3.489   3.963  20.637  0.00  0.00    +0.000 NA
ATOM     21  H   UNL     1       3.793   3.682  21.571  0.00  0.00    +0.000 HD
BRANCH  20  22
ATOM     22  S   UNL     1       3.999   2.836  19.506  0.00  0.00    +0.000 S 
ATOM     23  O   UNL     1       5.144   2.172  20.089  0.00  0.00    +0.000 OA
ATOM     24  O   UNL     1       2.840   2.074  19.096  0.00  0.00    +0.000 OA
BRANCH  22  25
ATOM     25  C   UNL     1       4.570   3.803  18.116  0.00  0.00    +0.000 A 
ATOM     26  C   UNL     1       4.059   3.447  16.856  0.00  0.00    +0.000 A 
ATOM     27  C   UNL     1       4.616   3.977  15.699  0.00  0.00    +0.000 A 
ATOM     28  C   UNL     1       5.718   4.821  15.791  0.00  0.00    +0.000 A 
ATOM     29  C   UNL     1       6.255   5.178  17.037  0.00  0.00    +0.000 A 
ATOM     30  C   UNL     1       7.419   5.963  17.087  0.00  0.00    +0.000 A 
ATOM     31  C   UNL     1       7.972   6.353  18.304  0.00  0.00    +0.000 A 
ATOM     32  C   UNL     1       7.336   6.008  19.487  0.00  0.00    +0.000 A 
ATOM     33  C   UNL     1       6.190   5.208  19.455  0.00  0.00    +0.000 A 
ATOM     34  C   UNL     1       5.650   4.722  18.238  0.00  0.00    +0.000 A 
ENDBRANCH  22  25
ENDBRANCH  20  22
ENDBRANCH  19  20
ENDBRANCH   4  19
TORSDOF 7
ENDMDL
MODEL 4
REMARK VINA RESULT:      -8.7      1.271      2.421
REMARK  Name = 
REMARK  7 active torsions:
REMARK  status: ('A' for Active; 'I' for Inactive)
REMARK    1  A    between atoms: C_2  and  C_26
REMARK    2  A    between atoms: N_3  and  C_4
REMARK    3  A    between atoms: C_4  and  C_5
REMARK    4  A    between atoms: C_8  and  C_9
REMARK    5  A    between atoms: C_9  and  N_10
REMARK    6  A    between atoms: N_10  and  S_11
REMARK    7  A    between atoms: S_11  and  C_14
REMARK                            x       y       z     vdW  Elec       q    Type
REMARK                         _______ _______ _______ _____ _____    ______ ____
ROOT
ATOM      1  C   UNL     1       1.021   9.555  19.690  0.00  0.00    +0.000 A 
ATOM      2  C   UNL     1       1.412   8.432  20.430  0.00  0.00    +0.000 A 
ATOM      3  C   UNL     1       2.109   7.386  19.821  0.00  0.00    +0.000 A 
ATOM      4  C   UNL     1       2.421   7.433  18.456  0.00  0.00    +0.000 A 
ATOM      5  C   UNL     1       2.063   8.577  17.726  0.00  0.00    +0.000 A 
ATOM      6  C   UNL     1       1.375   9.630  18.336  0.00  0.00    +0.000 A 
ENDROOT
BRANCH   1   7
ATOM      7  C   UNL     1       0.285  10.684  20.362  0.00  0.00    +0.000 C 
BRANCH   7  10
ATOM      8  O   UNL     1      -0.820  12.859  18.977  0.00  0.00    +0.000 OA
ATOM      9  C   UNL     1      -1.522  11.881  19.217  0.00  0.00    +0.000 C 
ATOM     10  N   UNL     1      -1.075  10.764  19.884  0.00  0.00    +0.000 N 
ATOM     11  H   UNL     1      -1.612   9.909  19.848  0.00  0.00    +0.000 HD
BRANCH   9  12
ATOM     12  C   UNL     1      -2.934  11.837  18.753  0.00  0.00    +0.000 A 
ATOM     13  C   UNL     1      -3.205  11.455  17.432  0.00  0.00    +0.000 A 
ATOM     14  C   UNL     1      -4.523  11.418  16.971  0.00  0.00    +0.000 A 
ATOM     15  C   UNL     1      -5.559  11.775  17.829  0.00  0.00    +0.000 A 
ATOM     16  F   UNL     1      -6.822  11.745  17.386  0.00  0.00    +0.000 F 
ATOM     17  C   UNL     1      -5.304  12.172  19.137  0.00  0.00    +0.000 A 
ATOM     18  C   UNL     1      -3.988  12.207  19.603  0.00  0.00    +0.000 A 
ENDBRANCH   9  12
ENDBRANCH   7  10
ENDBRANCH   1   7
BRANCH   4  19
ATOM     19  C   UNL     1       3.168   6.305  17.775  0.00  0.00    +0.000 C 
BRANCH  19  20
ATOM     20  N   UNL     1       2.545   4.998  18.010  0.00  0.00    +0.000 NA
ATOM     21  H   UNL     1       1.984   4.634  17.239  0.00  0.00    +0.000 HD
BRANCH  20  22
ATOM     22  S   UNL     1       3.523   3.785  18.628  0.00  0.00    +0.000 S 
ATOM     23  O   UNL     1       3.304   3.783  20.057  0.00  0.00    +0.000 OA
ATOM     24  O   UNL     1       3.284   2.591  17.849  0.00  0.00    +0.000 OA
BRANCH  22  25
ATOM     25  C   UNL     1       5.195   4.341  18.326  0.00  0.00    +0.000 A 
ATOM     26  C   UNL     1       5.851   4.961  19.402  0.00  0.00    +0.000 A 
ATOM     27  C   UNL     1       7.051   5.631  19.199  0.00  0.00    +0.000 A 
ATOM     28  C   UNL     1       7.573   5.731  17.913  0.00  0.00    +0.000 A 
ATOM     29  C   UNL     1       6.927   5.133  16.820  0.00  0.00    +0.000 A 
ATOM     30  C   UNL     1       7.438   5.328  15.526  0.00  0.00    +0.000 A 
ATOM     31  C   UNL     1       6.835   4.738  14.419  0.00  0.00    +0.000 A 
ATOM     32  C   UNL     1       5.745   3.898  14.598  0.00  0.00    +0.000 A 
ATOM     33  C   UNL     1       5.212   3.712  15.876  0.00  0.00    +0.000 A 
ATOM     34  C   UNL     1       5.747   4.368  17.014  0.00  0.00    +0.000 A 
ENDBRANCH  22  25
ENDBRANCH  20  22
ENDBRANCH  19  20
ENDBRANCH   4  19
TORSDOF 7
ENDMDL
MODEL 5
REMARK VINA RESULT:      -8.6      0.970      2.305
REMARK  Name = 
REMARK  7 active torsions:
REMARK  status: ('A' for Active; 'I' for Inactive)
REMARK    1  A    between atoms: C_2  and  C_26
REMARK    2  A    between atoms: N_3  and  C_4
REMARK    3  A    between atoms: C_4  and  C_5
REMARK    4  A    between atoms: C_8  and  C_9
REMARK    5  A    between atoms: C_9  and  N_10
REMARK    6  A    between atoms: N_10  and  S_11
REMARK    7  A    between atoms: S_11  and  C_14
REMARK                            x       y       z     vdW  Elec       q    Type
REMARK                         _______ _______ _______ _____ _____    ______ ____
ROOT
ATOM      1  C   UNL     1       1.363   9.522  18.874  0.00  0.00    +0.000 A 
ATOM      2  C   UNL     1       1.224   9.037  20.181  0.00  0.00    +0.000 A 
ATOM      3  C   UNL     1       1.649   7.748  20.510  0.00  0.00    +0.000 A 
ATOM      4  C   UNL     1       2.210   6.909  19.538  0.00  0.00    +0.000 A 
ATOM      5  C   UNL     1       2.385   7.412  18.239  0.00  0.00    +0.000 A 
ATOM      6  C   UNL     1       1.971   8.706  17.910  0.00  0.00    +0.000 A 
ENDROOT
BRANCH   1   7
ATOM      7  C   UNL     1       0.918  10.920  18.535  0.00  0.00    +0.000 C 
BRANCH   7  10
ATOM      8  O   UNL     1      -0.952  12.625  19.744  0.00  0.00    +0.000 OA
ATOM      9  C   UNL     1      -1.332  11.824  18.896  0.00  0.00    +0.000 C 
ATOM     10  N   UNL     1      -0.495  10.950  18.242  0.00  0.00    +0.000 N 
ATOM     11  H   UNL     1      -0.811  10.485  17.402  0.00  0.00    +0.000 HD
BRANCH   9  12
ATOM     12  C   UNL     1      -2.762  11.777  18.491  0.00  0.00    +0.000 A 
ATOM     13  C   UNL     1      -3.741  12.204  19.400  0.00  0.00    +0.000 A 
ATOM     14  C   UNL     1      -5.091  12.156  19.045  0.00  0.00    +0.000 A 
ATOM     15  C   UNL     1      -5.455  11.672  17.793  0.00  0.00    +0.000 A 
ATOM     16  F   UNL     1      -6.749  11.621  17.455  0.00  0.00    +0.000 F 
ATOM     17  C   UNL     1      -4.496  11.230  16.888  0.00  0.00    +0.000 A 
ATOM     18  C   UNL     1      -3.144  11.278  17.236  0.00  0.00    +0.000 A 
ENDBRANCH   9  12
ENDBRANCH   7  10
ENDBRANCH   1   7
BRANCH   4  19
ATOM     19  C   UNL     1       2.669   5.505  19.873  0.00  0.00    +0.000 C 
BRANCH  19  20
ATOM     20  N   UNL     1       2.770   4.651  18.686  0.00  0.00    +0.000 NA
ATOM     21  H   UNL     1       2.800   5.143  17.792  0.00  0.00    +0.000 HD
BRANCH  20  22
ATOM     22  S   UNL     1       3.930   3.441  18.712  0.00  0.00    +0.000 S 
ATOM     23  O   UNL     1       4.017   2.999  20.086  0.00  0.00    +0.000 OA
ATOM     24  O   UNL     1       3.606   2.502  17.660  0.00  0.00    +0.000 OA
BRANCH  22  25
ATOM     25  C   UNL     1       5.462   4.260  18.296  0.00  0.00    +0.000 A 
ATOM     26  C   UNL     1       6.077   4.994  19.324  0.00  0.00    +0.000 A 
ATOM     27  C   UNL     1       7.133   5.851  19.038  0.00  0.00    +0.000 A 
ATOM     28  C   UNL     1       7.545   6.019  17.720  0.00  0.00    +0.000 A 
ATOM     29  C   UNL     1       6.935   5.308  16.674  0.00  0.00    +0.000 A 
ATOM     30  C   UNL     1       7.320   5.567  15.349  0.00  0.00    +0.000 A 
ATOM     31  C   UNL     1       6.751   4.871  14.286  0.00  0.00    +0.000 A 
ATOM     32  C   UNL     1       5.830   3.865  14.540  0.00  0.00    +0.000 A 
ATOM     33  C   UNL     1       5.420   3.610  15.852  0.00  0.00    +0.000 A 
ATOM     34  C   UNL     1       5.914   4.361  16.949  0.00  0.00    +0.000 A 
ENDBRANCH  22  25
ENDBRANCH  20  22
ENDBRANCH  19  20
ENDBRANCH   4  19
TORSDOF 7
ENDMDL
MODEL 6
REMARK VINA RESULT:      -8.4      2.591      3.008
REMARK  Name = 
REMARK  7 active torsions:
REMARK  status: ('A' for Active; 'I' for Inactive)
REMARK    1  A    between atoms: C_2  and  C_26
REMARK    2  A    between atoms: N_3  and  C_4
REMARK    3  A    between atoms: C_4  and  C_5
REMARK    4  A    between atoms: C_8  and  C_9
REMARK    5  A    between atoms: C_9  and  N_10
REMARK    6  A    between atoms: N_10  and  S_11
REMARK    7  A    between atoms: S_11  and  C_14
REMARK                            x       y       z     vdW  Elec       q    Type
REMARK                         _______ _______ _______ _____ _____    ______ ____
ROOT
ATOM      1  C   UNL     1       1.581   8.717  19.110  0.00  0.00    +0.000 A 
ATOM      2  C   UNL     1       1.353   8.263  20.416  0.00  0.00    +0.000 A 
ATOM      3  C   UNL     1       1.739   6.977  20.799  0.00  0.00    +0.000 A 
ATOM      4  C   UNL     1       2.349   6.109  19.884  0.00  0.00    +0.000 A 
ATOM      5  C   UNL     1       2.612   6.580  18.587  0.00  0.00    +0.000 A 
ATOM      6  C   UNL     1       2.237   7.871  18.204  0.00  0.00    +0.000 A 
ENDROOT
BRANCH   1   7
ATOM      7  C   UNL     1       1.177  10.111  18.713  0.00  0.00    +0.000 C 
BRANCH   7  10
ATOM      8  O   UNL     1       1.982  12.358  20.187  0.00  0.00    +0.000 OA
ATOM      9  C   UNL     1       0.897  11.839  20.431  0.00  0.00    +0.000 C 
ATOM     10  N   UNL     1       0.409  10.739  19.763  0.00  0.00    +0.000 N 
ATOM     11  H   UNL     1      -0.570  10.499  19.838  0.00  0.00    +0.000 HD
BRANCH   9  12
ATOM     12  C   UNL     1       0.006  12.411  21.475  0.00  0.00    +0.000 A 
ATOM     13  C   UNL     1      -0.913  11.571  22.120  0.00  0.00    +0.000 A 
ATOM     14  C   UNL     1      -1.768  12.090  23.095  0.00  0.00    +0.000 A 
ATOM     15  C   UNL     1      -1.709  13.444  23.408  0.00  0.00    +0.000 A 
ATOM     16  F   UNL     1      -2.533  13.943  24.339  0.00  0.00    +0.000 F 
ATOM     17  C   UNL     1      -0.814  14.292  22.764  0.00  0.00    +0.000 A 
ATOM     18  C   UNL     1       0.046  13.777  21.792  0.00  0.00    +0.000 A 
ENDBRANCH   9  12
ENDBRANCH   7  10
ENDBRANCH   1   7
BRANCH   4  19
ATOM     19  C   UNL     1       2.767   4.707  20.278  0.00  0.00    +0.000 C 
BRANCH  19  20
ATOM     20  N   UNL     1       2.559   3.737  19.198  0.00  0.00    +0.000 NA
ATOM     21  H   UNL     1       2.002   4.070  18.410  0.00  0.00    +0.000 HD
BRANCH  20  22
ATOM     22  S   UNL     1       3.909   2.915  18.640  0.00  0.00    +0.000 S 
ATOM     23  O   UNL     1       4.776   2.745  19.785  0.00  0.00    +0.000 OA
ATOM     24  O   UNL     1       3.443   1.765  17.897  0.00  0.00    +0.000 OA
BRANCH  22  25
ATOM     25  C   UNL     1       4.703   4.045  17.507  0.00  0.00    +0.000 A 
ATOM     26  C   UNL     1       4.408   3.874  16.145  0.00  0.00    +0.000 A 
ATOM     27  C   UNL     1       5.150   4.542  15.178  0.00  0.00    +0.000 A 
ATOM     28  C   UNL     1       6.222   5.340  15.564  0.00  0.00    +0.000 A 
ATOM     29  C   UNL     1       6.545   5.513  16.918  0.00  0.00    +0.000 A 
ATOM     30  C   UNL     1       7.686   6.257  17.265  0.00  0.00    +0.000 A 
ATOM     31  C   UNL     1       8.029   6.466  18.597  0.00  0.00    +0.000 A 
ATOM     32  C   UNL     1       7.205   5.981  19.602  0.00  0.00    +0.000 A 
ATOM     33  C   UNL     1       6.080   5.220  19.274  0.00  0.00    +0.000 A 
ATOM     34  C   UNL     1       5.749   4.914  17.930  0.00  0.00    +0.000 A 
ENDBRANCH  22  25
ENDBRANCH  20  22
ENDBRANCH  19  20
ENDBRANCH   4  19
TORSDOF 7
ENDMDL
MODEL 7
REMARK VINA RESULT:      -8.4      6.407      9.449
REMARK  Name = 
REMARK  7 active torsions:
REMARK  status: ('A' for Active; 'I' for Inactive)
REMARK    1  A    between atoms: C_2  and  C_26
REMARK    2  A    between atoms: N_3  and  C_4
REMARK    3  A    between atoms: C_4  and  C_5
REMARK    4  A    between atoms: C_8  and  C_9
REMARK    5  A    between atoms: C_9  and  N_10
REMARK    6  A    between atoms: N_10  and  S_11
REMARK    7  A    between atoms: S_11  and  C_14
REMARK                            x       y       z     vdW  Elec       q    Type
REMARK                         _______ _______ _______ _____ _____    ______ ____
ROOT
ATOM      1  C   UNL     1       7.262   5.804  17.858  0.00  0.00    +0.000 A 
ATOM      2  C   UNL     1       6.907   6.788  16.925  0.00  0.00    +0.000 A 
ATOM      3  C   UNL     1       7.331   8.108  17.087  0.00  0.00    +0.000 A 
ATOM      4  C   UNL     1       8.110   8.480  18.191  0.00  0.00    +0.000 A 
ATOM      5  C   UNL     1       8.498   7.485  19.103  0.00  0.00    +0.000 A 
ATOM      6  C   UNL     1       8.083   6.160  18.937  0.00  0.00    +0.000 A 
ENDROOT
BRANCH   1   7
ATOM      7  C   UNL     1       6.813   4.381  17.663  0.00  0.00    +0.000 C 
BRANCH   7  10
ATOM      8  O   UNL     1       4.059   4.637  17.200  0.00  0.00    +0.000 OA
ATOM      9  C   UNL     1       4.448   4.207  18.282  0.00  0.00    +0.000 C 
ATOM     10  N   UNL     1       5.774   4.039  18.605  0.00  0.00    +0.000 N 
ATOM     11  H   UNL     1       6.029   3.472  19.402  0.00  0.00    +0.000 HD
BRANCH   9  12
ATOM     12  C   UNL     1       3.470   3.797  19.325  0.00  0.00    +0.000 A 
ATOM     13  C   UNL     1       3.875   2.900  20.323  0.00  0.00    +0.000 A 
ATOM     14  C   UNL     1       2.969   2.492  21.305  0.00  0.00    +0.000 A 
ATOM     15  C   UNL     1       1.664   2.973  21.276  0.00  0.00    +0.000 A 
ATOM     16  F   UNL     1       0.794   2.578  22.214  0.00  0.00    +0.000 F 
ATOM     17  C   UNL     1       1.244   3.850  20.282  0.00  0.00    +0.000 A 
ATOM     18  C   UNL     1       2.146   4.264  19.300  0.00  0.00    +0.000 A 
ENDBRANCH   9  12
ENDBRANCH   7  10
ENDBRANCH   1   7
BRANCH   4  19
ATOM     19  C   UNL     1       8.573   9.909  18.389  0.00  0.00    +0.000 C 
BRANCH  19  20
ATOM     20  N   UNL     1       9.653  10.015  19.375  0.00  0.00    +0.000 NA
ATOM     21  H   UNL     1      10.539   9.587  19.104  0.00  0.00    +0.000 HD
BRANCH  20  22
ATOM     22  S   UNL     1       9.930  11.527  20.045  0.00  0.00    +0.000 S 
ATOM     23  O   UNL     1       8.686  11.924  20.665  0.00  0.00    +0.000 OA
ATOM     24  O   UNL     1      11.144  11.443  20.826  0.00  0.00    +0.000 OA
BRANCH  22  25
ATOM     25  C   UNL     1      10.220  12.604  18.649  0.00  0.00    +0.000 A 
ATOM     26  C   UNL     1      11.243  12.220  17.766  0.00  0.00    +0.000 A 
ATOM     27  C   UNL     1      11.699  13.103  16.795  0.00  0.00    +0.000 A 
ATOM     28  C   UNL     1      11.174  14.390  16.735  0.00  0.00    +0.000 A 
ATOM     29  C   UNL     1      10.163  14.802  17.616  0.00  0.00    +0.000 A 
ATOM     30  C   UNL     1       9.718  16.134  17.582  0.00  0.00    +0.000 A 
ATOM     31  C   UNL     1       8.705  16.575  18.428  0.00  0.00    +0.000 A 
ATOM     32  C   UNL     1       8.084  15.675  19.282  0.00  0.00    +0.000 A 
ATOM     33  C   UNL     1       8.530  14.352  19.344  0.00  0.00    +0.000 A 
ATOM     34  C   UNL     1       9.617  13.891  18.560  0.00  0.00    +0.000 A 
ENDBRANCH  22  25
ENDBRANCH  20  22
ENDBRANCH  19  20
ENDBRANCH   4  19
TORSDOF 7
ENDMDL
MODEL 8
REMARK VINA RESULT:      -8.3      1.111      2.493
REMARK  Name = 
REMARK  7 active torsions:
REMARK  status: ('A' for Active; 'I' for Inactive)
REMARK    1  A    between atoms: C_2  and  C_26
REMARK    2  A    between atoms: N_3  and  C_4
REMARK    3  A    between atoms: C_4  and  C_5
REMARK    4  A    between atoms: C_8  and  C_9
REMARK    5  A    between atoms: C_9  and  N_10
REMARK    6  A    between atoms: N_10  and  S_11
REMARK    7  A    between atoms: S_11  and  C_14
REMARK                            x       y       z     vdW  Elec       q    Type
REMARK                         _______ _______ _______ _____ _____    ______ ____
ROOT
ATOM      1  C   UNL     1       2.071   7.338  18.819  0.00  0.00    +0.000 A 
ATOM      2  C   UNL     1       1.946   6.384  17.800  0.00  0.00    +0.000 A 
ATOM      3  C   UNL     1       1.784   5.032  18.108  0.00  0.00    +0.000 A 
ATOM      4  C   UNL     1       1.758   4.598  19.440  0.00  0.00    +0.000 A 
ATOM      5  C   UNL     1       1.844   5.560  20.459  0.00  0.00    +0.000 A 
ATOM      6  C   UNL     1       1.994   6.916  20.154  0.00  0.00    +0.000 A 
ENDROOT
BRANCH   1   7
ATOM      7  C   UNL     1       2.226   8.795  18.475  0.00  0.00    +0.000 C 
BRANCH   7  10
ATOM      8  O   UNL     1       0.262   9.921  20.130  0.00  0.00    +0.000 OA
ATOM      9  C   UNL     1       0.071   9.876  18.919  0.00  0.00    +0.000 C 
ATOM     10  N   UNL     1       0.973   9.350  18.023  0.00  0.00    +0.000 N 
ATOM     11  H   UNL     1       0.874   9.547  17.037  0.00  0.00    +0.000 HD
BRANCH   9  12
ATOM     12  C   UNL     1      -1.173  10.439  18.331  0.00  0.00    +0.000 A 
ATOM     13  C   UNL     1      -1.868  11.435  19.033  0.00  0.00    +0.000 A 
ATOM     14  C   UNL     1      -3.046  11.968  18.505  0.00  0.00    +0.000 A 
ATOM     15  C   UNL     1      -3.528  11.496  17.288  0.00  0.00    +0.000 A 
ATOM     16  F   UNL     1      -4.660  12.004  16.785  0.00  0.00    +0.000 F 
ATOM     17  C   UNL     1      -2.858  10.497  16.590  0.00  0.00    +0.000 A 
ATOM     18  C   UNL     1      -1.678   9.963  17.111  0.00  0.00    +0.000 A 
ENDBRANCH   9  12
ENDBRANCH   7  10
ENDBRANCH   1   7
BRANCH   4  19
ATOM     19  C   UNL     1       1.593   3.135  19.794  0.00  0.00    +0.000 C 
BRANCH  19  20
ATOM     20  N   UNL     1       2.879   2.448  19.948  0.00  0.00    +0.000 NA
ATOM     21  H   UNL     1       2.868   1.624  20.552  0.00  0.00    +0.000 HD
BRANCH  20  22
ATOM     22  S   UNL     1       3.743   2.120  18.549  0.00  0.00    +0.000 S 
ATOM     23  O   UNL     1       4.548   0.955  18.839  0.00  0.00    +0.000 OA
ATOM     24  O   UNL     1       2.803   2.107  17.449  0.00  0.00    +0.000 OA
BRANCH  22  25
ATOM     25  C   UNL     1       4.841   3.515  18.347  0.00  0.00    +0.000 A 
ATOM     26  C   UNL     1       5.123   4.260  19.504  0.00  0.00    +0.000 A 
ATOM     27  C   UNL     1       5.768   5.487  19.407  0.00  0.00    +0.000 A 
ATOM     28  C   UNL     1       6.085   6.000  18.154  0.00  0.00    +0.000 A 
ATOM     29  C   UNL     1       5.798   5.281  16.983  0.00  0.00    +0.000 A 
ATOM     30  C   UNL     1       6.055   5.869  15.733  0.00  0.00    +0.000 A 
ATOM     31  C   UNL     1       5.801   5.181  14.550  0.00  0.00    +0.000 A 
ATOM     32  C   UNL     1       5.338   3.874  14.603  0.00  0.00    +0.000 A 
ATOM     33  C   UNL     1       5.056   3.283  15.838  0.00  0.00    +0.000 A 
ATOM     34  C   UNL     1       5.221   3.986  17.058  0.00  0.00    +0.000 A 
ENDBRANCH  22  25
ENDBRANCH  20  22
ENDBRANCH  19  20
ENDBRANCH   4  19
TORSDOF 7
ENDMDL
MODEL 9
REMARK VINA RESULT:      -8.3      2.980      4.053
REMARK  Name = 
REMARK  7 active torsions:
REMARK  status: ('A' for Active; 'I' for Inactive)
REMARK    1  A    between atoms: C_2  and  C_26
REMARK    2  A    between atoms: N_3  and  C_4
REMARK    3  A    between atoms: C_4  and  C_5
REMARK    4  A    between atoms: C_8  and  C_9
REMARK    5  A    between atoms: C_9  and  N_10
REMARK    6  A    between atoms: N_10  and  S_11
REMARK    7  A    between atoms: S_11  and  C_14
REMARK                            x       y       z     vdW  Elec       q    Type
REMARK                         _______ _______ _______ _____ _____    ______ ____
ROOT
ATOM      1  C   UNL     1       1.079   9.435  19.931  0.00  0.00    +0.000 A 
ATOM      2  C   UNL     1       1.233   9.554  18.543  0.00  0.00    +0.000 A 
ATOM      3  C   UNL     1       1.888   8.562  17.812  0.00  0.00    +0.000 A 
ATOM      4  C   UNL     1       2.417   7.432  18.452  0.00  0.00    +0.000 A 
ATOM      5  C   UNL     1       2.227   7.296  19.836  0.00  0.00    +0.000 A 
ATOM      6  C   UNL     1       1.561   8.283  20.568  0.00  0.00    +0.000 A 
ENDROOT
BRANCH   1   7
ATOM      7  C   UNL     1       0.354  10.503  20.705  0.00  0.00    +0.000 C 
BRANCH   7  10
ATOM      8  O   UNL     1      -1.191  12.263  19.162  0.00  0.00    +0.000 OA
ATOM      9  C   UNL     1      -0.066  12.604  19.513  0.00  0.00    +0.000 C 
ATOM     10  N   UNL     1       0.768  11.817  20.274  0.00  0.00    +0.000 N 
ATOM     11  H   UNL     1       1.574  12.229  20.725  0.00  0.00    +0.000 HD
BRANCH   9  12
ATOM     12  C   UNL     1       0.463  13.946  19.149  0.00  0.00    +0.000 A 
ATOM     13  C   UNL     1       1.810  14.070  18.781  0.00  0.00    +0.000 A 
ATOM     14  C   UNL     1       2.330  15.323  18.448  0.00  0.00    +0.000 A 
ATOM     15  C   UNL     1       1.505  16.443  18.498  0.00  0.00    +0.000 A 
ATOM     16  F   UNL     1       2.005  17.645  18.184  0.00  0.00    +0.000 F 
ATOM     17  C   UNL     1       0.172  16.336  18.878  0.00  0.00    +0.000 A 
ATOM     18  C   UNL     1      -0.354  15.086  19.208  0.00  0.00    +0.000 A 
ENDBRANCH   9  12
ENDBRANCH   7  10
ENDBRANCH   1   7
BRANCH   4  19
ATOM     19  C   UNL     1       3.140   6.349  17.678  0.00  0.00    +0.000 C 
BRANCH  19  20
ATOM     20  N   UNL     1       2.518   5.032  17.846  0.00  0.00    +0.000 NA
ATOM     21  H   UNL     1       2.033   4.667  17.025  0.00  0.00    +0.000 HD
BRANCH  20  22
ATOM     22  S   UNL     1       3.455   3.828  18.539  0.00  0.00    +0.000 S 
ATOM     23  O   UNL     1       3.182   3.874  19.958  0.00  0.00    +0.000 OA
ATOM     24  O   UNL     1       3.229   2.612  17.789  0.00  0.00    +0.000 OA
BRANCH  22  25
ATOM     25  C   UNL     1       5.144   4.352  18.283  0.00  0.00    +0.000 A 
ATOM     26  C   UNL     1       5.787   4.945  19.383  0.00  0.00    +0.000 A 
ATOM     27  C   UNL     1       7.005   5.593  19.216  0.00  0.00    +0.000 A 
ATOM     28  C   UNL     1       7.560   5.698  17.944  0.00  0.00    +0.000 A 
ATOM     29  C   UNL     1       6.928   5.127  16.829  0.00  0.00    +0.000 A 
ATOM     30  C   UNL     1       7.474   5.327  15.550  0.00  0.00    +0.000 A 
ATOM     31  C   UNL     1       6.886   4.762  14.422  0.00  0.00    +0.000 A 
ATOM     32  C   UNL     1       5.775   3.943  14.564  0.00  0.00    +0.000 A 
ATOM     33  C   UNL     1       5.207   3.752  15.827  0.00  0.00    +0.000 A 
ATOM     34  C   UNL     1       5.728   4.383  16.985  0.00  0.00    +0.000 A 
ENDBRANCH  22  25
ENDBRANCH  20  22
ENDBRANCH  19  20
ENDBRANCH   4  19
TORSDOF 7
ENDMDL
