MODEL 1
REMARK VINA RESULT:      -8.4      0.000      0.000
REMARK  Name = 
REMARK  7 active torsions:
REMARK  status: ('A' for Active; 'I' for Inactive)
REMARK    1  A    between atoms: N_1  and  C_2
REMARK    2  A    between atoms: C_7  and  N_8
REMARK    3  A    between atoms: C_9  and  C_11
REMARK    4  A    between atoms: C_14  and  C_15
REMARK    5  A    between atoms: C_15  and  S_16
REMARK    6  A    between atoms: S_16  and  C_17
REMARK    7  A    between atoms: C_20  and  C_21
REMARK                            x       y       z     vdW  Elec       q    Type
REMARK                         _______ _______ _______ _____ _____    ______ ____
ROOT
ATOM      1  C   UNL     1       8.091   8.096  18.181  0.00  0.00    +0.000 A 
ATOM      2  C   UNL     1       7.365   7.821  17.012  0.00  0.00    +0.000 A 
ATOM      3  C   UNL     1       6.893   6.536  16.743  0.00  0.00    +0.000 A 
ATOM      4  C   UNL     1       7.158   5.481  17.625  0.00  0.00    +0.000 A 
ATOM      5  C   UNL     1       7.890   5.755  18.794  0.00  0.00    +0.000 A 
ATOM      6  C   UNL     1       8.357   7.052  19.072  0.00  0.00    +0.000 A 
ENDROOT
BRANCH   1   8
ATOM      7  N   UNL     1       9.435   9.766  19.415  0.00  0.00    +0.000 N 
ATOM      8  C   UNL     1       8.552   9.504  18.376  0.00  0.00    +0.000 C 
ATOM      9  O   UNL     1       8.101  10.343  17.598  0.00  0.00    +0.000 OA
ATOM     10  H   UNL     1       9.854   8.995  19.906  0.00  0.00    +0.000 HD
BRANCH   7  16
ATOM     11  C   UNL     1      10.751  11.824  19.081  0.00  0.00    +0.000 A 
ATOM     12  C   UNL     1      11.071  13.125  19.511  0.00  0.00    +0.000 A 
ATOM     13  C   UNL     1      10.573  13.641  20.707  0.00  0.00    +0.000 A 
ATOM     14  C   UNL     1       9.718  12.874  21.482  0.00  0.00    +0.000 A 
ATOM     15  C   UNL     1       9.356  11.601  21.053  0.00  0.00    +0.000 A 
ATOM     16  C   UNL     1       9.831  11.065  19.845  0.00  0.00    +0.000 A 
BRANCH  11  17
ATOM     17  N   UNL     1      11.164  11.452  17.786  0.00  0.00    +0.000 N 
ATOM     18  H   UNL     1      10.455  10.935  17.275  0.00  0.00    +0.000 HD
ATOM     19  H   UNL     1      11.581  12.177  17.222  0.00  0.00    +0.000 HD
ENDBRANCH  11  17
ENDBRANCH   7  16
ENDBRANCH   1   8
BRANCH   4  20
ATOM     20  C   UNL     1       6.635   4.089  17.330  0.00  0.00    +0.000 C 
BRANCH  20  21
ATOM     21  S   UNL     1       4.971   4.113  16.585  0.00  0.00    +0.000 S 
BRANCH  21  22
ATOM     22  C   UNL     1       4.086   4.960  17.817  0.00  0.00    +0.000 A 
ATOM     23  N   UNL     1       3.935   4.534  19.054  0.00  0.00    +0.000 NA
ATOM     24  N   UNL     1       3.196   5.491  19.714  0.00  0.00    +0.000 NA
ATOM     25  C   UNL     1       2.939   6.436  18.838  0.00  0.00    +0.000 A 
ATOM     26  O   UNL     1       3.468   6.168  17.601  0.00  0.00    +0.000 OA
BRANCH  25  27
ATOM     27  C   UNL     1       2.181   7.675  19.011  0.00  0.00    +0.000 A 
ATOM     28  C   UNL     1       1.709   8.011  20.293  0.00  0.00    +0.000 A 
ATOM     29  C   UNL     1       0.935   9.156  20.498  0.00  0.00    +0.000 A 
ATOM     30  C   UNL     1       0.624   9.986  19.425  0.00  0.00    +0.000 A 
ATOM     31  C   UNL     1       1.103   9.682  18.152  0.00  0.00    +0.000 A 
ATOM     32  C   UNL     1       1.881   8.536  17.944  0.00  0.00    +0.000 A 
ENDBRANCH  25  27
ENDBRANCH  21  22
ENDBRANCH  20  21
ENDBRANCH   4  20
TORSDOF 7
ENDMDL
MODEL 2
REMARK VINA RESULT:      -8.2      5.117      8.407
REMARK  Name = 
REMARK  7 active torsions:
REMARK  status: ('A' for Active; 'I' for Inactive)
REMARK    1  A    between atoms: N_1  and  C_2
REMARK    2  A    between atoms: C_7  and  N_8
REMARK    3  A    between atoms: C_9  and  C_11
REMARK    4  A    between atoms: C_14  and  C_15
REMARK    5  A    between atoms: C_15  and  S_16
REMARK    6  A    between atoms: S_16  and  C_17
REMARK    7  A    between atoms: C_20  and  C_21
REMARK                            x       y       z     vdW  Elec       q    Type
REMARK                         _______ _______ _______ _____ _____    ______ ____
ROOT
ATOM      1  C   UNL     1       2.116   8.106  19.052  0.00  0.00    +0.000 A 
ATOM      2  C   UNL     1       2.160   6.973  19.878  0.00  0.00    +0.000 A 
ATOM      3  C   UNL     1       2.960   5.876  19.555  0.00  0.00    +0.000 A 
ATOM      4  C   UNL     1       3.721   5.873  18.380  0.00  0.00    +0.000 A 
ATOM      5  C   UNL     1       3.673   7.006  17.549  0.00  0.00    +0.000 A 
ATOM      6  C   UNL     1       2.875   8.116  17.878  0.00  0.00    +0.000 A 
ENDROOT
BRANCH   1   8
ATOM      7  N   UNL     1       1.293   9.640  20.809  0.00  0.00    +0.000 N 
ATOM      8  C   UNL     1       1.226   9.226  19.486  0.00  0.00    +0.000 C 
ATOM      9  O   UNL     1       0.480   9.698  18.630  0.00  0.00    +0.000 OA
ATOM     10  H   UNL     1       2.032   9.289  21.394  0.00  0.00    +0.000 HD
BRANCH   7  16
ATOM     11  C   UNL     1      -0.543  10.116  22.384  0.00  0.00    +0.000 A 
ATOM     12  C   UNL     1      -1.368  11.068  23.011  0.00  0.00    +0.000 A 
ATOM     13  C   UNL     1      -1.334  12.414  22.648  0.00  0.00    +0.000 A 
ATOM     14  C   UNL     1      -0.450  12.839  21.669  0.00  0.00    +0.000 A 
ATOM     15  C   UNL     1       0.403  11.920  21.066  0.00  0.00    +0.000 A 
ATOM     16  C   UNL     1       0.400  10.563  21.425  0.00  0.00    +0.000 A 
BRANCH  11  17
ATOM     17  N   UNL     1      -0.527   8.817  22.930  0.00  0.00    +0.000 N 
ATOM     18  H   UNL     1      -1.364   8.284  22.712  0.00  0.00    +0.000 HD
ATOM     19  H   UNL     1       0.312   8.278  22.782  0.00  0.00    +0.000 HD
ENDBRANCH  11  17
ENDBRANCH   7  16
ENDBRANCH   1   8
BRANCH   4  20
ATOM     20  C   UNL     1       4.596   4.682  18.040  0.00  0.00    +0.000 C 
BRANCH  20  21
ATOM     21  S   UNL     1       6.367   5.111  17.985  0.00  0.00    +0.000 S 
BRANCH  21  22
ATOM     22  C   UNL     1       6.659   5.026  16.275  0.00  0.00    +0.000 A 
ATOM     23  N   UNL     1       7.547   5.755  15.632  0.00  0.00    +0.000 NA
ATOM     24  N   UNL     1       7.486   5.377  14.309  0.00  0.00    +0.000 NA
ATOM     25  C   UNL     1       6.561   4.447  14.227  0.00  0.00    +0.000 A 
ATOM     26  O   UNL     1       5.982   4.170  15.440  0.00  0.00    +0.000 OA
BRANCH  25  27
ATOM     27  C   UNL     1       6.089   3.715  13.053  0.00  0.00    +0.000 A 
ATOM     28  C   UNL     1       4.766   3.907  12.616  0.00  0.00    +0.000 A 
ATOM     29  C   UNL     1       4.253   3.190  11.532  0.00  0.00    +0.000 A 
ATOM     30  C   UNL     1       5.058   2.272  10.863  0.00  0.00    +0.000 A 
ATOM     31  C   UNL     1       6.379   2.085  11.267  0.00  0.00    +0.000 A 
ATOM     32  C   UNL     1       6.895   2.804  12.352  0.00  0.00    +0.000 A 
ENDBRANCH  25  27
ENDBRANCH  21  22
ENDBRANCH  20  21
ENDBRANCH   4  20
TORSDOF 7
ENDMDL
MODEL 3
REMARK VINA RESULT:      -8.2      0.588      1.290
REMARK  Name = 
REMARK  7 active torsions:
REMARK  status: ('A' for Active; 'I' for Inactive)
REMARK    1  A    between atoms: N_1  and  C_2
REMARK    2  A    between atoms: C_7  and  N_8
REMARK    3  A    between atoms: C_9  and  C_11
REMARK    4  A    between atoms: C_14  and  C_15
REMARK    5  A    between atoms: C_15  and  S_16
REMARK    6  A    between atoms: S_16  and  C_17
REMARK    7  A    between atoms: C_20  and  C_21
REMARK                            x       y       z     vdW  Elec       q    Type
REMARK                         _______ _______ _______ _____ _____    ______ ____
ROOT
ATOM      1  C   UNL     1       8.182   8.242  18.289  0.00  0.00    +0.000 A 
ATOM      2  C   UNL     1       7.488   7.926  17.111  0.00  0.00    +0.000 A 
ATOM      3  C   UNL     1       7.023   6.633  16.874  0.00  0.00    +0.000 A 
ATOM      4  C   UNL     1       7.263   5.609  17.798  0.00  0.00    +0.000 A 
ATOM      5  C   UNL     1       7.964   5.924  18.977  0.00  0.00    +0.000 A 
ATOM      6  C   UNL     1       8.423   7.230  19.222  0.00  0.00    +0.000 A 
ENDROOT
BRANCH   1   8
ATOM      7  N   UNL     1       9.559   9.940  19.447  0.00  0.00    +0.000 N 
ATOM      8  C   UNL     1       8.638   9.657  18.447  0.00  0.00    +0.000 C 
ATOM      9  O   UNL     1       8.151  10.481  17.676  0.00  0.00    +0.000 OA
ATOM     10  H   UNL     1      10.003   9.178  19.931  0.00  0.00    +0.000 HD
BRANCH   7  16
ATOM     11  C   UNL     1       9.460  11.817  21.042  0.00  0.00    +0.000 A 
ATOM     12  C   UNL     1       9.927  13.087  21.428  0.00  0.00    +0.000 A 
ATOM     13  C   UNL     1      10.796  13.822  20.621  0.00  0.00    +0.000 A 
ATOM     14  C   UNL     1      11.239  13.284  19.423  0.00  0.00    +0.000 A 
ATOM     15  C   UNL     1      10.821  12.013  19.043  0.00  0.00    +0.000 A 
ATOM     16  C   UNL     1       9.961  11.247  19.845  0.00  0.00    +0.000 A 
BRANCH  11  17
ATOM     17  N   UNL     1       8.723  11.084  21.992  0.00  0.00    +0.000 N 
ATOM     18  H   UNL     1       8.913  11.370  22.949  0.00  0.00    +0.000 HD
ATOM     19  H   UNL     1       7.735  10.986  21.817  0.00  0.00    +0.000 HD
ENDBRANCH  11  17
ENDBRANCH   7  16
ENDBRANCH   1   8
BRANCH   4  20
ATOM     20  C   UNL     1       6.747   4.208  17.538  0.00  0.00    +0.000 C 
BRANCH  20  21
ATOM     21  S   UNL     1       5.156   4.205  16.648  0.00  0.00    +0.000 S 
BRANCH  21  22
ATOM     22  C   UNL     1       4.133   4.965  17.828  0.00  0.00    +0.000 A 
ATOM     23  N   UNL     1       3.777   4.417  18.971  0.00  0.00    +0.000 NA
ATOM     24  N   UNL     1       2.990   5.340  19.624  0.00  0.00    +0.000 NA
ATOM     25  C   UNL     1       2.910   6.389  18.836  0.00  0.00    +0.000 A 
ATOM     26  O   UNL     1       3.609   6.225  17.666  0.00  0.00    +0.000 OA
BRANCH  25  27
ATOM     27  C   UNL     1       2.190   7.645  19.040  0.00  0.00    +0.000 A 
ATOM     28  C   UNL     1       1.696   7.946  20.322  0.00  0.00    +0.000 A 
ATOM     29  C   UNL     1       0.955   9.108  20.554  0.00  0.00    +0.000 A 
ATOM     30  C   UNL     1       0.701   9.991  19.507  0.00  0.00    +0.000 A 
ATOM     31  C   UNL     1       1.203   9.720  18.235  0.00  0.00    +0.000 A 
ATOM     32  C   UNL     1       1.947   8.557  18.002  0.00  0.00    +0.000 A 
ENDBRANCH  25  27
ENDBRANCH  21  22
ENDBRANCH  20  21
ENDBRANCH   4  20
TORSDOF 7
ENDMDL
MODEL 4
REMARK VINA RESULT:      -8.1      5.219      8.192
REMARK  Name = 
REMARK  7 active torsions:
REMARK  status: ('A' for Active; 'I' for Inactive)
REMARK    1  A    between atoms: N_1  and  C_2
REMARK    2  A    between atoms: C_7  and  N_8
REMARK    3  A    between atoms: C_9  and  C_11
REMARK    4  A    between atoms: C_14  and  C_15
REMARK    5  A    between atoms: C_15  and  S_16
REMARK    6  A    between atoms: S_16  and  C_17
REMARK    7  A    between atoms: C_20  and  C_21
REMARK                            x       y       z     vdW  Elec       q    Type
REMARK                         _______ _______ _______ _____ _____    ______ ____
ROOT
ATOM      1  C   UNL     1       2.495   7.485  18.957  0.00  0.00    +0.000 A 
ATOM      2  C   UNL     1       2.562   6.332  19.754  0.00  0.00    +0.000 A 
ATOM      3  C   UNL     1       3.444   5.296  19.449  0.00  0.00    +0.000 A 
ATOM      4  C   UNL     1       4.268   5.372  18.320  0.00  0.00    +0.000 A 
ATOM      5  C   UNL     1       4.197   6.525  17.518  0.00  0.00    +0.000 A 
ATOM      6  C   UNL     1       3.316   7.575  17.830  0.00  0.00    +0.000 A 
ENDROOT
BRANCH   1   8
ATOM      7  N   UNL     1       1.095   9.451  18.413  0.00  0.00    +0.000 N 
ATOM      8  C   UNL     1       1.515   8.537  19.369  0.00  0.00    +0.000 C 
ATOM      9  O   UNL     1       1.155   8.522  20.545  0.00  0.00    +0.000 OA
ATOM     10  H   UNL     1       1.337   9.295  17.449  0.00  0.00    +0.000 HD
BRANCH   7  16
ATOM     11  C   UNL     1       0.893  11.901  18.600  0.00  0.00    +0.000 A 
ATOM     12  C   UNL     1       0.070  13.023  18.810  0.00  0.00    +0.000 A 
ATOM     13  C   UNL     1      -1.270  12.887  19.174  0.00  0.00    +0.000 A 
ATOM     14  C   UNL     1      -1.821  11.622  19.303  0.00  0.00    +0.000 A 
ATOM     15  C   UNL     1      -1.034  10.501  19.059  0.00  0.00    +0.000 A 
ATOM     16  C   UNL     1       0.312  10.611  18.676  0.00  0.00    +0.000 A 
BRANCH  11  17
ATOM     17  N   UNL     1       2.180  12.134  18.076  0.00  0.00    +0.000 N 
ATOM     18  H   UNL     1       2.713  12.810  18.617  0.00  0.00    +0.000 HD
ATOM     19  H   UNL     1       2.727  11.319  17.848  0.00  0.00    +0.000 HD
ENDBRANCH  11  17
ENDBRANCH   7  16
ENDBRANCH   1   8
BRANCH   4  20
ATOM     20  C   UNL     1       5.231   4.246  17.999  0.00  0.00    +0.000 C 
BRANCH  20  21
ATOM     21  S   UNL     1       6.916   4.848  17.650  0.00  0.00    +0.000 S 
BRANCH  21  22
ATOM     22  C   UNL     1       6.913   4.806  15.913  0.00  0.00    +0.000 A 
ATOM     23  N   UNL     1       7.635   5.595  15.146  0.00  0.00    +0.000 NA
ATOM     24  N   UNL     1       7.367   5.234  13.844  0.00  0.00    +0.000 NA
ATOM     25  C   UNL     1       6.495   4.252  13.899  0.00  0.00    +0.000 A 
ATOM     26  O   UNL     1       6.150   3.924  15.186  0.00  0.00    +0.000 OA
BRANCH  25  27
ATOM     27  C   UNL     1       5.868   3.511  12.805  0.00  0.00    +0.000 A 
ATOM     28  C   UNL     1       6.600   2.497  12.163  0.00  0.00    +0.000 A 
ATOM     29  C   UNL     1       6.064   1.798  11.078  0.00  0.00    +0.000 A 
ATOM     30  C   UNL     1       4.783   2.100  10.622  0.00  0.00    +0.000 A 
ATOM     31  C   UNL     1       4.034   3.086  11.262  0.00  0.00    +0.000 A 
ATOM     32  C   UNL     1       4.569   3.786  12.350  0.00  0.00    +0.000 A 
ENDBRANCH  25  27
ENDBRANCH  21  22
ENDBRANCH  20  21
ENDBRANCH   4  20
TORSDOF 7
ENDMDL
MODEL 5
REMARK VINA RESULT:      -8.1      1.449      1.672
REMARK  Name = 
REMARK  7 active torsions:
REMARK  status: ('A' for Active; 'I' for Inactive)
REMARK    1  A    between atoms: N_1  and  C_2
REMARK    2  A    between atoms: C_7  and  N_8
REMARK    3  A    between atoms: C_9  and  C_11
REMARK    4  A    between atoms: C_14  and  C_15
REMARK    5  A    between atoms: C_15  and  S_16
REMARK    6  A    between atoms: S_16  and  C_17
REMARK    7  A    between atoms: C_20  and  C_21
REMARK                            x       y       z     vdW  Elec       q    Type
REMARK                         _______ _______ _______ _____ _____    ______ ____
ROOT
ATOM      1  C   UNL     1       8.421   8.400  18.520  0.00  0.00    +0.000 A 
ATOM      2  C   UNL     1       7.746   8.250  17.299  0.00  0.00    +0.000 A 
ATOM      3  C   UNL     1       7.195   7.024  16.926  0.00  0.00    +0.000 A 
ATOM      4  C   UNL     1       7.327   5.903  17.755  0.00  0.00    +0.000 A 
ATOM      5  C   UNL     1       8.008   6.052  18.977  0.00  0.00    +0.000 A 
ATOM      6  C   UNL     1       8.555   7.290  19.358  0.00  0.00    +0.000 A 
ENDROOT
BRANCH   1   8
ATOM      7  N   UNL     1       9.429  10.530  17.767  0.00  0.00    +0.000 N 
ATOM      8  C   UNL     1       8.976   9.754  18.825  0.00  0.00    +0.000 C 
ATOM      9  O   UNL     1       9.001  10.084  20.010  0.00  0.00    +0.000 OA
ATOM     10  H   UNL     1       9.238  10.231  16.825  0.00  0.00    +0.000 HD
BRANCH   7  16
ATOM     11  C   UNL     1       9.518  12.985  17.567  0.00  0.00    +0.000 A 
ATOM     12  C   UNL     1      10.238  14.178  17.764  0.00  0.00    +0.000 A 
ATOM     13  C   UNL     1      11.567  14.167  18.189  0.00  0.00    +0.000 A 
ATOM     14  C   UNL     1      12.192  12.960  18.455  0.00  0.00    +0.000 A 
ATOM     15  C   UNL     1      11.484  11.771  18.306  0.00  0.00    +0.000 A 
ATOM     16  C   UNL     1      10.142  11.756  17.896  0.00  0.00    +0.000 A 
BRANCH  11  17
ATOM     17  N   UNL     1       8.140  13.100  17.300  0.00  0.00    +0.000 N 
ATOM     18  H   UNL     1       7.942  13.336  16.331  0.00  0.00    +0.000 HD
ATOM     19  H   UNL     1       7.554  12.351  17.633  0.00  0.00    +0.000 HD
ENDBRANCH  11  17
ENDBRANCH   7  16
ENDBRANCH   1   8
BRANCH   4  20
ATOM     20  C   UNL     1       6.718   4.576  17.348  0.00  0.00    +0.000 C 
BRANCH  20  21
ATOM     21  S   UNL     1       5.388   4.769  16.115  0.00  0.00    +0.000 S 
BRANCH  21  22
ATOM     22  C   UNL     1       4.076   5.262  17.141  0.00  0.00    +0.000 A 
ATOM     23  N   UNL     1       3.252   4.434  17.750  0.00  0.00    +0.000 NA
ATOM     24  N   UNL     1       2.377   5.211  18.477  0.00  0.00    +0.000 NA
ATOM     25  C   UNL     1       2.717   6.462  18.261  0.00  0.00    +0.000 A 
ATOM     26  O   UNL     1       3.791   6.578  17.413  0.00  0.00    +0.000 OA
BRANCH  25  27
ATOM     27  C   UNL     1       2.111   7.687  18.780  0.00  0.00    +0.000 A 
ATOM     28  C   UNL     1       1.786   7.760  20.146  0.00  0.00    +0.000 A 
ATOM     29  C   UNL     1       1.156   8.888  20.677  0.00  0.00    +0.000 A 
ATOM     30  C   UNL     1       0.846   9.965  19.850  0.00  0.00    +0.000 A 
ATOM     31  C   UNL     1       1.181   9.919  18.498  0.00  0.00    +0.000 A 
ATOM     32  C   UNL     1       1.814   8.790  17.965  0.00  0.00    +0.000 A 
ENDBRANCH  25  27
ENDBRANCH  21  22
ENDBRANCH  20  21
ENDBRANCH   4  20
TORSDOF 7
ENDMDL
MODEL 6
REMARK VINA RESULT:      -8.1      5.182      8.132
REMARK  Name = 
REMARK  7 active torsions:
REMARK  status: ('A' for Active; 'I' for Inactive)
REMARK    1  A    between atoms: N_1  and  C_2
REMARK    2  A    between atoms: C_7  and  N_8
REMARK    3  A    between atoms: C_9  and  C_11
REMARK    4  A    between atoms: C_14  and  C_15
REMARK    5  A    between atoms: C_15  and  S_16
REMARK    6  A    between atoms: S_16  and  C_17
REMARK    7  A    between atoms: C_20  and  C_21
REMARK                            x       y       z     vdW  Elec       q    Type
REMARK                         _______ _______ _______ _____ _____    ______ ____
ROOT
ATOM      1  C   UNL     1       1.459   8.838  19.562  0.00  0.00    +0.000 A 
ATOM      2  C   UNL     1       1.619   7.784  20.475  0.00  0.00    +0.000 A 
ATOM      3  C   UNL     1       2.182   6.570  20.081  0.00  0.00    +0.000 A 
ATOM      4  C   UNL     1       2.577   6.366  18.753  0.00  0.00    +0.000 A 
ATOM      5  C   UNL     1       2.411   7.421  17.837  0.00  0.00    +0.000 A 
ATOM      6  C   UNL     1       1.854   8.648  18.235  0.00  0.00    +0.000 A 
ENDROOT
BRANCH   1   8
ATOM      7  N   UNL     1       0.188  10.926  19.185  0.00  0.00    +0.000 N 
ATOM      8  C   UNL     1       0.844  10.097  20.084  0.00  0.00    +0.000 C 
ATOM      9  O   UNL     1       0.976  10.316  21.287  0.00  0.00    +0.000 OA
ATOM     10  H   UNL     1       0.012  10.594  18.252  0.00  0.00    +0.000 HD
BRANCH   7  16
ATOM     11  C   UNL     1       0.397  13.376  19.003  0.00  0.00    +0.000 A 
ATOM     12  C   UNL     1      -0.144  14.648  19.266  0.00  0.00    +0.000 A 
ATOM     13  C   UNL     1      -1.288  14.807  20.049  0.00  0.00    +0.000 A 
ATOM     14  C   UNL     1      -1.930  13.690  20.559  0.00  0.00    +0.000 A 
ATOM     15  C   UNL     1      -1.434  12.421  20.276  0.00  0.00    +0.000 A 
ATOM     16  C   UNL     1      -0.294  12.234  19.478  0.00  0.00    +0.000 A 
BRANCH  11  17
ATOM     17  N   UNL     1       1.451  13.303  18.070  0.00  0.00    +0.000 N 
ATOM     18  H   UNL     1       1.794  14.217  17.786  0.00  0.00    +0.000 HD
ATOM     19  H   UNL     1       2.203  12.670  18.291  0.00  0.00    +0.000 HD
ENDBRANCH  11  17
ENDBRANCH   7  16
ENDBRANCH   1   8
BRANCH   4  20
ATOM     20  C   UNL     1       3.196   5.048  18.335  0.00  0.00    +0.000 C 
BRANCH  20  21
ATOM     21  S   UNL     1       4.700   4.650  19.285  0.00  0.00    +0.000 S 
BRANCH  21  22
ATOM     22  C   UNL     1       5.878   4.604  18.009  0.00  0.00    +0.000 A 
ATOM     23  N   UNL     1       7.181   4.589  18.195  0.00  0.00    +0.000 NA
ATOM     24  N   UNL     1       7.759   4.531  16.946  0.00  0.00    +0.000 NA
ATOM     25  C   UNL     1       6.773   4.520  16.077  0.00  0.00    +0.000 A 
ATOM     26  O   UNL     1       5.540   4.571  16.677  0.00  0.00    +0.000 OA
BRANCH  25  27
ATOM     27  C   UNL     1       6.829   4.475  14.617  0.00  0.00    +0.000 A 
ATOM     28  C   UNL     1       5.995   3.575  13.930  0.00  0.00    +0.000 A 
ATOM     29  C   UNL     1       6.052   3.458  12.539  0.00  0.00    +0.000 A 
ATOM     30  C   UNL     1       6.941   4.244  11.811  0.00  0.00    +0.000 A 
ATOM     31  C   UNL     1       7.759   5.159  12.473  0.00  0.00    +0.000 A 
ATOM     32  C   UNL     1       7.702   5.279  13.867  0.00  0.00    +0.000 A 
ENDBRANCH  25  27
ENDBRANCH  21  22
ENDBRANCH  20  21
ENDBRANCH   4  20
TORSDOF 7
ENDMDL
MODEL 7
REMARK VINA RESULT:      -8.1      5.040      7.704
REMARK  Name = 
REMARK  7 active torsions:
REMARK  status: ('A' for Active; 'I' for Inactive)
REMARK    1  A    between atoms: N_1  and  C_2
REMARK    2  A    between atoms: C_7  and  N_8
REMARK    3  A    between atoms: C_9  and  C_11
REMARK    4  A    between atoms: C_14  and  C_15
REMARK    5  A    between atoms: C_15  and  S_16
REMARK    6  A    between atoms: S_16  and  C_17
REMARK    7  A    between atoms: C_20  and  C_21
REMARK                            x       y       z     vdW  Elec       q    Type
REMARK                         _______ _______ _______ _____ _____    ______ ____
ROOT
ATOM      1  C   UNL     1       1.685   8.074  19.705  0.00  0.00    +0.000 A 
ATOM      2  C   UNL     1       2.344   7.858  18.486  0.00  0.00    +0.000 A 
ATOM      3  C   UNL     1       2.837   6.598  18.146  0.00  0.00    +0.000 A 
ATOM      4  C   UNL     1       2.708   5.521  19.031  0.00  0.00    +0.000 A 
ATOM      5  C   UNL     1       2.052   5.738  20.256  0.00  0.00    +0.000 A 
ATOM      6  C   UNL     1       1.545   7.005  20.595  0.00  0.00    +0.000 A 
ENDROOT
BRANCH   1   8
ATOM      7  N   UNL     1       0.860  10.258  18.890  0.00  0.00    +0.000 N 
ATOM      8  C   UNL     1       1.196   9.460  19.975  0.00  0.00    +0.000 C 
ATOM      9  O   UNL     1       1.136   9.803  21.154  0.00  0.00    +0.000 OA
ATOM     10  H   UNL     1       0.808   9.843  17.975  0.00  0.00    +0.000 HD
BRANCH   7  16
ATOM     11  C   UNL     1       1.477  12.612  18.494  0.00  0.00    +0.000 A 
ATOM     12  C   UNL     1       1.107  13.970  18.527  0.00  0.00    +0.000 A 
ATOM     13  C   UNL     1      -0.104  14.383  19.081  0.00  0.00    +0.000 A 
ATOM     14  C   UNL     1      -0.985  13.440  19.586  0.00  0.00    +0.000 A 
ATOM     15  C   UNL     1      -0.656  12.089  19.525  0.00  0.00    +0.000 A 
ATOM     16  C   UNL     1       0.549  11.647  18.959  0.00  0.00    +0.000 A 
BRANCH  11  17
ATOM     17  N   UNL     1       2.637  12.277  17.769  0.00  0.00    +0.000 N 
ATOM     18  H   UNL     1       3.494  12.562  18.236  0.00  0.00    +0.000 HD
ATOM     19  H   UNL     1       2.693  11.332  17.424  0.00  0.00    +0.000 HD
ENDBRANCH  11  17
ENDBRANCH   7  16
ENDBRANCH   1   8
BRANCH   4  20
ATOM     20  C   UNL     1       3.238   4.153  18.651  0.00  0.00    +0.000 C 
BRANCH  20  21
ATOM     21  S   UNL     1       4.929   3.864  19.268  0.00  0.00    +0.000 S 
BRANCH  21  22
ATOM     22  C   UNL     1       5.859   4.462  17.928  0.00  0.00    +0.000 A 
ATOM     23  N   UNL     1       6.801   5.379  18.023  0.00  0.00    +0.000 NA
ATOM     24  N   UNL     1       7.307   5.557  16.754  0.00  0.00    +0.000 NA
ATOM     25  C   UNL     1       6.640   4.744  15.966  0.00  0.00    +0.000 A 
ATOM     26  O   UNL     1       5.693   4.014  16.640  0.00  0.00    +0.000 OA
BRANCH  25  27
ATOM     27  C   UNL     1       6.770   4.542  14.524  0.00  0.00    +0.000 A 
ATOM     28  C   UNL     1       7.698   5.321  13.808  0.00  0.00    +0.000 A 
ATOM     29  C   UNL     1       7.820   5.202  12.422  0.00  0.00    +0.000 A 
ATOM     30  C   UNL     1       7.019   4.298  11.728  0.00  0.00    +0.000 A 
ATOM     31  C   UNL     1       6.111   3.501  12.424  0.00  0.00    +0.000 A 
ATOM     32  C   UNL     1       5.989   3.618  13.814  0.00  0.00    +0.000 A 
ENDBRANCH  25  27
ENDBRANCH  21  22
ENDBRANCH  20  21
ENDBRANCH   4  20
TORSDOF 7
ENDMDL
MODEL 8
REMARK VINA RESULT:      -8.0      4.673      7.601
REMARK  Name = 
REMARK  7 active torsions:
REMARK  status: ('A' for Active; 'I' for Inactive)
REMARK    1  A    between atoms: N_1  and  C_2
REMARK    2  A    between atoms: C_7  and  N_8
REMARK    3  A    between atoms: C_9  and  C_11
REMARK    4  A    between atoms: C_14  and  C_15
REMARK    5  A    between atoms: C_15  and  S_16
REMARK    6  A    between atoms: S_16  and  C_17
REMARK    7  A    between atoms: C_20  and  C_21
REMARK                            x       y       z     vdW  Elec       q    Type
REMARK                         _______ _______ _______ _____ _____    ______ ____
ROOT
ATOM      1  C   UNL     1       1.534   9.152  19.224  0.00  0.00    +0.000 A 
ATOM      2  C   UNL     1       2.097   8.815  17.984  0.00  0.00    +0.000 A 
ATOM      3  C   UNL     1       2.632   7.547  17.755  0.00  0.00    +0.000 A 
ATOM      4  C   UNL     1       2.642   6.586  18.773  0.00  0.00    +0.000 A 
ATOM      5  C   UNL     1       2.082   6.924  20.018  0.00  0.00    +0.000 A 
ATOM      6  C   UNL     1       1.534   8.198  20.247  0.00  0.00    +0.000 A 
ENDROOT
BRANCH   1   8
ATOM      7  N   UNL     1       1.429  11.508  18.479  0.00  0.00    +0.000 N 
ATOM      8  C   UNL     1       0.990  10.537  19.368  0.00  0.00    +0.000 C 
ATOM      9  O   UNL     1       0.189  10.720  20.282  0.00  0.00    +0.000 OA
ATOM     10  H   UNL     1       1.975  11.229  17.681  0.00  0.00    +0.000 HD
BRANCH   7  16
ATOM     11  C   UNL     1       2.193  13.852  18.451  0.00  0.00    +0.000 A 
ATOM     12  C   UNL     1       1.865  15.220  18.504  0.00  0.00    +0.000 A 
ATOM     13  C   UNL     1       0.564  15.649  18.766  0.00  0.00    +0.000 A 
ATOM     14  C   UNL     1      -0.442  14.715  18.951  0.00  0.00    +0.000 A 
ATOM     15  C   UNL     1      -0.147  13.358  18.862  0.00  0.00    +0.000 A 
ATOM     16  C   UNL     1       1.151  12.901  18.584  0.00  0.00    +0.000 A 
BRANCH  11  17
ATOM     17  N   UNL     1       3.490  13.515  18.018  0.00  0.00    +0.000 N 
ATOM     18  H   UNL     1       3.945  14.265  17.505  0.00  0.00    +0.000 HD
ATOM     19  H   UNL     1       4.101  13.104  18.706  0.00  0.00    +0.000 HD
ENDBRANCH  11  17
ENDBRANCH   7  16
ENDBRANCH   1   8
BRANCH   4  20
ATOM     20  C   UNL     1       3.216   5.207  18.515  0.00  0.00    +0.000 C 
BRANCH  20  21
ATOM     21  S   UNL     1       4.889   5.007  19.211  0.00  0.00    +0.000 S 
BRANCH  21  22
ATOM     22  C   UNL     1       5.857   5.322  17.803  0.00  0.00    +0.000 A 
ATOM     23  N   UNL     1       6.881   6.149  17.771  0.00  0.00    +0.000 NA
ATOM     24  N   UNL     1       7.388   6.102  16.491  0.00  0.00    +0.000 NA
ATOM     25  C   UNL     1       6.638   5.254  15.823  0.00  0.00    +0.000 A 
ATOM     26  O   UNL     1       5.634   4.718  16.589  0.00  0.00    +0.000 OA
BRANCH  25  27
ATOM     27  C   UNL     1       6.732   4.844  14.422  0.00  0.00    +0.000 A 
ATOM     28  C   UNL     1       5.893   3.816  13.956  0.00  0.00    +0.000 A 
ATOM     29  C   UNL     1       5.984   3.353  12.641  0.00  0.00    +0.000 A 
ATOM     30  C   UNL     1       6.913   3.914  11.769  0.00  0.00    +0.000 A 
ATOM     31  C   UNL     1       7.737   4.950  12.207  0.00  0.00    +0.000 A 
ATOM     32  C   UNL     1       7.646   5.416  13.524  0.00  0.00    +0.000 A 
ENDBRANCH  25  27
ENDBRANCH  21  22
ENDBRANCH  20  21
ENDBRANCH   4  20
TORSDOF 7
ENDMDL
MODEL 9
REMARK VINA RESULT:      -8.0      1.395      1.959
REMARK  Name = 
REMARK  7 active torsions:
REMARK  status: ('A' for Active; 'I' for Inactive)
REMARK    1  A    between atoms: N_1  and  C_2
REMARK    2  A    between atoms: C_7  and  N_8
REMARK    3  A    between atoms: C_9  and  C_11
REMARK    4  A    between atoms: C_14  and  C_15
REMARK    5  A    between atoms: C_15  and  S_16
REMARK    6  A    between atoms: S_16  and  C_17
REMARK    7  A    between atoms: C_20  and  C_21
REMARK                            x       y       z     vdW  Elec       q    Type
REMARK                         _______ _______ _______ _____ _____    ______ ____
ROOT
ATOM      1  C   UNL     1       8.278   8.527  18.274  0.00  0.00    +0.000 A 
ATOM      2  C   UNL     1       8.529   7.514  19.211  0.00  0.00    +0.000 A 
ATOM      3  C   UNL     1       8.109   6.203  18.985  0.00  0.00    +0.000 A 
ATOM      4  C   UNL     1       7.400   5.874  17.823  0.00  0.00    +0.000 A 
ATOM      5  C   UNL     1       7.144   6.890  16.886  0.00  0.00    +0.000 A 
ATOM      6  C   UNL     1       7.576   8.210  17.108  0.00  0.00    +0.000 A 
ENDROOT
BRANCH   1   8
ATOM      7  N   UNL     1       8.483  10.932  17.730  0.00  0.00    +0.000 N 
ATOM      8  C   UNL     1       8.769   9.898  18.612  0.00  0.00    +0.000 C 
ATOM      9  O   UNL     1       9.408  10.011  19.656  0.00  0.00    +0.000 OA
ATOM     10  H   UNL     1       7.836  10.767  16.978  0.00  0.00    +0.000 HD
BRANCH   7  16
ATOM     11  C   UNL     1      10.418  12.459  17.711  0.00  0.00    +0.000 A 
ATOM     12  C   UNL     1      10.902  13.780  17.736  0.00  0.00    +0.000 A 
ATOM     13  C   UNL     1      10.051  14.866  17.940  0.00  0.00    +0.000 A 
ATOM     14  C   UNL     1       8.690  14.651  18.093  0.00  0.00    +0.000 A 
ATOM     15  C   UNL     1       8.186  13.356  18.030  0.00  0.00    +0.000 A 
ATOM     16  C   UNL     1       9.020  12.248  17.810  0.00  0.00    +0.000 A 
BRANCH  11  17
ATOM     17  N   UNL     1      11.323  11.447  17.336  0.00  0.00    +0.000 N 
ATOM     18  H   UNL     1      11.748  10.978  18.131  0.00  0.00    +0.000 HD
ATOM     19  H   UNL     1      11.002  10.792  16.640  0.00  0.00    +0.000 HD
ENDBRANCH  11  17
ENDBRANCH   7  16
ENDBRANCH   1   8
BRANCH   4  20
ATOM     20  C   UNL     1       6.955   4.445  17.579  0.00  0.00    +0.000 C 
BRANCH  20  21
ATOM     21  S   UNL     1       5.331   4.353  16.755  0.00  0.00    +0.000 S 
BRANCH  21  22
ATOM     22  C   UNL     1       4.324   5.102  17.956  0.00  0.00    +0.000 A 
ATOM     23  N   UNL     1       4.120   4.621  19.165  0.00  0.00    +0.000 NA
ATOM     24  N   UNL     1       3.288   5.510  19.809  0.00  0.00    +0.000 NA
ATOM     25  C   UNL     1       3.034   6.474  18.952  0.00  0.00    +0.000 A 
ATOM     26  O   UNL     1       3.655   6.283  17.743  0.00  0.00    +0.000 OA
BRANCH  25  27
ATOM     27  C   UNL     1       2.198   7.662  19.119  0.00  0.00    +0.000 A 
ATOM     28  C   UNL     1       1.980   8.502  18.013  0.00  0.00    +0.000 A 
ATOM     29  C   UNL     1       1.233   9.677  18.137  0.00  0.00    +0.000 A 
ATOM     30  C   UNL     1       0.688  10.027  19.370  0.00  0.00    +0.000 A 
ATOM     31  C   UNL     1       0.875   9.195  20.472  0.00  0.00    +0.000 A 
ATOM     32  C   UNL     1       1.621   8.016  20.349  0.00  0.00    +0.000 A 
ENDBRANCH  25  27
ENDBRANCH  21  22
ENDBRANCH  20  21
ENDBRANCH   4  20
TORSDOF 7
ENDMDL
