MODEL 1
REMARK VINA RESULT:      -8.3      0.000      0.000
REMARK  Name = 
REMARK  10 active torsions:
REMARK  status: ('A' for Active; 'I' for Inactive)
REMARK    1  A    between atoms: C_1  and  C_2
REMARK    2  A    between atoms: C_2  and  C_4
REMARK    3  A    between atoms: C_7  and  S_8
REMARK    4  A    between atoms: S_8  and  N_11
REMARK    5  A    between atoms: N_11  and  C_12
REMARK    6  A    between atoms: C_15  and  C_16
REMARK    7  A    between atoms: N_18  and  C_19
REMARK    8  A    between atoms: C_19  and  C_20
REMARK    9  A    between atoms: C_20  and  C_21
REMARK   10  A    between atoms: C_20  and  N_26
REMARK                            x       y       z     vdW  Elec       q    Type
REMARK                         _______ _______ _______ _____ _____    ______ ____
ROOT
ATOM      1  C   UNL     1       0.450  10.440  19.436  0.00  0.00    +0.000 A 
ATOM      2  C   UNL     1       0.204   9.699  20.589  0.00  0.00    +0.000 A 
ATOM      3  C   UNL     1       0.809   8.449  20.754  0.00  0.00    +0.000 A 
ATOM      4  C   UNL     1       1.667   7.947  19.765  0.00  0.00    +0.000 A 
ATOM      5  C   UNL     1       1.881   8.686  18.595  0.00  0.00    +0.000 A 
ATOM      6  C   UNL     1       1.266   9.928  18.429  0.00  0.00    +0.000 A 
ENDROOT
BRANCH   4   7
ATOM      7  C   UNL     1       2.349   6.631  19.914  0.00  0.00    +0.000 C 
ATOM      8  O   UNL     1       1.923   5.808  20.717  0.00  0.00    +0.000 OA
ATOM      9  N   UNL     1       3.430   6.403  19.091  0.00  0.00    +0.000 N 
ATOM     10  H   UNL     1       3.759   7.113  18.449  0.00  0.00    +0.000 HD
BRANCH   9  11
ATOM     11  C   UNL     1       4.229   5.190  19.209  0.00  0.00    +0.000 C 
BRANCH  11  12
ATOM     12  C   UNL     1       4.055   4.168  18.027  0.00  0.00    +0.000 C 
BRANCH  12  13
ATOM     13  C   UNL     1       5.214   4.368  17.054  0.00  0.00    +0.000 A 
ATOM     14  C   UNL     1       5.590   3.831  15.834  0.00  0.00    +0.000 A 
ATOM     15  C   UNL     1       6.772   4.499  15.427  0.00  0.00    +0.000 A 
ATOM     16  C   UNL     1       7.083   5.369  16.442  0.00  0.00    +0.000 A 
ATOM     17  O   UNL     1       6.143   5.315  17.421  0.00  0.00    +0.000 OA
ENDBRANCH  12  13
BRANCH  12  18
ATOM     18  N   UNL     1       3.929   2.769  18.544  0.00  0.00    +0.000 NA
ATOM     19  C   UNL     1       2.894   1.948  17.888  0.00  0.00    +0.000 C 
ATOM     20  C   UNL     1       1.597   2.310  18.574  0.00  0.00    +0.000 C 
ATOM     21  C   UNL     1       2.014   2.464  20.020  0.00  0.00    +0.000 C 
ATOM     22  C   UNL     1       3.519   2.724  19.970  0.00  0.00    +0.000 C 
ENDBRANCH  12  18
ENDBRANCH  11  12
ENDBRANCH   9  11
ENDBRANCH   4   7
BRANCH   1  23
ATOM     23  N   UNL     1      -0.116  11.724  19.272  0.00  0.00    +0.000 N 
ATOM     24  H   UNL     1      -0.882  11.881  18.621  0.00  0.00    +0.000 HD
BRANCH  23  25
ATOM     25  S   UNL     1       0.191  12.927  20.393  0.00  0.00    +0.000 S 
ATOM     26  O   UNL     1       0.225  14.210  19.724  0.00  0.00    +0.000 OA
ATOM     27  O   UNL     1       1.311  12.467  21.189  0.00  0.00    +0.000 OA
BRANCH  25  31
ATOM     28  C   UNL     1      -3.526  12.804  23.054  0.00  0.00    +0.000 A 
ATOM     29  C   UNL     1      -2.298  12.322  23.530  0.00  0.00    +0.000 A 
ATOM     30  C   UNL     1      -1.159  12.369  22.722  0.00  0.00    +0.000 A 
ATOM     31  C   UNL     1      -1.259  12.881  21.428  0.00  0.00    +0.000 A 
ATOM     32  C   UNL     1      -2.480  13.374  20.945  0.00  0.00    +0.000 A 
ATOM     33  C   UNL     1      -3.621  13.329  21.762  0.00  0.00    +0.000 A 
BRANCH  28  35
ATOM     34  C   UNL     1      -5.889  13.615  23.683  0.00  0.00    +0.000 C 
ATOM     35  C   UNL     1      -4.706  12.727  23.961  0.00  0.00    +0.000 C 
ATOM     36  O   UNL     1      -4.681  11.964  24.922  0.00  0.00    +0.000 OA
ENDBRANCH  28  35
ENDBRANCH  25  31
ENDBRANCH  23  25
ENDBRANCH   1  23
TORSDOF 9
ENDMDL
MODEL 2
REMARK VINA RESULT:      -8.3      3.397     10.992
REMARK  Name = 
REMARK  10 active torsions:
REMARK  status: ('A' for Active; 'I' for Inactive)
REMARK    1  A    between atoms: C_1  and  C_2
REMARK    2  A    between atoms: C_2  and  C_4
REMARK    3  A    between atoms: C_7  and  S_8
REMARK    4  A    between atoms: S_8  and  N_11
REMARK    5  A    between atoms: N_11  and  C_12
REMARK    6  A    between atoms: C_15  and  C_16
REMARK    7  A    between atoms: N_18  and  C_19
REMARK    8  A    between atoms: C_19  and  C_20
REMARK    9  A    between atoms: C_20  and  C_21
REMARK   10  A    between atoms: C_20  and  N_26
REMARK                            x       y       z     vdW  Elec       q    Type
REMARK                         _______ _______ _______ _____ _____    ______ ____
ROOT
ATOM      1  C   UNL     1       2.201   8.199  19.075  0.00  0.00    +0.000 A 
ATOM      2  C   UNL     1       1.674   9.037  18.095  0.00  0.00    +0.000 A 
ATOM      3  C   UNL     1       0.616   9.895  18.411  0.00  0.00    +0.000 A 
ATOM      4  C   UNL     1       0.092   9.917  19.712  0.00  0.00    +0.000 A 
ATOM      5  C   UNL     1       0.609   9.046  20.680  0.00  0.00    +0.000 A 
ATOM      6  C   UNL     1       1.657   8.183  20.358  0.00  0.00    +0.000 A 
ENDROOT
BRANCH   4   7
ATOM      7  C   UNL     1      -1.018  10.833  20.094  0.00  0.00    +0.000 C 
ATOM      8  O   UNL     1      -1.133  11.205  21.256  0.00  0.00    +0.000 OA
ATOM      9  N   UNL     1      -1.855  11.240  19.078  0.00  0.00    +0.000 N 
ATOM     10  H   UNL     1      -1.735  10.901  18.132  0.00  0.00    +0.000 HD
BRANCH   9  11
ATOM     11  C   UNL     1      -3.028  12.064  19.347  0.00  0.00    +0.000 C 
BRANCH  11  12
ATOM     12  C   UNL     1      -4.217  11.867  18.338  0.00  0.00    +0.000 C 
BRANCH  12  13
ATOM     13  C   UNL     1      -3.716  11.013  17.176  0.00  0.00    +0.000 A 
ATOM     14  C   UNL     1      -3.103   9.778  17.043  0.00  0.00    +0.000 A 
ATOM     15  C   UNL     1      -2.942   9.535  15.657  0.00  0.00    +0.000 A 
ATOM     16  C   UNL     1      -3.416  10.655  15.020  0.00  0.00    +0.000 A 
ATOM     17  O   UNL     1      -3.903  11.546  15.921  0.00  0.00    +0.000 OA
ENDBRANCH  12  13
BRANCH  12  18
ATOM     18  N   UNL     1      -5.419  11.305  19.032  0.00  0.00    +0.000 NA
ATOM     19  C   UNL     1      -6.635  11.208  18.204  0.00  0.00    +0.000 C 
ATOM     20  C   UNL     1      -7.262  12.583  18.246  0.00  0.00    +0.000 C 
ATOM     21  C   UNL     1      -7.035  13.010  19.678  0.00  0.00    +0.000 C 
ATOM     22  C   UNL     1      -5.869  12.151  20.166  0.00  0.00    +0.000 C 
ENDBRANCH  12  18
ENDBRANCH  11  12
ENDBRANCH   9  11
ENDBRANCH   4   7
BRANCH   1  23
ATOM     23  N   UNL     1       3.299   7.359  18.786  0.00  0.00    +0.000 N 
ATOM     24  H   UNL     1       4.254   7.661  18.967  0.00  0.00    +0.000 HD
BRANCH  23  25
ATOM     25  S   UNL     1       3.058   5.730  18.494  0.00  0.00    +0.000 S 
ATOM     26  O   UNL     1       1.706   5.520  18.021  0.00  0.00    +0.000 OA
ATOM     27  O   UNL     1       3.561   5.028  19.658  0.00  0.00    +0.000 OA
BRANCH  25  31
ATOM     28  C   UNL     1       5.921   4.895  15.027  0.00  0.00    +0.000 A 
ATOM     29  C   UNL     1       5.617   6.215  15.393  0.00  0.00    +0.000 A 
ATOM     30  C   UNL     1       4.751   6.471  16.459  0.00  0.00    +0.000 A 
ATOM     31  C   UNL     1       4.174   5.401  17.144  0.00  0.00    +0.000 A 
ATOM     32  C   UNL     1       4.479   4.078  16.793  0.00  0.00    +0.000 A 
ATOM     33  C   UNL     1       5.353   3.825  15.723  0.00  0.00    +0.000 A 
BRANCH  28  35
ATOM     34  C   UNL     1       6.486   3.667  12.835  0.00  0.00    +0.000 C 
ATOM     35  C   UNL     1       6.851   4.685  13.882  0.00  0.00    +0.000 C 
ATOM     36  O   UNL     1       7.897   5.323  13.826  0.00  0.00    +0.000 OA
ENDBRANCH  28  35
ENDBRANCH  25  31
ENDBRANCH  23  25
ENDBRANCH   1  23
TORSDOF 9
ENDMDL
MODEL 3
REMARK VINA RESULT:      -8.2      0.897      1.153
REMARK  Name = 
REMARK  10 active torsions:
REMARK  status: ('A' for Active; 'I' for Inactive)
REMARK    1  A    between atoms: C_1  and  C_2
REMARK    2  A    between atoms: C_2  and  C_4
REMARK    3  A    between atoms: C_7  and  S_8
REMARK    4  A    between atoms: S_8  and  N_11
REMARK    5  A    between atoms: N_11  and  C_12
REMARK    6  A    between atoms: C_15  and  C_16
REMARK    7  A    between atoms: N_18  and  C_19
REMARK    8  A    between atoms: C_19  and  C_20
REMARK    9  A    between atoms: C_20  and  C_21
REMARK   10  A    between atoms: C_20  and  N_26
REMARK                            x       y       z     vdW  Elec       q    Type
REMARK                         _______ _______ _______ _____ _____    ______ ____
ROOT
ATOM      1  C   UNL     1       0.486  10.487  19.245  0.00  0.00    +0.000 A 
ATOM      2  C   UNL     1       0.232   9.824  20.443  0.00  0.00    +0.000 A 
ATOM      3  C   UNL     1       0.809   8.572  20.679  0.00  0.00    +0.000 A 
ATOM      4  C   UNL     1       1.646   7.990  19.717  0.00  0.00    +0.000 A 
ATOM      5  C   UNL     1       1.867   8.651  18.502  0.00  0.00    +0.000 A 
ATOM      6  C   UNL     1       1.281   9.895  18.265  0.00  0.00    +0.000 A 
ENDROOT
BRANCH   4   7
ATOM      7  C   UNL     1       2.297   6.669  19.941  0.00  0.00    +0.000 C 
ATOM      8  O   UNL     1       1.862   5.909  20.799  0.00  0.00    +0.000 OA
ATOM      9  N   UNL     1       3.363   6.364  19.122  0.00  0.00    +0.000 N 
ATOM     10  H   UNL     1       3.701   7.024  18.433  0.00  0.00    +0.000 HD
BRANCH   9  11
ATOM     11  C   UNL     1       4.133   5.140  19.307  0.00  0.00    +0.000 C 
BRANCH  11  12
ATOM     12  C   UNL     1       4.009   4.099  18.137  0.00  0.00    +0.000 C 
BRANCH  12  13
ATOM     13  C   UNL     1       5.235   4.247  17.239  0.00  0.00    +0.000 A 
ATOM     14  C   UNL     1       5.481   4.197  15.877  0.00  0.00    +0.000 A 
ATOM     15  C   UNL     1       6.858   4.471  15.688  0.00  0.00    +0.000 A 
ATOM     16  C   UNL     1       7.389   4.621  16.945  0.00  0.00    +0.000 A 
ATOM     17  O   UNL     1       6.420   4.508  17.889  0.00  0.00    +0.000 OA
ENDBRANCH  12  13
BRANCH  12  18
ATOM     18  N   UNL     1       3.809   2.715  18.671  0.00  0.00    +0.000 NA
ATOM     19  C   UNL     1       2.786   1.913  17.975  0.00  0.00    +0.000 C 
ATOM     20  C   UNL     1       1.465   2.331  18.582  0.00  0.00    +0.000 C 
ATOM     21  C   UNL     1       1.808   2.500  20.045  0.00  0.00    +0.000 C 
ATOM     22  C   UNL     1       3.321   2.711  20.073  0.00  0.00    +0.000 C 
ENDBRANCH  12  18
ENDBRANCH  11  12
ENDBRANCH   9  11
ENDBRANCH   4   7
BRANCH   1  23
ATOM     23  N   UNL     1      -0.051  11.772  19.007  0.00  0.00    +0.000 N 
ATOM     24  H   UNL     1      -0.940  11.889  18.525  0.00  0.00    +0.000 HD
BRANCH  23  25
ATOM     25  S   UNL     1       0.554  13.100  19.824  0.00  0.00    +0.000 S 
ATOM     26  O   UNL     1       0.432  14.276  18.989  0.00  0.00    +0.000 OA
ATOM     27  O   UNL     1       1.835  12.697  20.368  0.00  0.00    +0.000 OA
BRANCH  25  31
ATOM     28  C   UNL     1      -2.358  13.540  23.323  0.00  0.00    +0.000 A 
ATOM     29  C   UNL     1      -2.721  12.799  22.188  0.00  0.00    +0.000 A 
ATOM     30  C   UNL     1      -1.827  12.655  21.124  0.00  0.00    +0.000 A 
ATOM     31  C   UNL     1      -0.578  13.273  21.190  0.00  0.00    +0.000 A 
ATOM     32  C   UNL     1      -0.202  14.008  22.323  0.00  0.00    +0.000 A 
ATOM     33  C   UNL     1      -1.101  14.147  23.393  0.00  0.00    +0.000 A 
BRANCH  28  35
ATOM     34  C   UNL     1      -4.479  12.662  24.493  0.00  0.00    +0.000 C 
ATOM     35  C   UNL     1      -3.352  13.659  24.426  0.00  0.00    +0.000 C 
ATOM     36  O   UNL     1      -3.248  14.572  25.239  0.00  0.00    +0.000 OA
ENDBRANCH  28  35
ENDBRANCH  25  31
ENDBRANCH  23  25
ENDBRANCH   1  23
TORSDOF 9
ENDMDL
MODEL 4
REMARK VINA RESULT:      -8.2      2.768     11.193
REMARK  Name = 
REMARK  10 active torsions:
REMARK  status: ('A' for Active; 'I' for Inactive)
REMARK    1  A    between atoms: C_1  and  C_2
REMARK    2  A    between atoms: C_2  and  C_4
REMARK    3  A    between atoms: C_7  and  S_8
REMARK    4  A    between atoms: S_8  and  N_11
REMARK    5  A    between atoms: N_11  and  C_12
REMARK    6  A    between atoms: C_15  and  C_16
REMARK    7  A    between atoms: N_18  and  C_19
REMARK    8  A    between atoms: C_19  and  C_20
REMARK    9  A    between atoms: C_20  and  C_21
REMARK   10  A    between atoms: C_20  and  N_26
REMARK                            x       y       z     vdW  Elec       q    Type
REMARK                         _______ _______ _______ _____ _____    ______ ____
ROOT
ATOM      1  C   UNL     1       2.886   6.006  18.880  0.00  0.00    +0.000 A 
ATOM      2  C   UNL     1       2.286   6.495  20.038  0.00  0.00    +0.000 A 
ATOM      3  C   UNL     1       1.781   7.798  20.062  0.00  0.00    +0.000 A 
ATOM      4  C   UNL     1       1.870   8.609  18.922  0.00  0.00    +0.000 A 
ATOM      5  C   UNL     1       2.505   8.118  17.773  0.00  0.00    +0.000 A 
ATOM      6  C   UNL     1       3.018   6.820  17.756  0.00  0.00    +0.000 A 
ENDROOT
BRANCH   4   7
ATOM      7  C   UNL     1       1.324   9.994  18.900  0.00  0.00    +0.000 C 
ATOM      8  O   UNL     1       1.851  10.849  18.197  0.00  0.00    +0.000 OA
ATOM      9  N   UNL     1       0.206  10.225  19.672  0.00  0.00    +0.000 N 
ATOM     10  H   UNL     1      -0.193   9.495  20.248  0.00  0.00    +0.000 HD
BRANCH   9  11
ATOM     11  C   UNL     1      -0.363  11.561  19.799  0.00  0.00    +0.000 C 
BRANCH  11  12
ATOM     12  C   UNL     1      -1.930  11.601  19.915  0.00  0.00    +0.000 C 
BRANCH  12  13
ATOM     13  C   UNL     1      -2.294  12.487  21.104  0.00  0.00    +0.000 A 
ATOM     14  C   UNL     1      -3.310  13.380  21.403  0.00  0.00    +0.000 A 
ATOM     15  C   UNL     1      -3.089  13.841  22.724  0.00  0.00    +0.000 A 
ATOM     16  C   UNL     1      -1.924  13.247  23.142  0.00  0.00    +0.000 A 
ATOM     17  O   UNL     1      -1.444  12.414  22.183  0.00  0.00    +0.000 OA
ENDBRANCH  12  13
BRANCH  12  18
ATOM     18  N   UNL     1      -2.551  12.033  18.623  0.00  0.00    +0.000 NA
ATOM     19  C   UNL     1      -3.855  11.416  18.315  0.00  0.00    +0.000 C 
ATOM     20  C   UNL     1      -3.531  10.072  17.703  0.00  0.00    +0.000 C 
ATOM     21  C   UNL     1      -2.319  10.376  16.851  0.00  0.00    +0.000 C 
ATOM     22  C   UNL     1      -1.731  11.656  17.443  0.00  0.00    +0.000 C 
ENDBRANCH  12  18
ENDBRANCH  11  12
ENDBRANCH   9  11
ENDBRANCH   4   7
BRANCH   1  23
ATOM     23  N   UNL     1       3.361   4.677  18.822  0.00  0.00    +0.000 N 
ATOM     24  H   UNL     1       2.797   3.934  18.414  0.00  0.00    +0.000 HD
BRANCH  23  25
ATOM     25  S   UNL     1       4.982   4.352  19.074  0.00  0.00    +0.000 S 
ATOM     26  O   UNL     1       5.136   2.981  19.512  0.00  0.00    +0.000 OA
ATOM     27  O   UNL     1       5.502   5.453  19.860  0.00  0.00    +0.000 OA
BRANCH  25  31
ATOM     28  C   UNL     1       6.751   4.713  14.872  0.00  0.00    +0.000 A 
ATOM     29  C   UNL     1       7.135   5.609  15.882  0.00  0.00    +0.000 A 
ATOM     30  C   UNL     1       6.604   5.492  17.168  0.00  0.00    +0.000 A 
ATOM     31  C   UNL     1       5.671   4.490  17.435  0.00  0.00    +0.000 A 
ATOM     32  C   UNL     1       5.287   3.584  16.436  0.00  0.00    +0.000 A 
ATOM     33  C   UNL     1       5.826   3.702  15.145  0.00  0.00    +0.000 A 
BRANCH  28  35
ATOM     34  C   UNL     1       6.816   4.060  12.381  0.00  0.00    +0.000 C 
ATOM     35  C   UNL     1       7.351   4.887  13.519  0.00  0.00    +0.000 C 
ATOM     36  O   UNL     1       8.277   5.678  13.365  0.00  0.00    +0.000 OA
ENDBRANCH  28  35
ENDBRANCH  25  31
ENDBRANCH  23  25
ENDBRANCH   1  23
TORSDOF 9
ENDMDL
MODEL 5
REMARK VINA RESULT:      -8.2      2.810     11.160
REMARK  Name = 
REMARK  10 active torsions:
REMARK  status: ('A' for Active; 'I' for Inactive)
REMARK    1  A    between atoms: C_1  and  C_2
REMARK    2  A    between atoms: C_2  and  C_4
REMARK    3  A    between atoms: C_7  and  S_8
REMARK    4  A    between atoms: S_8  and  N_11
REMARK    5  A    between atoms: N_11  and  C_12
REMARK    6  A    between atoms: C_15  and  C_16
REMARK    7  A    between atoms: N_18  and  C_19
REMARK    8  A    between atoms: C_19  and  C_20
REMARK    9  A    between atoms: C_20  and  C_21
REMARK   10  A    between atoms: C_20  and  N_26
REMARK                            x       y       z     vdW  Elec       q    Type
REMARK                         _______ _______ _______ _____ _____    ______ ____
ROOT
ATOM      1  C   UNL     1       2.766   5.850  19.059  0.00  0.00    +0.000 A 
ATOM      2  C   UNL     1       2.794   6.848  18.087  0.00  0.00    +0.000 A 
ATOM      3  C   UNL     1       2.220   8.094  18.355  0.00  0.00    +0.000 A 
ATOM      4  C   UNL     1       1.626   8.343  19.600  0.00  0.00    +0.000 A 
ATOM      5  C   UNL     1       1.575   7.322  20.557  0.00  0.00    +0.000 A 
ATOM      6  C   UNL     1       2.138   6.075  20.283  0.00  0.00    +0.000 A 
ENDROOT
BRANCH   4   7
ATOM      7  C   UNL     1       1.026   9.665  19.932  0.00  0.00    +0.000 C 
ATOM      8  O   UNL     1       1.015  10.059  21.093  0.00  0.00    +0.000 OA
ATOM      9  N   UNL     1       0.532  10.398  18.874  0.00  0.00    +0.000 N 
ATOM     10  H   UNL     1       0.547  10.033  17.931  0.00  0.00    +0.000 HD
BRANCH   9  11
ATOM     11  C   UNL     1      -0.158  11.665  19.088  0.00  0.00    +0.000 C 
BRANCH  11  12
ATOM     12  C   UNL     1      -1.666  11.531  19.511  0.00  0.00    +0.000 C 
BRANCH  12  13
ATOM     13  C   UNL     1      -1.884  12.380  20.760  0.00  0.00    +0.000 A 
ATOM     14  C   UNL     1      -1.712  12.205  22.123  0.00  0.00    +0.000 A 
ATOM     15  C   UNL     1      -2.060  13.425  22.752  0.00  0.00    +0.000 A 
ATOM     16  C   UNL     1      -2.475  14.263  21.747  0.00  0.00    +0.000 A 
ATOM     17  O   UNL     1      -2.357  13.654  20.539  0.00  0.00    +0.000 OA
ENDBRANCH  12  13
BRANCH  12  18
ATOM     18  N   UNL     1      -2.573  11.879  18.372  0.00  0.00    +0.000 NA
ATOM     19  C   UNL     1      -3.853  11.148  18.341  0.00  0.00    +0.000 C 
ATOM     20  C   UNL     1      -3.545   9.823  17.681  0.00  0.00    +0.000 C 
ATOM     21  C   UNL     1      -2.565  10.210  16.597  0.00  0.00    +0.000 C 
ATOM     22  C   UNL     1      -1.982  11.547  17.051  0.00  0.00    +0.000 C 
ENDBRANCH  12  18
ENDBRANCH  11  12
ENDBRANCH   9  11
ENDBRANCH   4   7
BRANCH   1  23
ATOM     23  N   UNL     1       3.379   4.600  18.823  0.00  0.00    +0.000 N 
ATOM     24  H   UNL     1       2.888   3.858  18.329  0.00  0.00    +0.000 HD
BRANCH  23  25
ATOM     25  S   UNL     1       5.033   4.426  19.010  0.00  0.00    +0.000 S 
ATOM     26  O   UNL     1       5.319   3.124  19.574  0.00  0.00    +0.000 OA
ATOM     27  O   UNL     1       5.501   5.639  19.651  0.00  0.00    +0.000 OA
BRANCH  25  31
ATOM     28  C   UNL     1       6.542   4.465  14.694  0.00  0.00    +0.000 A 
ATOM     29  C   UNL     1       5.263   3.973  14.993  0.00  0.00    +0.000 A 
ATOM     30  C   UNL     1       4.797   3.971  16.309  0.00  0.00    +0.000 A 
ATOM     31  C   UNL     1       5.623   4.443  17.329  0.00  0.00    +0.000 A 
ATOM     32  C   UNL     1       6.900   4.946  17.041  0.00  0.00    +0.000 A 
ATOM     33  C   UNL     1       7.364   4.950  15.715  0.00  0.00    +0.000 A 
BRANCH  28  35
ATOM     34  C   UNL     1       8.071   5.390  12.838  0.00  0.00    +0.000 C 
ATOM     35  C   UNL     1       6.985   4.442  13.271  0.00  0.00    +0.000 C 
ATOM     36  O   UNL     1       6.446   3.672  12.482  0.00  0.00    +0.000 OA
ENDBRANCH  28  35
ENDBRANCH  25  31
ENDBRANCH  23  25
ENDBRANCH   1  23
TORSDOF 9
ENDMDL
MODEL 6
REMARK VINA RESULT:      -8.1      1.285      1.882
REMARK  Name = 
REMARK  10 active torsions:
REMARK  status: ('A' for Active; 'I' for Inactive)
REMARK    1  A    between atoms: C_1  and  C_2
REMARK    2  A    between atoms: C_2  and  C_4
REMARK    3  A    between atoms: C_7  and  S_8
REMARK    4  A    between atoms: S_8  and  N_11
REMARK    5  A    between atoms: N_11  and  C_12
REMARK    6  A    between atoms: C_15  and  C_16
REMARK    7  A    between atoms: N_18  and  C_19
REMARK    8  A    between atoms: C_19  and  C_20
REMARK    9  A    between atoms: C_20  and  C_21
REMARK   10  A    between atoms: C_20  and  N_26
REMARK                            x       y       z     vdW  Elec       q    Type
REMARK                         _______ _______ _______ _____ _____    ______ ____
ROOT
ATOM      1  C   UNL     1       0.662  10.420  20.177  0.00  0.00    +0.000 A 
ATOM      2  C   UNL     1       1.267   9.926  19.024  0.00  0.00    +0.000 A 
ATOM      3  C   UNL     1       1.796   8.631  19.017  0.00  0.00    +0.000 A 
ATOM      4  C   UNL     1       1.713   7.831  20.165  0.00  0.00    +0.000 A 
ATOM      5  C   UNL     1       1.132   8.351  21.330  0.00  0.00    +0.000 A 
ATOM      6  C   UNL     1       0.614   9.647  21.336  0.00  0.00    +0.000 A 
ENDROOT
BRANCH   4   7
ATOM      7  C   UNL     1       2.244   6.440  20.191  0.00  0.00    +0.000 C 
ATOM      8  O   UNL     1       1.615   5.555  20.761  0.00  0.00    +0.000 OA
ATOM      9  N   UNL     1       3.431   6.223  19.526  0.00  0.00    +0.000 N 
ATOM     10  H   UNL     1       3.927   6.983  19.077  0.00  0.00    +0.000 HD
BRANCH   9  11
ATOM     11  C   UNL     1       4.091   4.924  19.558  0.00  0.00    +0.000 C 
BRANCH  11  12
ATOM     12  C   UNL     1       3.944   4.077  18.242  0.00  0.00    +0.000 C 
BRANCH  12  13
ATOM     13  C   UNL     1       5.217   4.258  17.419  0.00  0.00    +0.000 A 
ATOM     14  C   UNL     1       6.475   4.794  17.640  0.00  0.00    +0.000 A 
ATOM     15  C   UNL     1       7.228   4.602  16.455  0.00  0.00    +0.000 A 
ATOM     16  C   UNL     1       6.376   4.007  15.558  0.00  0.00    +0.000 A 
ATOM     17  O   UNL     1       5.166   3.776  16.130  0.00  0.00    +0.000 OA
ENDBRANCH  12  13
BRANCH  12  18
ATOM     18  N   UNL     1       3.622   2.649  18.558  0.00  0.00    +0.000 NA
ATOM     19  C   UNL     1       2.484   2.082  17.811  0.00  0.00    +0.000 C 
ATOM     20  C   UNL     1       1.249   2.520  18.564  0.00  0.00    +0.000 C 
ATOM     21  C   UNL     1       1.680   2.407  20.009  0.00  0.00    +0.000 C 
ATOM     22  C   UNL     1       3.206   2.459  19.971  0.00  0.00    +0.000 C 
ENDBRANCH  12  18
ENDBRANCH  11  12
ENDBRANCH   9  11
ENDBRANCH   4   7
BRANCH   1  23
ATOM     23  N   UNL     1       0.082  11.707  20.188  0.00  0.00    +0.000 N 
ATOM     24  H   UNL     1       0.608  12.519  20.507  0.00  0.00    +0.000 HD
BRANCH  23  25
ATOM     25  S   UNL     1      -1.332  12.000  19.344  0.00  0.00    +0.000 S 
ATOM     26  O   UNL     1      -1.818  10.761  18.774  0.00  0.00    +0.000 OA
ATOM     27  O   UNL     1      -1.079  13.159  18.512  0.00  0.00    +0.000 OA
BRANCH  25  31
ATOM     28  C   UNL     1      -4.238  13.279  22.635  0.00  0.00    +0.000 A 
ATOM     29  C   UNL     1      -4.636  13.304  21.291  0.00  0.00    +0.000 A 
ATOM     30  C   UNL     1      -3.753  12.902  20.285  0.00  0.00    +0.000 A 
ATOM     31  C   UNL     1      -2.463  12.497  20.629  0.00  0.00    +0.000 A 
ATOM     32  C   UNL     1      -2.057  12.460  21.971  0.00  0.00    +0.000 A 
ATOM     33  C   UNL     1      -2.950  12.860  22.979  0.00  0.00    +0.000 A 
BRANCH  28  35
ATOM     34  C   UNL     1      -6.307  12.761  24.080  0.00  0.00    +0.000 C 
ATOM     35  C   UNL     1      -5.223  13.719  23.663  0.00  0.00    +0.000 C 
ATOM     36  O   UNL     1      -5.146  14.851  24.130  0.00  0.00    +0.000 OA
ENDBRANCH  28  35
ENDBRANCH  25  31
ENDBRANCH  23  25
ENDBRANCH   1  23
TORSDOF 9
ENDMDL
MODEL 7
REMARK VINA RESULT:      -8.1      3.365     10.482
REMARK  Name = 
REMARK  10 active torsions:
REMARK  status: ('A' for Active; 'I' for Inactive)
REMARK    1  A    between atoms: C_1  and  C_2
REMARK    2  A    between atoms: C_2  and  C_4
REMARK    3  A    between atoms: C_7  and  S_8
REMARK    4  A    between atoms: S_8  and  N_11
REMARK    5  A    between atoms: N_11  and  C_12
REMARK    6  A    between atoms: C_15  and  C_16
REMARK    7  A    between atoms: N_18  and  C_19
REMARK    8  A    between atoms: C_19  and  C_20
REMARK    9  A    between atoms: C_20  and  C_21
REMARK   10  A    between atoms: C_20  and  N_26
REMARK                            x       y       z     vdW  Elec       q    Type
REMARK                         _______ _______ _______ _____ _____    ______ ____
ROOT
ATOM      1  C   UNL     1       1.931   4.773  19.400  0.00  0.00    +0.000 A 
ATOM      2  C   UNL     1       2.026   5.702  20.433  0.00  0.00    +0.000 A 
ATOM      3  C   UNL     1       2.015   7.069  20.140  0.00  0.00    +0.000 A 
ATOM      4  C   UNL     1       1.901   7.503  18.812  0.00  0.00    +0.000 A 
ATOM      5  C   UNL     1       1.839   6.559  17.779  0.00  0.00    +0.000 A 
ATOM      6  C   UNL     1       1.862   5.195  18.074  0.00  0.00    +0.000 A 
ENDROOT
BRANCH   4   7
ATOM      7  C   UNL     1       1.862   8.950  18.460  0.00  0.00    +0.000 C 
ATOM      8  O   UNL     1       2.672   9.409  17.663  0.00  0.00    +0.000 OA
ATOM      9  N   UNL     1       0.867   9.699  19.051  0.00  0.00    +0.000 N 
ATOM     10  H   UNL     1       0.224   9.286  19.715  0.00  0.00    +0.000 HD
BRANCH   9  11
ATOM     11  C   UNL     1       0.785  11.141  18.852  0.00  0.00    +0.000 C 
BRANCH  11  12
ATOM     12  C   UNL     1       0.679  11.983  20.175  0.00  0.00    +0.000 C 
BRANCH  12  13
ATOM     13  C   UNL     1       0.339  11.030  21.317  0.00  0.00    +0.000 A 
ATOM     14  C   UNL     1      -0.791  10.735  22.062  0.00  0.00    +0.000 A 
ATOM     15  C   UNL     1      -0.444   9.693  22.957  0.00  0.00    +0.000 A 
ATOM     16  C   UNL     1       0.889   9.443  22.749  0.00  0.00    +0.000 A 
ATOM     17  O   UNL     1       1.371  10.228  21.750  0.00  0.00    +0.000 OA
ENDBRANCH  12  13
BRANCH  12  18
ATOM     18  N   UNL     1       1.924  12.784  20.400  0.00  0.00    +0.000 NA
ATOM     19  C   UNL     1       1.737  14.041  21.147  0.00  0.00    +0.000 C 
ATOM     20  C   UNL     1       1.280  15.054  20.122  0.00  0.00    +0.000 C 
ATOM     21  C   UNL     1       2.111  14.702  18.909  0.00  0.00    +0.000 C 
ATOM     22  C   UNL     1       2.538  13.252  19.132  0.00  0.00    +0.000 C 
ENDBRANCH  12  18
ENDBRANCH  11  12
ENDBRANCH   9  11
ENDBRANCH   4   7
BRANCH   1  23
ATOM     23  N   UNL     1       1.895   3.389  19.681  0.00  0.00    +0.000 N 
ATOM     24  H   UNL     1       1.023   2.865  19.630  0.00  0.00    +0.000 HD
BRANCH  23  25
ATOM     25  S   UNL     1       3.314   2.505  19.736  0.00  0.00    +0.000 S 
ATOM     26  O   UNL     1       3.084   1.190  19.175  0.00  0.00    +0.000 OA
ATOM     27  O   UNL     1       3.843   2.666  21.076  0.00  0.00    +0.000 OA
BRANCH  25  31
ATOM     28  C   UNL     1       6.049   4.801  16.879  0.00  0.00    +0.000 A 
ATOM     29  C   UNL     1       5.123   3.872  16.381  0.00  0.00    +0.000 A 
ATOM     30  C   UNL     1       4.279   3.178  17.252  0.00  0.00    +0.000 A 
ATOM     31  C   UNL     1       4.381   3.401  18.625  0.00  0.00    +0.000 A 
ATOM     32  C   UNL     1       5.296   4.334  19.134  0.00  0.00    +0.000 A 
ATOM     33  C   UNL     1       6.140   5.033  18.255  0.00  0.00    +0.000 A 
BRANCH  28  35
ATOM     34  C   UNL     1       7.004   4.984  14.494  0.00  0.00    +0.000 C 
ATOM     35  C   UNL     1       6.922   5.510  15.902  0.00  0.00    +0.000 C 
ATOM     36  O   UNL     1       7.569   6.486  16.266  0.00  0.00    +0.000 OA
ENDBRANCH  28  35
ENDBRANCH  25  31
ENDBRANCH  23  25
ENDBRANCH   1  23
TORSDOF 9
ENDMDL
MODEL 8
REMARK VINA RESULT:      -8.0      3.124     11.245
REMARK  Name = 
REMARK  10 active torsions:
REMARK  status: ('A' for Active; 'I' for Inactive)
REMARK    1  A    between atoms: C_1  and  C_2
REMARK    2  A    between atoms: C_2  and  C_4
REMARK    3  A    between atoms: C_7  and  S_8
REMARK    4  A    between atoms: S_8  and  N_11
REMARK    5  A    between atoms: N_11  and  C_12
REMARK    6  A    between atoms: C_15  and  C_16
REMARK    7  A    between atoms: N_18  and  C_19
REMARK    8  A    between atoms: C_19  and  C_20
REMARK    9  A    between atoms: C_20  and  C_21
REMARK   10  A    between atoms: C_20  and  N_26
REMARK                            x       y       z     vdW  Elec       q    Type
REMARK                         _______ _______ _______ _____ _____    ______ ____
ROOT
ATOM      1  C   UNL     1       2.526   6.055  18.927  0.00  0.00    +0.000 A 
ATOM      2  C   UNL     1       2.498   7.303  18.307  0.00  0.00    +0.000 A 
ATOM      3  C   UNL     1       1.983   8.407  18.993  0.00  0.00    +0.000 A 
ATOM      4  C   UNL     1       1.502   8.262  20.302  0.00  0.00    +0.000 A 
ATOM      5  C   UNL     1       1.505   6.996  20.903  0.00  0.00    +0.000 A 
ATOM      6  C   UNL     1       2.010   5.894  20.212  0.00  0.00    +0.000 A 
ENDROOT
BRANCH   4   7
ATOM      7  C   UNL     1       0.967   9.418  21.073  0.00  0.00    +0.000 C 
ATOM      8  O   UNL     1       1.374   9.637  22.209  0.00  0.00    +0.000 OA
ATOM      9  N   UNL     1       0.041  10.210  20.429  0.00  0.00    +0.000 N 
ATOM     10  H   UNL     1      -0.279   9.988  19.495  0.00  0.00    +0.000 HD
BRANCH   9  11
ATOM     11  C   UNL     1      -0.617  11.315  21.115  0.00  0.00    +0.000 C 
BRANCH  11  12
ATOM     12  C   UNL     1      -1.052  12.503  20.183  0.00  0.00    +0.000 C 
BRANCH  12  13
ATOM     13  C   UNL     1      -1.961  11.941  19.093  0.00  0.00    +0.000 A 
ATOM     14  C   UNL     1      -3.328  11.859  18.884  0.00  0.00    +0.000 A 
ATOM     15  C   UNL     1      -3.524  11.248  17.621  0.00  0.00    +0.000 A 
ATOM     16  C   UNL     1      -2.272  10.944  17.149  0.00  0.00    +0.000 A 
ATOM     17  O   UNL     1      -1.319  11.372  18.017  0.00  0.00    +0.000 OA
ENDBRANCH  12  13
BRANCH  12  18
ATOM     18  N   UNL     1      -1.671  13.609  20.980  0.00  0.00    +0.000 NA
ATOM     19  C   UNL     1      -1.389  14.971  20.491  0.00  0.00    +0.000 C 
ATOM     20  C   UNL     1      -0.034  15.330  21.057  0.00  0.00    +0.000 C 
ATOM     21  C   UNL     1      -0.083  14.735  22.446  0.00  0.00    +0.000 C 
ATOM     22  C   UNL     1      -1.164  13.658  22.375  0.00  0.00    +0.000 C 
ENDBRANCH  12  18
ENDBRANCH  11  12
ENDBRANCH   9  11
ENDBRANCH   4   7
BRANCH   1  23
ATOM     23  N   UNL     1       3.085   4.938  18.268  0.00  0.00    +0.000 N 
ATOM     24  H   UNL     1       2.661   4.561  17.423  0.00  0.00    +0.000 HD
BRANCH  23  25
ATOM     25  S   UNL     1       4.640   4.439  18.629  0.00  0.00    +0.000 S 
ATOM     26  O   UNL     1       4.622   3.041  19.004  0.00  0.00    +0.000 OA
ATOM     27  O   UNL     1       5.197   5.444  19.512  0.00  0.00    +0.000 OA
BRANCH  25  31
ATOM     28  C   UNL     1       6.785   4.806  14.607  0.00  0.00    +0.000 A 
ATOM     29  C   UNL     1       7.421   5.214  15.789  0.00  0.00    +0.000 A 
ATOM     30  C   UNL     1       6.771   5.092  17.020  0.00  0.00    +0.000 A 
ATOM     31  C   UNL     1       5.474   4.580  17.060  0.00  0.00    +0.000 A 
ATOM     32  C   UNL     1       4.832   4.160  15.886  0.00  0.00    +0.000 A 
ATOM     33  C   UNL     1       5.491   4.281  14.652  0.00  0.00    +0.000 A 
BRANCH  28  35
ATOM     34  C   UNL     1       7.103   4.134  12.141  0.00  0.00    +0.000 C 
ATOM     35  C   UNL     1       7.528   4.961  13.325  0.00  0.00    +0.000 C 
ATOM     36  O   UNL     1       8.478   5.735  13.266  0.00  0.00    +0.000 OA
ENDBRANCH  28  35
ENDBRANCH  25  31
ENDBRANCH  23  25
ENDBRANCH   1  23
TORSDOF 9
ENDMDL
MODEL 9
REMARK VINA RESULT:      -8.0      2.959     11.040
REMARK  Name = 
REMARK  10 active torsions:
REMARK  status: ('A' for Active; 'I' for Inactive)
REMARK    1  A    between atoms: C_1  and  C_2
REMARK    2  A    between atoms: C_2  and  C_4
REMARK    3  A    between atoms: C_7  and  S_8
REMARK    4  A    between atoms: S_8  and  N_11
REMARK    5  A    between atoms: N_11  and  C_12
REMARK    6  A    between atoms: C_15  and  C_16
REMARK    7  A    between atoms: N_18  and  C_19
REMARK    8  A    between atoms: C_19  and  C_20
REMARK    9  A    between atoms: C_20  and  C_21
REMARK   10  A    between atoms: C_20  and  N_26
REMARK                            x       y       z     vdW  Elec       q    Type
REMARK                         _______ _______ _______ _____ _____    ______ ____
ROOT
ATOM      1  C   UNL     1       2.980   6.040  18.917  0.00  0.00    +0.000 A 
ATOM      2  C   UNL     1       2.220   6.569  19.958  0.00  0.00    +0.000 A 
ATOM      3  C   UNL     1       1.735   7.877  19.869  0.00  0.00    +0.000 A 
ATOM      4  C   UNL     1       2.005   8.652  18.732  0.00  0.00    +0.000 A 
ATOM      5  C   UNL     1       2.798   8.122  17.706  0.00  0.00    +0.000 A 
ATOM      6  C   UNL     1       3.290   6.819  17.804  0.00  0.00    +0.000 A 
ENDROOT
BRANCH   4   7
ATOM      7  C   UNL     1       1.487  10.041  18.589  0.00  0.00    +0.000 C 
ATOM      8  O   UNL     1       2.111  10.862  17.926  0.00  0.00    +0.000 OA
ATOM      9  N   UNL     1       0.286  10.315  19.206  0.00  0.00    +0.000 N 
ATOM     10  H   UNL     1      -0.193   9.613  19.756  0.00  0.00    +0.000 HD
BRANCH   9  11
ATOM     11  C   UNL     1      -0.274  11.661  19.210  0.00  0.00    +0.000 C 
BRANCH  11  12
ATOM     12  C   UNL     1      -0.024  12.476  20.531  0.00  0.00    +0.000 C 
BRANCH  12  13
ATOM     13  C   UNL     1       1.259  13.283  20.352  0.00  0.00    +0.000 A 
ATOM     14  C   UNL     1       1.744  14.183  19.418  0.00  0.00    +0.000 A 
ATOM     15  C   UNL     1       3.013  14.619  19.872  0.00  0.00    +0.000 A 
ATOM     16  C   UNL     1       3.259  13.924  21.030  0.00  0.00    +0.000 A 
ATOM     17  O   UNL     1       2.203  13.129  21.342  0.00  0.00    +0.000 OA
ENDBRANCH  12  13
BRANCH  12  18
ATOM     18  N   UNL     1      -1.220  13.304  20.883  0.00  0.00    +0.000 NA
ATOM     19  C   UNL     1      -1.050  14.189  22.050  0.00  0.00    +0.000 C 
ATOM     20  C   UNL     1      -1.307  13.317  23.258  0.00  0.00    +0.000 C 
ATOM     21  C   UNL     1      -2.451  12.439  22.800  0.00  0.00    +0.000 C 
ATOM     22  C   UNL     1      -2.390  12.477  21.274  0.00  0.00    +0.000 C 
ENDBRANCH  12  18
ENDBRANCH  11  12
ENDBRANCH   9  11
ENDBRANCH   4   7
BRANCH   1  23
ATOM     23  N   UNL     1       3.440   4.706  18.969  0.00  0.00    +0.000 N 
ATOM     24  H   UNL     1       2.834   3.930  18.709  0.00  0.00    +0.000 HD
BRANCH  23  25
ATOM     25  S   UNL     1       5.077   4.385  19.095  0.00  0.00    +0.000 S 
ATOM     26  O   UNL     1       5.267   3.055  19.632  0.00  0.00    +0.000 OA
ATOM     27  O   UNL     1       5.672   5.543  19.733  0.00  0.00    +0.000 OA
BRANCH  25  31
ATOM     28  C   UNL     1       6.434   4.357  14.728  0.00  0.00    +0.000 A 
ATOM     29  C   UNL     1       5.135   3.952  15.069  0.00  0.00    +0.000 A 
ATOM     30  C   UNL     1       4.716   3.971  16.401  0.00  0.00    +0.000 A 
ATOM     31  C   UNL     1       5.609   4.376  17.394  0.00  0.00    +0.000 A 
ATOM     32  C   UNL     1       6.907   4.792  17.064  0.00  0.00    +0.000 A 
ATOM     33  C   UNL     1       7.323   4.775  15.722  0.00  0.00    +0.000 A 
BRANCH  28  35
ATOM     34  C   UNL     1       7.892   5.259  12.805  0.00  0.00    +0.000 C 
ATOM     35  C   UNL     1       6.824   4.315  13.291  0.00  0.00    +0.000 C 
ATOM     36  O   UNL     1       6.258   3.535  12.533  0.00  0.00    +0.000 OA
ENDBRANCH  28  35
ENDBRANCH  25  31
ENDBRANCH  23  25
ENDBRANCH   1  23
TORSDOF 9
ENDMDL
