MODEL 1
REMARK VINA RESULT:      -6.7      0.000      0.000
REMARK  Name = 
REMARK  10 active torsions:
REMARK  status: ('A' for Active; 'I' for Inactive)
REMARK    1  A    between atoms: C_1  and  C_2
REMARK    2  A    between atoms: C_2  and  C_3
REMARK    3  A    between atoms: C_2  and  C_4
REMARK    4  A    between atoms: C_6  and  O_7
REMARK    5  A    between atoms: O_7  and  O_8
REMARK    6  A    between atoms: P_10  and  N_12
REMARK    7  A    between atoms: N_12  and  C_13
REMARK    8  A    between atoms: N_12  and  C_16
REMARK    9  A    between atoms: C_13  and  C_14
REMARK   10  A    between atoms: C_16  and  C_17
REMARK                            x       y       z     vdW  Elec       q    Type
REMARK                         _______ _______ _______ _____ _____    ______ ____
ROOT
ATOM      1  C   UNL     1       2.129   3.112  19.078  0.00  0.00    +0.000 C 
ATOM      2  C   UNL     1       3.090   1.961  19.416  0.00  0.00    +0.000 C 
ATOM      3  C   UNL     1       4.387   2.445  20.059  0.00  0.00    +0.000 C 
ATOM      4  N   UNL     1       5.087   3.391  19.225  0.00  0.00    +0.000 NA
ATOM      5  P   UNL     1       4.320   4.068  17.977  0.00  0.00    +0.000 P 
ATOM      6  O   UNL     1       4.379   3.305  16.694  0.00  0.00    +0.000 OA
ATOM      7  O   UNL     1       2.810   4.229  18.502  0.00  0.00    +0.000 OA
ATOM      8  H   UNL     1       5.991   2.991  19.009  0.00  0.00    +0.000 HD
ENDROOT
BRANCH   1  10
ATOM      9  C   UNL     1       1.406   2.685  21.476  0.00  0.00    +0.000 C 
ATOM     10  C   UNL     1       1.328   3.661  20.289  0.00  0.00    +0.000 C 
ATOM     11  C   UNL     1       1.790   5.042  20.758  0.00  0.00    +0.000 C 
ENDBRANCH   1  10
BRANCH   3  12
ATOM     12  O   UNL     1       5.206   1.286  20.291  0.00  0.00    +0.000 OA
BRANCH  12  13
ATOM     13  O   UNL     1       5.571   1.304  21.707  0.00  0.00    +0.000 OA
ATOM     14  H   UNL     1       5.395   2.251  21.853  0.00  0.00    +0.000 HD
ENDBRANCH  12  13
ENDBRANCH   3  12
BRANCH   5  15
ATOM     15  N   UNL     1       4.978   5.576  17.920  0.00  0.00    +0.000 NA
BRANCH  15  16
ATOM     16  C   UNL     1       6.398   5.748  18.260  0.00  0.00    +0.000 C 
BRANCH  16  17
ATOM     17  C   UNL     1       7.272   6.367  17.164  0.00  0.00    +0.000 C 
ATOM     18 CL   UNL     1       7.762   8.019  17.628  0.00  0.00    +0.000 Cl
ENDBRANCH  16  17
ENDBRANCH  15  16
BRANCH  15  19
ATOM     19  C   UNL     1       4.118   6.653  18.447  0.00  0.00    +0.000 C 
BRANCH  19  20
ATOM     20  C   UNL     1       3.588   7.631  17.397  0.00  0.00    +0.000 C 
ATOM     21 CL   UNL     1       1.974   8.223  17.869  0.00  0.00    +0.000 Cl
ENDBRANCH  19  20
ENDBRANCH  15  19
ENDBRANCH   5  15
TORSDOF 8
ENDMDL
MODEL 2
REMARK VINA RESULT:      -6.4      1.217      2.592
REMARK  Name = 
REMARK  10 active torsions:
REMARK  status: ('A' for Active; 'I' for Inactive)
REMARK    1  A    between atoms: C_1  and  C_2
REMARK    2  A    between atoms: C_2  and  C_3
REMARK    3  A    between atoms: C_2  and  C_4
REMARK    4  A    between atoms: C_6  and  O_7
REMARK    5  A    between atoms: O_7  and  O_8
REMARK    6  A    between atoms: P_10  and  N_12
REMARK    7  A    between atoms: N_12  and  C_13
REMARK    8  A    between atoms: N_12  and  C_16
REMARK    9  A    between atoms: C_13  and  C_14
REMARK   10  A    between atoms: C_16  and  C_17
REMARK                            x       y       z     vdW  Elec       q    Type
REMARK                         _______ _______ _______ _____ _____    ______ ____
ROOT
ATOM      1  C   UNL     1       2.069   3.073  19.108  0.00  0.00    +0.000 C 
ATOM      2  C   UNL     1       3.058   1.947  19.447  0.00  0.00    +0.000 C 
ATOM      3  C   UNL     1       4.372   2.468  20.024  0.00  0.00    +0.000 C 
ATOM      4  N   UNL     1       5.027   3.394  19.133  0.00  0.00    +0.000 NA
ATOM      5  P   UNL     1       4.204   4.020  17.893  0.00  0.00    +0.000 P 
ATOM      6  O   UNL     1       4.226   3.214  16.635  0.00  0.00    +0.000 OA
ATOM      7  O   UNL     1       2.712   4.179  18.469  0.00  0.00    +0.000 OA
ATOM      8  H   UNL     1       5.927   2.999  18.897  0.00  0.00    +0.000 HD
ENDROOT
BRANCH   1  10
ATOM      9  C   UNL     1       1.419   2.705  21.536  0.00  0.00    +0.000 C 
ATOM     10  C   UNL     1       1.307   3.653  20.329  0.00  0.00    +0.000 C 
ATOM     11  C   UNL     1       1.785   5.044  20.750  0.00  0.00    +0.000 C 
ENDBRANCH   1  10
BRANCH   3  12
ATOM     12  O   UNL     1       5.215   1.328  20.262  0.00  0.00    +0.000 OA
BRANCH  12  13
ATOM     13  O   UNL     1       5.531   1.329  21.691  0.00  0.00    +0.000 OA
ATOM     14  H   UNL     1       4.633   1.544  22.001  0.00  0.00    +0.000 HD
ENDBRANCH  12  13
ENDBRANCH   3  12
BRANCH   5  15
ATOM     15  N   UNL     1       4.839   5.533  17.761  0.00  0.00    +0.000 NA
BRANCH  15  16
ATOM     16  C   UNL     1       4.145   6.656  18.410  0.00  0.00    +0.000 C 
BRANCH  16  17
ATOM     17  C   UNL     1       3.542   7.698  17.462  0.00  0.00    +0.000 C 
ATOM     18 CL   UNL     1       1.909   8.160  18.014  0.00  0.00    +0.000 Cl
ENDBRANCH  16  17
ENDBRANCH  15  16
BRANCH  15  19
ATOM     19  C   UNL     1       5.376   5.871  16.429  0.00  0.00    +0.000 C 
BRANCH  19  20
ATOM     20  C   UNL     1       6.812   5.410  16.174  0.00  0.00    +0.000 C 
ATOM     21 CL   UNL     1       6.935   4.645  14.569  0.00  0.00    +0.000 Cl
ENDBRANCH  19  20
ENDBRANCH  15  19
ENDBRANCH   5  15
TORSDOF 8
ENDMDL
MODEL 3
REMARK VINA RESULT:      -6.4      1.148      2.762
REMARK  Name = 
REMARK  10 active torsions:
REMARK  status: ('A' for Active; 'I' for Inactive)
REMARK    1  A    between atoms: C_1  and  C_2
REMARK    2  A    between atoms: C_2  and  C_3
REMARK    3  A    between atoms: C_2  and  C_4
REMARK    4  A    between atoms: C_6  and  O_7
REMARK    5  A    between atoms: O_7  and  O_8
REMARK    6  A    between atoms: P_10  and  N_12
REMARK    7  A    between atoms: N_12  and  C_13
REMARK    8  A    between atoms: N_12  and  C_16
REMARK    9  A    between atoms: C_13  and  C_14
REMARK   10  A    between atoms: C_16  and  C_17
REMARK                            x       y       z     vdW  Elec       q    Type
REMARK                         _______ _______ _______ _____ _____    ______ ____
ROOT
ATOM      1  C   UNL     1       2.564   3.048  17.615  0.00  0.00    +0.000 C 
ATOM      2  C   UNL     1       3.432   2.018  18.356  0.00  0.00    +0.000 C 
ATOM      3  C   UNL     1       4.318   2.653  19.425  0.00  0.00    +0.000 C 
ATOM      4  N   UNL     1       5.185   3.669  18.881  0.00  0.00    +0.000 NA
ATOM      5  P   UNL     1       4.898   4.246  17.400  0.00  0.00    +0.000 P 
ATOM      6  O   UNL     1       5.533   3.488  16.280  0.00  0.00    +0.000 OA
ATOM      7  O   UNL     1       3.295   4.234  17.292  0.00  0.00    +0.000 OA
ATOM      8  H   UNL     1       6.138   3.376  19.051  0.00  0.00    +0.000 HD
ENDROOT
BRANCH   1  10
ATOM      9  C   UNL     1       0.655   2.317  19.124  0.00  0.00    +0.000 C 
ATOM     10  C   UNL     1       1.303   3.507  18.393  0.00  0.00    +0.000 C 
ATOM     11  C   UNL     1       1.575   4.618  19.409  0.00  0.00    +0.000 C 
ENDBRANCH   1  10
BRANCH   3  12
ATOM     12  O   UNL     1       5.099   1.598  20.013  0.00  0.00    +0.000 OA
BRANCH  12  13
ATOM     13  O   UNL     1       4.811   0.384  19.248  0.00  0.00    +0.000 OA
ATOM     14  H   UNL     1       5.161   0.706  18.398  0.00  0.00    +0.000 HD
ENDBRANCH  12  13
ENDBRANCH   3  12
BRANCH   5  15
ATOM     15  N   UNL     1       5.364   5.821  17.527  0.00  0.00    +0.000 NA
BRANCH  15  16
ATOM     16  C   UNL     1       4.415   6.878  17.148  0.00  0.00    +0.000 C 
BRANCH  16  17
ATOM     17  C   UNL     1       3.481   7.359  18.262  0.00  0.00    +0.000 C 
ATOM     18 CL   UNL     1       2.230   8.442  17.592  0.00  0.00    +0.000 Cl
ENDBRANCH  16  17
ENDBRANCH  15  16
BRANCH  15  19
ATOM     19  C   UNL     1       6.748   6.098  17.098  0.00  0.00    +0.000 C 
BRANCH  19  20
ATOM     20  C   UNL     1       7.639   6.741  18.162  0.00  0.00    +0.000 C 
ATOM     21 CL   UNL     1       7.988   8.435  17.728  0.00  0.00    +0.000 Cl
ENDBRANCH  19  20
ENDBRANCH  15  19
ENDBRANCH   5  15
TORSDOF 8
ENDMDL
MODEL 4
REMARK VINA RESULT:      -6.4      0.574      2.500
REMARK  Name = 
REMARK  10 active torsions:
REMARK  status: ('A' for Active; 'I' for Inactive)
REMARK    1  A    between atoms: C_1  and  C_2
REMARK    2  A    between atoms: C_2  and  C_3
REMARK    3  A    between atoms: C_2  and  C_4
REMARK    4  A    between atoms: C_6  and  O_7
REMARK    5  A    between atoms: O_7  and  O_8
REMARK    6  A    between atoms: P_10  and  N_12
REMARK    7  A    between atoms: N_12  and  C_13
REMARK    8  A    between atoms: N_12  and  C_16
REMARK    9  A    between atoms: C_13  and  C_14
REMARK   10  A    between atoms: C_16  and  C_17
REMARK                            x       y       z     vdW  Elec       q    Type
REMARK                         _______ _______ _______ _____ _____    ______ ____
ROOT
ATOM      1  C   UNL     1       2.103   3.012  19.042  0.00  0.00    +0.000 C 
ATOM      2  C   UNL     1       3.130   1.917  19.372  0.00  0.00    +0.000 C 
ATOM      3  C   UNL     1       4.347   2.454  20.121  0.00  0.00    +0.000 C 
ATOM      4  N   UNL     1       5.018   3.500  19.389  0.00  0.00    +0.000 NA
ATOM      5  P   UNL     1       4.273   4.196  18.137  0.00  0.00    +0.000 P 
ATOM      6  O   UNL     1       4.466   3.521  16.818  0.00  0.00    +0.000 OA
ATOM      7  O   UNL     1       2.728   4.211  18.575  0.00  0.00    +0.000 OA
ATOM      8  H   UNL     1       5.961   3.182  19.207  0.00  0.00    +0.000 HD
ENDROOT
BRANCH   1  10
ATOM      9  C   UNL     1       1.454   2.519  21.448  0.00  0.00    +0.000 C 
ATOM     10  C   UNL     1       1.194   3.424  20.230  0.00  0.00    +0.000 C 
ATOM     11  C   UNL     1       1.360   4.883  20.657  0.00  0.00    +0.000 C 
ENDBRANCH   1  10
BRANCH   3  12
ATOM     12  O   UNL     1       5.238   1.347  20.335  0.00  0.00    +0.000 OA
BRANCH  12  13
ATOM     13  O   UNL     1       4.898   0.333  19.337  0.00  0.00    +0.000 OA
ATOM     14  H   UNL     1       5.801   0.213  18.991  0.00  0.00    +0.000 HD
ENDBRANCH  12  13
ENDBRANCH   3  12
BRANCH   5  15
ATOM     15  N   UNL     1       4.815   5.749  18.209  0.00  0.00    +0.000 NA
BRANCH  15  16
ATOM     16  C   UNL     1       4.029   6.809  17.559  0.00  0.00    +0.000 C 
BRANCH  16  17
ATOM     17  C   UNL     1       2.898   7.407  18.401  0.00  0.00    +0.000 C 
ATOM     18 CL   UNL     1       2.203   8.829  17.577  0.00  0.00    +0.000 Cl
ENDBRANCH  16  17
ENDBRANCH  15  16
BRANCH  15  19
ATOM     19  C   UNL     1       6.270   5.912  18.035  0.00  0.00    +0.000 C 
BRANCH  19  20
ATOM     20  C   UNL     1       6.685   6.941  16.981  0.00  0.00    +0.000 C 
ATOM     21 CL   UNL     1       7.880   8.073  17.666  0.00  0.00    +0.000 Cl
ENDBRANCH  19  20
ENDBRANCH  15  19
ENDBRANCH   5  15
TORSDOF 8
ENDMDL
MODEL 5
REMARK VINA RESULT:      -6.4      3.294      5.324
REMARK  Name = 
REMARK  10 active torsions:
REMARK  status: ('A' for Active; 'I' for Inactive)
REMARK    1  A    between atoms: C_1  and  C_2
REMARK    2  A    between atoms: C_2  and  C_3
REMARK    3  A    between atoms: C_2  and  C_4
REMARK    4  A    between atoms: C_6  and  O_7
REMARK    5  A    between atoms: O_7  and  O_8
REMARK    6  A    between atoms: P_10  and  N_12
REMARK    7  A    between atoms: N_12  and  C_13
REMARK    8  A    between atoms: N_12  and  C_16
REMARK    9  A    between atoms: C_13  and  C_14
REMARK   10  A    between atoms: C_16  and  C_17
REMARK                            x       y       z     vdW  Elec       q    Type
REMARK                         _______ _______ _______ _____ _____    ______ ____
ROOT
ATOM      1  C   UNL     1       5.865   5.634  16.181  0.00  0.00    +0.000 C 
ATOM      2  C   UNL     1       6.790   6.287  17.220  0.00  0.00    +0.000 C 
ATOM      3  C   UNL     1       6.915   5.464  18.500  0.00  0.00    +0.000 C 
ATOM      4  N   UNL     1       5.635   5.224  19.119  0.00  0.00    +0.000 NA
ATOM      5  P   UNL     1       4.283   5.502  18.281  0.00  0.00    +0.000 P 
ATOM      6  O   UNL     1       3.755   6.897  18.358  0.00  0.00    +0.000 OA
ATOM      7  O   UNL     1       4.680   5.099  16.777  0.00  0.00    +0.000 OA
ATOM      8  H   UNL     1       5.664   5.640  20.041  0.00  0.00    +0.000 HD
ENDROOT
BRANCH   1  10
ATOM      9  C   UNL     1       5.583   3.249  15.351  0.00  0.00    +0.000 C 
ATOM     10  C   UNL     1       6.513   4.475  15.378  0.00  0.00    +0.000 C 
ATOM     11  C   UNL     1       6.875   4.849  13.939  0.00  0.00    +0.000 C 
ENDBRANCH   1  10
BRANCH   3  12
ATOM     12  O   UNL     1       7.771   6.195  19.395  0.00  0.00    +0.000 OA
BRANCH  12  13
ATOM     13  O   UNL     1       8.028   5.322  20.540  0.00  0.00    +0.000 OA
ATOM     14  H   UNL     1       8.999   5.402  20.522  0.00  0.00    +0.000 HD
ENDBRANCH  12  13
ENDBRANCH   3  12
BRANCH   5  15
ATOM     15  N   UNL     1       3.261   4.339  18.843  0.00  0.00    +0.000 NA
BRANCH  15  16
ATOM     16  C   UNL     1       2.834   3.266  17.933  0.00  0.00    +0.000 C 
BRANCH  16  17
ATOM     17  C   UNL     1       3.448   1.888  18.200  0.00  0.00    +0.000 C 
ATOM     18 CL   UNL     1       4.372   1.912  19.726  0.00  0.00    +0.000 Cl
ENDBRANCH  16  17
ENDBRANCH  15  16
BRANCH  15  19
ATOM     19  C   UNL     1       2.178   4.829  19.716  0.00  0.00    +0.000 C 
BRANCH  19  20
ATOM     20  C   UNL     1       1.038   3.836  19.953  0.00  0.00    +0.000 C 
ATOM     21 CL   UNL     1       1.399   2.815  21.368  0.00  0.00    +0.000 Cl
ENDBRANCH  19  20
ENDBRANCH  15  19
ENDBRANCH   5  15
TORSDOF 8
ENDMDL
MODEL 6
REMARK VINA RESULT:      -6.3      2.442      3.652
REMARK  Name = 
REMARK  10 active torsions:
REMARK  status: ('A' for Active; 'I' for Inactive)
REMARK    1  A    between atoms: C_1  and  C_2
REMARK    2  A    between atoms: C_2  and  C_3
REMARK    3  A    between atoms: C_2  and  C_4
REMARK    4  A    between atoms: C_6  and  O_7
REMARK    5  A    between atoms: O_7  and  O_8
REMARK    6  A    between atoms: P_10  and  N_12
REMARK    7  A    between atoms: N_12  and  C_13
REMARK    8  A    between atoms: N_12  and  C_16
REMARK    9  A    between atoms: C_13  and  C_14
REMARK   10  A    between atoms: C_16  and  C_17
REMARK                            x       y       z     vdW  Elec       q    Type
REMARK                         _______ _______ _______ _____ _____    ______ ____
ROOT
ATOM      1  C   UNL     1       3.401   3.309  19.903  0.00  0.00    +0.000 C 
ATOM      2  C   UNL     1       2.930   4.722  20.285  0.00  0.00    +0.000 C 
ATOM      3  C   UNL     1       2.857   5.665  19.087  0.00  0.00    +0.000 C 
ATOM      4  N   UNL     1       4.123   5.777  18.405  0.00  0.00    +0.000 NA
ATOM      5  P   UNL     1       5.291   4.707  18.719  0.00  0.00    +0.000 P 
ATOM      6  O   UNL     1       6.186   5.050  19.866  0.00  0.00    +0.000 OA
ATOM      7  O   UNL     1       4.492   3.338  18.979  0.00  0.00    +0.000 OA
ATOM      8  H   UNL     1       4.405   6.747  18.450  0.00  0.00    +0.000 HD
ENDROOT
BRANCH   1  10
ATOM      9  C   UNL     1       0.905   2.887  19.691  0.00  0.00    +0.000 C 
ATOM     10  C   UNL     1       2.306   2.416  19.262  0.00  0.00    +0.000 C 
ATOM     11  C   UNL     1       2.362   2.371  17.734  0.00  0.00    +0.000 C 
ENDBRANCH   1  10
BRANCH   3  12
ATOM     12  O   UNL     1       2.444   6.950  19.580  0.00  0.00    +0.000 OA
BRANCH  12  13
ATOM     13  O   UNL     1       1.884   6.730  20.914  0.00  0.00    +0.000 OA
ATOM     14  H   UNL     1       2.422   5.947  21.130  0.00  0.00    +0.000 HD
ENDBRANCH  12  13
ENDBRANCH   3  12
BRANCH   5  15
ATOM     15  N   UNL     1       6.050   4.559  17.266  0.00  0.00    +0.000 NA
BRANCH  15  16
ATOM     16  C   UNL     1       7.202   5.424  16.971  0.00  0.00    +0.000 C 
BRANCH  16  17
ATOM     17  C   UNL     1       7.023   6.906  17.315  0.00  0.00    +0.000 C 
ATOM     18 CL   UNL     1       8.251   7.414  18.507  0.00  0.00    +0.000 Cl
ENDBRANCH  16  17
ENDBRANCH  15  16
BRANCH  15  19
ATOM     19  C   UNL     1       5.153   4.370  16.110  0.00  0.00    +0.000 C 
BRANCH  19  20
ATOM     20  C   UNL     1       5.648   4.984  14.799  0.00  0.00    +0.000 C 
ATOM     21 CL   UNL     1       6.141   3.699  13.666  0.00  0.00    +0.000 Cl
ENDBRANCH  19  20
ENDBRANCH  15  19
ENDBRANCH   5  15
TORSDOF 8
ENDMDL
MODEL 7
REMARK VINA RESULT:      -6.3      1.057      1.057
REMARK  Name = 
REMARK  10 active torsions:
REMARK  status: ('A' for Active; 'I' for Inactive)
REMARK    1  A    between atoms: C_1  and  C_2
REMARK    2  A    between atoms: C_2  and  C_3
REMARK    3  A    between atoms: C_2  and  C_4
REMARK    4  A    between atoms: C_6  and  O_7
REMARK    5  A    between atoms: O_7  and  O_8
REMARK    6  A    between atoms: P_10  and  N_12
REMARK    7  A    between atoms: N_12  and  C_13
REMARK    8  A    between atoms: N_12  and  C_16
REMARK    9  A    between atoms: C_13  and  C_14
REMARK   10  A    between atoms: C_16  and  C_17
REMARK                            x       y       z     vdW  Elec       q    Type
REMARK                         _______ _______ _______ _____ _____    ______ ____
ROOT
ATOM      1  C   UNL     1       1.912   2.893  19.155  0.00  0.00    +0.000 C 
ATOM      2  C   UNL     1       3.020   1.879  19.479  0.00  0.00    +0.000 C 
ATOM      3  C   UNL     1       4.297   2.542  19.991  0.00  0.00    +0.000 C 
ATOM      4  N   UNL     1       4.822   3.505  19.055  0.00  0.00    +0.000 NA
ATOM      5  P   UNL     1       3.894   4.015  17.836  0.00  0.00    +0.000 P 
ATOM      6  O   UNL     1       3.949   3.184  16.595  0.00  0.00    +0.000 OA
ATOM      7  O   UNL     1       2.417   4.041  18.468  0.00  0.00    +0.000 OA
ATOM      8  H   UNL     1       5.748   3.195  18.791  0.00  0.00    +0.000 HD
ENDROOT
BRANCH   1  10
ATOM      9  C   UNL     1       1.492   2.598  21.643  0.00  0.00    +0.000 C 
ATOM     10  C   UNL     1       1.143   3.425  20.393  0.00  0.00    +0.000 C 
ATOM     11  C   UNL     1       1.403   4.903  20.693  0.00  0.00    +0.000 C 
ENDBRANCH   1  10
BRANCH   3  12
ATOM     12  O   UNL     1       5.258   1.497  20.219  0.00  0.00    +0.000 OA
BRANCH  12  13
ATOM     13  O   UNL     1       5.365   1.333  21.669  0.00  0.00    +0.000 OA
ATOM     14  H   UNL     1       6.054   2.009  21.805  0.00  0.00    +0.000 HD
ENDBRANCH  12  13
ENDBRANCH   3  12
BRANCH   5  15
ATOM     15  N   UNL     1       4.370   5.580  17.646  0.00  0.00    +0.000 NA
BRANCH  15  16
ATOM     16  C   UNL     1       5.800   5.907  17.741  0.00  0.00    +0.000 C 
BRANCH  16  17
ATOM     17  C   UNL     1       6.617   5.679  16.466  0.00  0.00    +0.000 C 
ATOM     18 CL   UNL     1       5.556   5.754  15.033  0.00  0.00    +0.000 Cl
ENDBRANCH  16  17
ENDBRANCH  15  16
BRANCH  15  19
ATOM     19  C   UNL     1       3.499   6.580  18.294  0.00  0.00    +0.000 C 
BRANCH  19  20
ATOM     20  C   UNL     1       3.352   7.899  17.534  0.00  0.00    +0.000 C 
ATOM     21 CL   UNL     1       1.740   8.601  17.830  0.00  0.00    +0.000 Cl
ENDBRANCH  19  20
ENDBRANCH  15  19
ENDBRANCH   5  15
TORSDOF 8
ENDMDL
MODEL 8
REMARK VINA RESULT:      -6.3      3.256      5.651
REMARK  Name = 
REMARK  10 active torsions:
REMARK  status: ('A' for Active; 'I' for Inactive)
REMARK    1  A    between atoms: C_1  and  C_2
REMARK    2  A    between atoms: C_2  and  C_3
REMARK    3  A    between atoms: C_2  and  C_4
REMARK    4  A    between atoms: C_6  and  O_7
REMARK    5  A    between atoms: O_7  and  O_8
REMARK    6  A    between atoms: P_10  and  N_12
REMARK    7  A    between atoms: N_12  and  C_13
REMARK    8  A    between atoms: N_12  and  C_16
REMARK    9  A    between atoms: C_13  and  C_14
REMARK   10  A    between atoms: C_16  and  C_17
REMARK                            x       y       z     vdW  Elec       q    Type
REMARK                         _______ _______ _______ _____ _____    ______ ____
ROOT
ATOM      1  C   UNL     1       6.231   5.819  15.931  0.00  0.00    +0.000 C 
ATOM      2  C   UNL     1       7.115   6.409  17.041  0.00  0.00    +0.000 C 
ATOM      3  C   UNL     1       7.081   5.583  18.325  0.00  0.00    +0.000 C 
ATOM      4  N   UNL     1       5.743   5.434  18.840  0.00  0.00    +0.000 NA
ATOM      5  P   UNL     1       4.484   5.803  17.900  0.00  0.00    +0.000 P 
ATOM      6  O   UNL     1       4.049   7.232  17.938  0.00  0.00    +0.000 OA
ATOM      7  O   UNL     1       4.968   5.370  16.430  0.00  0.00    +0.000 OA
ATOM      8  H   UNL     1       5.728   5.850  19.763  0.00  0.00    +0.000 HD
ENDROOT
BRANCH   1  10
ATOM      9  C   UNL     1       5.894   3.417  15.176  0.00  0.00    +0.000 C 
ATOM     10  C   UNL     1       6.858   4.616  15.177  0.00  0.00    +0.000 C 
ATOM     11  C   UNL     1       7.253   4.931  13.733  0.00  0.00    +0.000 C 
ENDBRANCH   1  10
BRANCH   3  12
ATOM     12  O   UNL     1       7.912   6.255  19.286  0.00  0.00    +0.000 OA
BRANCH  12  13
ATOM     13  O   UNL     1       7.948   5.408  20.479  0.00  0.00    +0.000 OA
ATOM     14  H   UNL     1       8.690   4.846  20.191  0.00  0.00    +0.000 HD
ENDBRANCH  12  13
ENDBRANCH   3  12
BRANCH   5  15
ATOM     15  N   UNL     1       3.343   4.716  18.375  0.00  0.00    +0.000 NA
BRANCH  15  16
ATOM     16  C   UNL     1       3.373   4.207  19.755  0.00  0.00    +0.000 C 
BRANCH  16  17
ATOM     17  C   UNL     1       2.360   4.838  20.715  0.00  0.00    +0.000 C 
ATOM     18 CL   UNL     1       0.739   4.140  20.445  0.00  0.00    +0.000 Cl
ENDBRANCH  16  17
ENDBRANCH  15  16
BRANCH  15  19
ATOM     19  C   UNL     1       3.015   3.678  17.379  0.00  0.00    +0.000 C 
BRANCH  19  20
ATOM     20  C   UNL     1       2.437   2.385  17.957  0.00  0.00    +0.000 C 
ATOM     21 CL   UNL     1       3.740   1.201  18.237  0.00  0.00    +0.000 Cl
ENDBRANCH  19  20
ENDBRANCH  15  19
ENDBRANCH   5  15
TORSDOF 8
ENDMDL
MODEL 9
REMARK VINA RESULT:      -6.3      3.116      5.626
REMARK  Name = 
REMARK  10 active torsions:
REMARK  status: ('A' for Active; 'I' for Inactive)
REMARK    1  A    between atoms: C_1  and  C_2
REMARK    2  A    between atoms: C_2  and  C_3
REMARK    3  A    between atoms: C_2  and  C_4
REMARK    4  A    between atoms: C_6  and  O_7
REMARK    5  A    between atoms: O_7  and  O_8
REMARK    6  A    between atoms: P_10  and  N_12
REMARK    7  A    between atoms: N_12  and  C_13
REMARK    8  A    between atoms: N_12  and  C_16
REMARK    9  A    between atoms: C_13  and  C_14
REMARK   10  A    between atoms: C_16  and  C_17
REMARK                            x       y       z     vdW  Elec       q    Type
REMARK                         _______ _______ _______ _____ _____    ______ ____
ROOT
ATOM      1  C   UNL     1       5.607   5.097  16.167  0.00  0.00    +0.000 C 
ATOM      2  C   UNL     1       6.525   5.902  17.099  0.00  0.00    +0.000 C 
ATOM      3  C   UNL     1       7.221   5.029  18.141  0.00  0.00    +0.000 C 
ATOM      4  N   UNL     1       6.280   4.297  18.953  0.00  0.00    +0.000 NA
ATOM      5  P   UNL     1       4.740   4.191  18.482  0.00  0.00    +0.000 P 
ATOM      6  O   UNL     1       3.851   5.304  18.935  0.00  0.00    +0.000 OA
ATOM      7  O   UNL     1       4.836   4.125  16.879  0.00  0.00    +0.000 OA
ATOM      8  H   UNL     1       6.418   4.589  19.912  0.00  0.00    +0.000 HD
ENDROOT
BRANCH   1  10
ATOM      9  C   UNL     1       5.355   3.897  13.942  0.00  0.00    +0.000 C 
ATOM     10  C   UNL     1       6.345   4.330  15.038  0.00  0.00    +0.000 C 
ATOM     11  C   UNL     1       7.478   5.128  14.389  0.00  0.00    +0.000 C 
ENDBRANCH   1  10
BRANCH   3  12
ATOM     12  O   UNL     1       8.015   5.900  18.965  0.00  0.00    +0.000 OA
BRANCH  12  13
ATOM     13  O   UNL     1       7.908   5.398  20.335  0.00  0.00    +0.000 OA
ATOM     14  H   UNL     1       8.719   4.859  20.318  0.00  0.00    +0.000 HD
ENDBRANCH  12  13
ENDBRANCH   3  12
BRANCH   5  15
ATOM     15  N   UNL     1       4.301   2.693  19.005  0.00  0.00    +0.000 NA
BRANCH  15  16
ATOM     16  C   UNL     1       3.208   1.989  18.317  0.00  0.00    +0.000 C 
BRANCH  16  17
ATOM     17  C   UNL     1       2.046   2.870  17.848  0.00  0.00    +0.000 C 
ATOM     18 CL   UNL     1       0.537   2.390  18.672  0.00  0.00    +0.000 Cl
ENDBRANCH  16  17
ENDBRANCH  15  16
BRANCH  15  19
ATOM     19  C   UNL     1       4.268   2.528  20.471  0.00  0.00    +0.000 C 
BRANCH  19  20
ATOM     20  C   UNL     1       2.869   2.432  21.081  0.00  0.00    +0.000 C 
ATOM     21 CL   UNL     1       2.267   4.058  21.495  0.00  0.00    +0.000 Cl
ENDBRANCH  19  20
ENDBRANCH  15  19
ENDBRANCH   5  15
TORSDOF 8
ENDMDL
