MODEL 1
REMARK VINA RESULT:      -7.2      0.000      0.000
REMARK  Name = 
REMARK  7 active torsions:
REMARK  status: ('A' for Active; 'I' for Inactive)
REMARK    1  A    between atoms: C_1  and  C_2
REMARK    2  A    between atoms: C_2  and  N_3
REMARK    3  A    between atoms: C_2  and  C_22
REMARK    4  A    between atoms: C_4  and  C_6
REMARK    5  A    between atoms: N_9  and  S_10
REMARK    6  A    between atoms: S_10  and  C_13
REMARK    7  A    between atoms: C_13  and  C_14
REMARK                            x       y       z     vdW  Elec       q    Type
REMARK                         _______ _______ _______ _____ _____    ______ ____
ROOT
ATOM      1  C   UNL     1      -3.640  13.774  21.524  0.00  0.00    +0.000 C 
ATOM      2  C   UNL     1      -2.386  14.087  20.707  0.00  0.00    +0.000 C 
ATOM      3  C   UNL     1      -1.465  12.877  20.610  0.00  0.00    +0.000 C 
ATOM      4  N   UNL     1      -1.032  12.429  21.966  0.00  0.00    +0.000 NA
ATOM      5  C   UNL     1      -2.206  12.112  22.851  0.00  0.00    +0.000 C 
ATOM      6  C   UNL     1      -3.223  13.252  22.902  0.00  0.00    +0.000 C 
ENDROOT
BRANCH   1   8
ATOM      7  N   UNL     1      -4.464  12.901  19.407  0.00  0.00    +0.000 N 
ATOM      8  C   UNL     1      -4.594  12.834  20.776  0.00  0.00    +0.000 C 
ATOM      9  O   UNL     1      -5.397  12.100  21.342  0.00  0.00    +0.000 OA
ATOM     10  H   UNL     1      -3.875  13.620  19.011  0.00  0.00    +0.000 HD
BRANCH   7  12
ATOM     11  C   UNL     1      -6.229  12.933  17.673  0.00  0.00    +0.000 C 
ATOM     12  C   UNL     1      -5.243  12.088  18.483  0.00  0.00    +0.000 C 
BRANCH  12  13
ATOM     13  C   UNL     1      -4.316  11.311  17.561  0.00  0.00    +0.000 A 
ATOM     14  C   UNL     1      -3.303  10.507  18.108  0.00  0.00    +0.000 A 
ATOM     15  C   UNL     1      -2.435   9.791  17.280  0.00  0.00    +0.000 A 
ATOM     16  C   UNL     1      -2.563   9.871  15.895  0.00  0.00    +0.000 A 
ATOM     17  C   UNL     1      -3.569  10.655  15.336  0.00  0.00    +0.000 A 
ATOM     18  C   UNL     1      -4.444  11.365  16.162  0.00  0.00    +0.000 A 
ENDBRANCH  12  13
ENDBRANCH   7  12
ENDBRANCH   1   8
BRANCH   4  19
ATOM     19  S   UNL     1       0.069  11.072  21.916  0.00  0.00    +0.000 S 
ATOM     20  O   UNL     1       1.336  11.584  21.429  0.00  0.00    +0.000 OA
ATOM     21  O   UNL     1      -0.034  10.418  23.204  0.00  0.00    +0.000 OA
BRANCH  19  22
ATOM     22  C   UNL     1      -0.655  10.028  20.636  0.00  0.00    +0.000 C 
BRANCH  22  23
ATOM     23  C   UNL     1       0.448   9.371  19.839  0.00  0.00    +0.000 A 
ATOM     24  C   UNL     1       0.772   9.838  18.556  0.00  0.00    +0.000 A 
ATOM     25  C   UNL     1       1.797   9.242  17.817  0.00  0.00    +0.000 A 
ATOM     26  C   UNL     1       2.508   8.171  18.352  0.00  0.00    +0.000 A 
ATOM     27  C   UNL     1       2.192   7.692  19.622  0.00  0.00    +0.000 A 
ATOM     28  C   UNL     1       1.165   8.285  20.363  0.00  0.00    +0.000 A 
ENDBRANCH  22  23
ENDBRANCH  19  22
ENDBRANCH   4  19
TORSDOF 6
ENDMDL
MODEL 2
REMARK VINA RESULT:      -7.0      9.396     11.836
REMARK  Name = 
REMARK  7 active torsions:
REMARK  status: ('A' for Active; 'I' for Inactive)
REMARK    1  A    between atoms: C_1  and  C_2
REMARK    2  A    between atoms: C_2  and  N_3
REMARK    3  A    between atoms: C_2  and  C_22
REMARK    4  A    between atoms: C_4  and  C_6
REMARK    5  A    between atoms: N_9  and  S_10
REMARK    6  A    between atoms: S_10  and  C_13
REMARK    7  A    between atoms: C_13  and  C_14
REMARK                            x       y       z     vdW  Elec       q    Type
REMARK                         _______ _______ _______ _____ _____    ______ ____
ROOT
ATOM      1  C   UNL     1       7.861   5.947  18.719  0.00  0.00    +0.000 C 
ATOM      2  C   UNL     1       7.983   4.692  17.853  0.00  0.00    +0.000 C 
ATOM      3  C   UNL     1       6.716   4.446  17.044  0.00  0.00    +0.000 C 
ATOM      4  N   UNL     1       5.537   4.272  17.943  0.00  0.00    +0.000 NA
ATOM      5  C   UNL     1       5.346   5.458  18.848  0.00  0.00    +0.000 C 
ATOM      6  C   UNL     1       6.621   5.823  19.609  0.00  0.00    +0.000 C 
ENDROOT
BRANCH   1   8
ATOM      7  N   UNL     1       8.471   8.295  18.527  0.00  0.00    +0.000 N 
ATOM      8  C   UNL     1       7.886   7.230  17.879  0.00  0.00    +0.000 C 
ATOM      9  O   UNL     1       7.423   7.302  16.745  0.00  0.00    +0.000 OA
ATOM     10  H   UNL     1       8.711   8.195  19.503  0.00  0.00    +0.000 HD
BRANCH   7  12
ATOM     11  C   UNL     1       7.286  10.293  17.676  0.00  0.00    +0.000 C 
ATOM     12  C   UNL     1       8.633   9.613  17.927  0.00  0.00    +0.000 C 
BRANCH  12  13
ATOM     13  C   UNL     1       9.520  10.481  18.806  0.00  0.00    +0.000 A 
ATOM     14  C   UNL     1      10.662  11.089  18.260  0.00  0.00    +0.000 A 
ATOM     15  C   UNL     1      11.495  11.884  19.052  0.00  0.00    +0.000 A 
ATOM     16  C   UNL     1      11.202  12.079  20.399  0.00  0.00    +0.000 A 
ATOM     17  C   UNL     1      10.068  11.492  20.955  0.00  0.00    +0.000 A 
ATOM     18  C   UNL     1       9.229  10.704  20.163  0.00  0.00    +0.000 A 
ENDBRANCH  12  13
ENDBRANCH   7  12
ENDBRANCH   1   8
BRANCH   4  19
ATOM     19  S   UNL     1       4.060   3.935  17.071  0.00  0.00    +0.000 S 
ATOM     20  O   UNL     1       3.096   4.937  17.486  0.00  0.00    +0.000 OA
ATOM     21  O   UNL     1       4.435   3.782  15.681  0.00  0.00    +0.000 OA
BRANCH  19  22
ATOM     22  C   UNL     1       3.558   2.342  17.752  0.00  0.00    +0.000 C 
BRANCH  22  23
ATOM     23  C   UNL     1       2.775   2.563  19.025  0.00  0.00    +0.000 A 
ATOM     24  C   UNL     1       1.385   2.756  18.980  0.00  0.00    +0.000 A 
ATOM     25  C   UNL     1       0.653   2.951  20.153  0.00  0.00    +0.000 A 
ATOM     26  C   UNL     1       1.303   2.958  21.385  0.00  0.00    +0.000 A 
ATOM     27  C   UNL     1       2.683   2.776  21.444  0.00  0.00    +0.000 A 
ATOM     28  C   UNL     1       3.418   2.582  20.271  0.00  0.00    +0.000 A 
ENDBRANCH  22  23
ENDBRANCH  19  22
ENDBRANCH   4  19
TORSDOF 6
ENDMDL
MODEL 3
REMARK VINA RESULT:      -6.9      6.515     10.609
REMARK  Name = 
REMARK  7 active torsions:
REMARK  status: ('A' for Active; 'I' for Inactive)
REMARK    1  A    between atoms: C_1  and  C_2
REMARK    2  A    between atoms: C_2  and  N_3
REMARK    3  A    between atoms: C_2  and  C_22
REMARK    4  A    between atoms: C_4  and  C_6
REMARK    5  A    between atoms: N_9  and  S_10
REMARK    6  A    between atoms: S_10  and  C_13
REMARK    7  A    between atoms: C_13  and  C_14
REMARK                            x       y       z     vdW  Elec       q    Type
REMARK                         _______ _______ _______ _____ _____    ______ ____
ROOT
ATOM      1  C   UNL     1       3.902   2.155  17.454  0.00  0.00    +0.000 C 
ATOM      2  C   UNL     1       2.375   2.150  17.367  0.00  0.00    +0.000 C 
ATOM      3  C   UNL     1       1.755   3.112  18.372  0.00  0.00    +0.000 C 
ATOM      4  N   UNL     1       2.138   2.745  19.767  0.00  0.00    +0.000 NA
ATOM      5  C   UNL     1       3.632   2.710  19.944  0.00  0.00    +0.000 C 
ATOM      6  C   UNL     1       4.324   1.842  18.893  0.00  0.00    +0.000 C 
ENDROOT
BRANCH   1   8
ATOM      7  N   UNL     1       5.753   3.289  16.352  0.00  0.00    +0.000 N 
ATOM      8  C   UNL     1       4.505   3.456  16.910  0.00  0.00    +0.000 C 
ATOM      9  O   UNL     1       3.934   4.541  16.972  0.00  0.00    +0.000 OA
ATOM     10  H   UNL     1       6.212   2.395  16.453  0.00  0.00    +0.000 HD
BRANCH   7  12
ATOM     11  C   UNL     1       5.688   5.152  14.725  0.00  0.00    +0.000 C 
ATOM     12  C   UNL     1       6.517   4.372  15.748  0.00  0.00    +0.000 C 
BRANCH  12  13
ATOM     13  C   UNL     1       7.053   5.299  16.828  0.00  0.00    +0.000 A 
ATOM     14  C   UNL     1       7.047   6.687  16.621  0.00  0.00    +0.000 A 
ATOM     15  C   UNL     1       7.542   7.556  17.597  0.00  0.00    +0.000 A 
ATOM     16  C   UNL     1       8.050   7.051  18.791  0.00  0.00    +0.000 A 
ATOM     17  C   UNL     1       8.053   5.677  19.018  0.00  0.00    +0.000 A 
ATOM     18  C   UNL     1       7.551   4.807  18.048  0.00  0.00    +0.000 A 
ENDBRANCH  12  13
ENDBRANCH   7  12
ENDBRANCH   1   8
BRANCH   4  19
ATOM     19  S   UNL     1       1.414   3.786  20.970  0.00  0.00    +0.000 S 
ATOM     20  O   UNL     1       0.265   4.409  20.341  0.00  0.00    +0.000 OA
ATOM     21  O   UNL     1       1.274   2.985  22.168  0.00  0.00    +0.000 OA
BRANCH  19  22
ATOM     22  C   UNL     1       2.683   5.043  21.215  0.00  0.00    +0.000 C 
BRANCH  22  23
ATOM     23  C   UNL     1       2.348   6.264  20.390  0.00  0.00    +0.000 A 
ATOM     24  C   UNL     1       2.818   6.382  19.073  0.00  0.00    +0.000 A 
ATOM     25  C   UNL     1       2.504   7.502  18.301  0.00  0.00    +0.000 A 
ATOM     26  C   UNL     1       1.719   8.520  18.838  0.00  0.00    +0.000 A 
ATOM     27  C   UNL     1       1.253   8.420  20.147  0.00  0.00    +0.000 A 
ATOM     28  C   UNL     1       1.567   7.300  20.923  0.00  0.00    +0.000 A 
ENDBRANCH  22  23
ENDBRANCH  19  22
ENDBRANCH   4  19
TORSDOF 6
ENDMDL
MODEL 4
REMARK VINA RESULT:      -6.8      6.066     10.540
REMARK  Name = 
REMARK  7 active torsions:
REMARK  status: ('A' for Active; 'I' for Inactive)
REMARK    1  A    between atoms: C_1  and  C_2
REMARK    2  A    between atoms: C_2  and  N_3
REMARK    3  A    between atoms: C_2  and  C_22
REMARK    4  A    between atoms: C_4  and  C_6
REMARK    5  A    between atoms: N_9  and  S_10
REMARK    6  A    between atoms: S_10  and  C_13
REMARK    7  A    between atoms: C_13  and  C_14
REMARK                            x       y       z     vdW  Elec       q    Type
REMARK                         _______ _______ _______ _____ _____    ______ ____
ROOT
ATOM      1  C   UNL     1       3.739   2.454  17.139  0.00  0.00    +0.000 C 
ATOM      2  C   UNL     1       2.250   2.798  17.090  0.00  0.00    +0.000 C 
ATOM      3  C   UNL     1       1.870   3.798  18.174  0.00  0.00    +0.000 C 
ATOM      4  N   UNL     1       2.173   3.254  19.530  0.00  0.00    +0.000 NA
ATOM      5  C   UNL     1       3.621   2.872  19.667  0.00  0.00    +0.000 C 
ATOM      6  C   UNL     1       4.091   1.951  18.542  0.00  0.00    +0.000 C 
ENDROOT
BRANCH   1   8
ATOM      7  N   UNL     1       5.841   3.228  16.187  0.00  0.00    +0.000 N 
ATOM      8  C   UNL     1       4.615   3.624  16.672  0.00  0.00    +0.000 C 
ATOM      9  O   UNL     1       4.259   4.797  16.730  0.00  0.00    +0.000 OA
ATOM     10  H   UNL     1       6.113   2.261  16.290  0.00  0.00    +0.000 HD
BRANCH   7  12
ATOM     11  C   UNL     1       6.337   4.880  14.412  0.00  0.00    +0.000 C 
ATOM     12  C   UNL     1       6.838   4.153  15.663  0.00  0.00    +0.000 C 
BRANCH  12  13
ATOM     13  C   UNL     1       7.243   5.148  16.739  0.00  0.00    +0.000 A 
ATOM     14  C   UNL     1       7.663   4.684  17.996  0.00  0.00    +0.000 A 
ATOM     15  C   UNL     1       8.032   5.581  19.001  0.00  0.00    +0.000 A 
ATOM     16  C   UNL     1       7.982   6.953  18.768  0.00  0.00    +0.000 A 
ATOM     17  C   UNL     1       7.578   7.432  17.524  0.00  0.00    +0.000 A 
ATOM     18  C   UNL     1       7.218   6.536  16.514  0.00  0.00    +0.000 A 
ENDBRANCH  12  13
ENDBRANCH   7  12
ENDBRANCH   1   8
BRANCH   4  19
ATOM     19  S   UNL     1       1.711   4.340  20.819  0.00  0.00    +0.000 S 
ATOM     20  O   UNL     1       0.424   4.899  20.450  0.00  0.00    +0.000 OA
ATOM     21  O   UNL     1       1.885   3.602  22.053  0.00  0.00    +0.000 OA
BRANCH  19  22
ATOM     22  C   UNL     1       2.955   5.641  20.700  0.00  0.00    +0.000 C 
BRANCH  22  23
ATOM     23  C   UNL     1       2.337   6.872  20.079  0.00  0.00    +0.000 A 
ATOM     24  C   UNL     1       2.536   7.157  18.719  0.00  0.00    +0.000 A 
ATOM     25  C   UNL     1       1.961   8.288  18.136  0.00  0.00    +0.000 A 
ATOM     26  C   UNL     1       1.181   9.148  18.906  0.00  0.00    +0.000 A 
ATOM     27  C   UNL     1       0.982   8.881  20.258  0.00  0.00    +0.000 A 
ATOM     28  C   UNL     1       1.559   7.751  20.845  0.00  0.00    +0.000 A 
ENDBRANCH  22  23
ENDBRANCH  19  22
ENDBRANCH   4  19
TORSDOF 6
ENDMDL
MODEL 5
REMARK VINA RESULT:      -6.6      9.292     11.767
REMARK  Name = 
REMARK  7 active torsions:
REMARK  status: ('A' for Active; 'I' for Inactive)
REMARK    1  A    between atoms: C_1  and  C_2
REMARK    2  A    between atoms: C_2  and  N_3
REMARK    3  A    between atoms: C_2  and  C_22
REMARK    4  A    between atoms: C_4  and  C_6
REMARK    5  A    between atoms: N_9  and  S_10
REMARK    6  A    between atoms: S_10  and  C_13
REMARK    7  A    between atoms: C_13  and  C_14
REMARK                            x       y       z     vdW  Elec       q    Type
REMARK                         _______ _______ _______ _____ _____    ______ ____
ROOT
ATOM      1  C   UNL     1       7.991   5.957  18.792  0.00  0.00    +0.000 C 
ATOM      2  C   UNL     1       8.147   4.669  17.982  0.00  0.00    +0.000 C 
ATOM      3  C   UNL     1       6.912   4.388  17.135  0.00  0.00    +0.000 C 
ATOM      4  N   UNL     1       5.699   4.249  17.994  0.00  0.00    +0.000 NA
ATOM      5  C   UNL     1       5.473   5.471  18.842  0.00  0.00    +0.000 C 
ATOM      6  C   UNL     1       6.717   5.867  19.637  0.00  0.00    +0.000 C 
ENDROOT
BRANCH   1   8
ATOM      7  N   UNL     1       8.495   8.327  18.565  0.00  0.00    +0.000 N 
ATOM      8  C   UNL     1       8.049   7.205  17.903  0.00  0.00    +0.000 C 
ATOM      9  O   UNL     1       7.723   7.205  16.720  0.00  0.00    +0.000 OA
ATOM     10  H   UNL     1       8.622   8.280  19.566  0.00  0.00    +0.000 HD
BRANCH   7  12
ATOM     11  C   UNL     1       7.312  10.307  17.669  0.00  0.00    +0.000 C 
ATOM     12  C   UNL     1       8.659   9.627  17.928  0.00  0.00    +0.000 C 
BRANCH  12  13
ATOM     13  C   UNL     1       9.556  10.515  18.777  0.00  0.00    +0.000 A 
ATOM     14  C   UNL     1       9.265  10.703  20.137  0.00  0.00    +0.000 A 
ATOM     15  C   UNL     1      10.071  11.521  20.933  0.00  0.00    +0.000 A 
ATOM     16  C   UNL     1      11.177  12.163  20.382  0.00  0.00    +0.000 A 
ATOM     17  C   UNL     1      11.487  11.979  19.037  0.00  0.00    +0.000 A 
ATOM     18  C   UNL     1      10.688  11.155  18.241  0.00  0.00    +0.000 A 
ENDBRANCH  12  13
ENDBRANCH   7  12
ENDBRANCH   1   8
BRANCH   4  19
ATOM     19  S   UNL     1       4.257   3.876  17.080  0.00  0.00    +0.000 S 
ATOM     20  O   UNL     1       4.504   4.310  15.718  0.00  0.00    +0.000 OA
ATOM     21  O   UNL     1       3.930   2.498  17.383  0.00  0.00    +0.000 OA
BRANCH  19  22
ATOM     22  C   UNL     1       3.031   4.975  17.817  0.00  0.00    +0.000 C 
BRANCH  22  23
ATOM     23  C   UNL     1       2.324   4.257  18.942  0.00  0.00    +0.000 A 
ATOM     24  C   UNL     1       2.727   4.452  20.273  0.00  0.00    +0.000 A 
ATOM     25  C   UNL     1       2.072   3.799  21.319  0.00  0.00    +0.000 A 
ATOM     26  C   UNL     1       1.007   2.942  21.048  0.00  0.00    +0.000 A 
ATOM     27  C   UNL     1       0.602   2.734  19.732  0.00  0.00    +0.000 A 
ATOM     28  C   UNL     1       1.257   3.384  18.682  0.00  0.00    +0.000 A 
ENDBRANCH  22  23
ENDBRANCH  19  22
ENDBRANCH   4  19
TORSDOF 6
ENDMDL
MODEL 6
REMARK VINA RESULT:      -6.5      9.268     11.739
REMARK  Name = 
REMARK  7 active torsions:
REMARK  status: ('A' for Active; 'I' for Inactive)
REMARK    1  A    between atoms: C_1  and  C_2
REMARK    2  A    between atoms: C_2  and  N_3
REMARK    3  A    between atoms: C_2  and  C_22
REMARK    4  A    between atoms: C_4  and  C_6
REMARK    5  A    between atoms: N_9  and  S_10
REMARK    6  A    between atoms: S_10  and  C_13
REMARK    7  A    between atoms: C_13  and  C_14
REMARK                            x       y       z     vdW  Elec       q    Type
REMARK                         _______ _______ _______ _____ _____    ______ ____
ROOT
ATOM      1  C   UNL     1       7.914   6.020  18.766  0.00  0.00    +0.000 C 
ATOM      2  C   UNL     1       8.101   4.739  17.951  0.00  0.00    +0.000 C 
ATOM      3  C   UNL     1       6.869   4.427  17.111  0.00  0.00    +0.000 C 
ATOM      4  N   UNL     1       5.666   4.252  17.977  0.00  0.00    +0.000 NA
ATOM      5  C   UNL     1       5.411   5.464  18.830  0.00  0.00    +0.000 C 
ATOM      6  C   UNL     1       6.649   5.892  19.619  0.00  0.00    +0.000 C 
ENDROOT
BRANCH   1   8
ATOM      7  N   UNL     1       8.474   8.374  18.503  0.00  0.00    +0.000 N 
ATOM      8  C   UNL     1       7.932   7.272  17.880  0.00  0.00    +0.000 C 
ATOM      9  O   UNL     1       7.499   7.291  16.732  0.00  0.00    +0.000 OA
ATOM     10  H   UNL     1       8.690   8.316  19.488  0.00  0.00    +0.000 HD
BRANCH   7  12
ATOM     11  C   UNL     1       7.268  10.345  17.618  0.00  0.00    +0.000 C 
ATOM     12  C   UNL     1       8.622   9.673  17.860  0.00  0.00    +0.000 C 
BRANCH  12  13
ATOM     13  C   UNL     1       9.527  10.568  18.692  0.00  0.00    +0.000 A 
ATOM     14  C   UNL     1      10.552  11.295  18.068  0.00  0.00    +0.000 A 
ATOM     15  C   UNL     1      11.401  12.117  18.815  0.00  0.00    +0.000 A 
ATOM     16  C   UNL     1      11.239  12.221  20.194  0.00  0.00    +0.000 A 
ATOM     17  C   UNL     1      10.220  11.515  20.828  0.00  0.00    +0.000 A 
ATOM     18  C   UNL     1       9.365  10.700  20.082  0.00  0.00    +0.000 A 
ENDBRANCH  12  13
ENDBRANCH   7  12
ENDBRANCH   1   8
BRANCH   4  19
ATOM     19  S   UNL     1       4.228   3.841  17.071  0.00  0.00    +0.000 S 
ATOM     20  O   UNL     1       4.469   4.255  15.701  0.00  0.00    +0.000 OA
ATOM     21  O   UNL     1       3.922   2.464  17.398  0.00  0.00    +0.000 OA
BRANCH  19  22
ATOM     22  C   UNL     1       2.987   4.935  17.788  0.00  0.00    +0.000 C 
BRANCH  22  23
ATOM     23  C   UNL     1       2.309   4.237  18.944  0.00  0.00    +0.000 A 
ATOM     24  C   UNL     1       1.260   3.333  18.712  0.00  0.00    +0.000 A 
ATOM     25  C   UNL     1       0.636   2.677  19.775  0.00  0.00    +0.000 A 
ATOM     26  C   UNL     1       1.050   2.919  21.082  0.00  0.00    +0.000 A 
ATOM     27  C   UNL     1       2.084   3.819  21.328  0.00  0.00    +0.000 A 
ATOM     28  C   UNL     1       2.710   4.479  20.266  0.00  0.00    +0.000 A 
ENDBRANCH  22  23
ENDBRANCH  19  22
ENDBRANCH   4  19
TORSDOF 6
ENDMDL
MODEL 7
REMARK VINA RESULT:      -6.5      5.903      9.078
REMARK  Name = 
REMARK  7 active torsions:
REMARK  status: ('A' for Active; 'I' for Inactive)
REMARK    1  A    between atoms: C_1  and  C_2
REMARK    2  A    between atoms: C_2  and  N_3
REMARK    3  A    between atoms: C_2  and  C_22
REMARK    4  A    between atoms: C_4  and  C_6
REMARK    5  A    between atoms: N_9  and  S_10
REMARK    6  A    between atoms: S_10  and  C_13
REMARK    7  A    between atoms: C_13  and  C_14
REMARK                            x       y       z     vdW  Elec       q    Type
REMARK                         _______ _______ _______ _____ _____    ______ ____
ROOT
ATOM      1  C   UNL     1       2.414   5.834  19.194  0.00  0.00    +0.000 C 
ATOM      2  C   UNL     1       3.668   5.463  19.986  0.00  0.00    +0.000 C 
ATOM      3  C   UNL     1       4.926   5.598  19.136  0.00  0.00    +0.000 C 
ATOM      4  N   UNL     1       4.857   4.709  17.939  0.00  0.00    +0.000 NA
ATOM      5  C   UNL     1       3.639   4.994  17.103  0.00  0.00    +0.000 C 
ATOM      6  C   UNL     1       2.350   4.979  17.925  0.00  0.00    +0.000 C 
ENDROOT
BRANCH   1   8
ATOM      7  N   UNL     1       1.497   8.009  19.790  0.00  0.00    +0.000 N 
ATOM      8  C   UNL     1       2.331   7.341  18.921  0.00  0.00    +0.000 C 
ATOM      9  O   UNL     1       2.942   7.896  18.013  0.00  0.00    +0.000 OA
ATOM     10  H   UNL     1       0.929   7.468  20.427  0.00  0.00    +0.000 HD
BRANCH   7  12
ATOM     11  C   UNL     1       0.608   9.881  18.438  0.00  0.00    +0.000 C 
ATOM     12  C   UNL     1       1.273   9.447  19.747  0.00  0.00    +0.000 C 
BRANCH  12  13
ATOM     13  C   UNL     1       0.442   9.882  20.944  0.00  0.00    +0.000 A 
ATOM     14  C   UNL     1      -0.440  10.967  20.824  0.00  0.00    +0.000 A 
ATOM     15  C   UNL     1      -1.207  11.388  21.913  0.00  0.00    +0.000 A 
ATOM     16  C   UNL     1      -1.102  10.733  23.138  0.00  0.00    +0.000 A 
ATOM     17  C   UNL     1      -0.241   9.647  23.272  0.00  0.00    +0.000 A 
ATOM     18  C   UNL     1       0.520   9.219  22.182  0.00  0.00    +0.000 A 
ENDBRANCH  12  13
ENDBRANCH   7  12
ENDBRANCH   1   8
BRANCH   4  19
ATOM     19  S   UNL     1       6.297   4.784  16.951  0.00  0.00    +0.000 S 
ATOM     20  O   UNL     1       6.287   6.081  16.301  0.00  0.00    +0.000 OA
ATOM     21  O   UNL     1       7.395   4.377  17.802  0.00  0.00    +0.000 OA
BRANCH  19  22
ATOM     22  C   UNL     1       5.983   3.518  15.705  0.00  0.00    +0.000 C 
BRANCH  22  23
ATOM     23  C   UNL     1       6.479   4.000  14.362  0.00  0.00    +0.000 A 
ATOM     24  C   UNL     1       7.554   4.900  14.283  0.00  0.00    +0.000 A 
ATOM     25  C   UNL     1       8.025   5.342  13.045  0.00  0.00    +0.000 A 
ATOM     26  C   UNL     1       7.425   4.893  11.871  0.00  0.00    +0.000 A 
ATOM     27  C   UNL     1       6.353   4.006  11.935  0.00  0.00    +0.000 A 
ATOM     28  C   UNL     1       5.878   3.563  13.173  0.00  0.00    +0.000 A 
ENDBRANCH  22  23
ENDBRANCH  19  22
ENDBRANCH   4  19
TORSDOF 6
ENDMDL
MODEL 8
REMARK VINA RESULT:      -6.4      6.622     10.747
REMARK  Name = 
REMARK  7 active torsions:
REMARK  status: ('A' for Active; 'I' for Inactive)
REMARK    1  A    between atoms: C_1  and  C_2
REMARK    2  A    between atoms: C_2  and  N_3
REMARK    3  A    between atoms: C_2  and  C_22
REMARK    4  A    between atoms: C_4  and  C_6
REMARK    5  A    between atoms: N_9  and  S_10
REMARK    6  A    between atoms: S_10  and  C_13
REMARK    7  A    between atoms: C_13  and  C_14
REMARK                            x       y       z     vdW  Elec       q    Type
REMARK                         _______ _______ _______ _____ _____    ______ ____
ROOT
ATOM      1  C   UNL     1       4.067   2.230  17.578  0.00  0.00    +0.000 C 
ATOM      2  C   UNL     1       2.576   1.890  17.557  0.00  0.00    +0.000 C 
ATOM      3  C   UNL     1       1.785   2.782  18.505  0.00  0.00    +0.000 C 
ATOM      4  N   UNL     1       2.273   2.631  19.908  0.00  0.00    +0.000 NA
ATOM      5  C   UNL     1       3.742   2.933  20.023  0.00  0.00    +0.000 C 
ATOM      6  C   UNL     1       4.580   2.143  19.018  0.00  0.00    +0.000 C 
ENDROOT
BRANCH   1   8
ATOM      7  N   UNL     1       5.699   3.792  16.674  0.00  0.00    +0.000 N 
ATOM      8  C   UNL     1       4.359   3.576  16.904  0.00  0.00    +0.000 C 
ATOM      9  O   UNL     1       3.485   4.384  16.606  0.00  0.00    +0.000 OA
ATOM     10  H   UNL     1       6.368   3.142  17.062  0.00  0.00    +0.000 HD
BRANCH   7  12
ATOM     11  C   UNL     1       7.459   5.530  16.746  0.00  0.00    +0.000 C 
ATOM     12  C   UNL     1       6.224   4.986  16.024  0.00  0.00    +0.000 C 
BRANCH  12  13
ATOM     13  C   UNL     1       6.538   4.692  14.566  0.00  0.00    +0.000 A 
ATOM     14  C   UNL     1       5.780   3.739  13.868  0.00  0.00    +0.000 A 
ATOM     15  C   UNL     1       6.056   3.447  12.530  0.00  0.00    +0.000 A 
ATOM     16  C   UNL     1       7.094   4.101  11.871  0.00  0.00    +0.000 A 
ATOM     17  C   UNL     1       7.849   5.058  12.544  0.00  0.00    +0.000 A 
ATOM     18  C   UNL     1       7.569   5.358  13.880  0.00  0.00    +0.000 A 
ENDBRANCH  12  13
ENDBRANCH   7  12
ENDBRANCH   1   8
BRANCH   4  19
ATOM     19  S   UNL     1       1.368   3.595  21.051  0.00  0.00    +0.000 S 
ATOM     20  O   UNL     1       0.262   4.180  20.317  0.00  0.00    +0.000 OA
ATOM     21  O   UNL     1       1.143   2.750  22.205  0.00  0.00    +0.000 OA
BRANCH  19  22
ATOM     22  C   UNL     1       2.535   4.906  21.467  0.00  0.00    +0.000 C 
BRANCH  22  23
ATOM     23  C   UNL     1       2.263   6.115  20.602  0.00  0.00    +0.000 A 
ATOM     24  C   UNL     1       2.774   6.183  19.296  0.00  0.00    +0.000 A 
ATOM     25  C   UNL     1       2.519   7.292  18.487  0.00  0.00    +0.000 A 
ATOM     26  C   UNL     1       1.752   8.347  18.974  0.00  0.00    +0.000 A 
ATOM     27  C   UNL     1       1.245   8.297  20.271  0.00  0.00    +0.000 A 
ATOM     28  C   UNL     1       1.500   7.188  21.084  0.00  0.00    +0.000 A 
ENDBRANCH  22  23
ENDBRANCH  19  22
ENDBRANCH   4  19
TORSDOF 6
ENDMDL
MODEL 9
REMARK VINA RESULT:      -6.4      5.337      8.471
REMARK  Name = 
REMARK  7 active torsions:
REMARK  status: ('A' for Active; 'I' for Inactive)
REMARK    1  A    between atoms: C_1  and  C_2
REMARK    2  A    between atoms: C_2  and  N_3
REMARK    3  A    between atoms: C_2  and  C_22
REMARK    4  A    between atoms: C_4  and  C_6
REMARK    5  A    between atoms: N_9  and  S_10
REMARK    6  A    between atoms: S_10  and  C_13
REMARK    7  A    between atoms: C_13  and  C_14
REMARK                            x       y       z     vdW  Elec       q    Type
REMARK                         _______ _______ _______ _____ _____    ______ ____
ROOT
ATOM      1  C   UNL     1       1.399   5.158  20.984  0.00  0.00    +0.000 C 
ATOM      2  C   UNL     1       2.529   4.244  21.460  0.00  0.00    +0.000 C 
ATOM      3  C   UNL     1       3.371   3.743  20.294  0.00  0.00    +0.000 C 
ATOM      4  N   UNL     1       2.534   2.976  19.325  0.00  0.00    +0.000 NA
ATOM      5  C   UNL     1       1.382   3.796  18.812  0.00  0.00    +0.000 C 
ATOM      6  C   UNL     1       0.559   4.417  19.941  0.00  0.00    +0.000 C 
ENDROOT
BRANCH   1   8
ATOM      7  N   UNL     1       1.082   7.564  20.791  0.00  0.00    +0.000 N 
ATOM      8  C   UNL     1       1.924   6.514  20.496  0.00  0.00    +0.000 C 
ATOM      9  O   UNL     1       2.986   6.650  19.897  0.00  0.00    +0.000 OA
ATOM     10  H   UNL     1       0.168   7.360  21.170  0.00  0.00    +0.000 HD
BRANCH   7  12
ATOM     11  C   UNL     1       1.164   9.227  18.960  0.00  0.00    +0.000 C 
ATOM     12  C   UNL     1       1.373   8.951  20.451  0.00  0.00    +0.000 C 
BRANCH  12  13
ATOM     13  C   UNL     1       0.522   9.885  21.298  0.00  0.00    +0.000 A 
ATOM     14  C   UNL     1      -0.132   9.391  22.438  0.00  0.00    +0.000 A 
ATOM     15  C   UNL     1      -0.925  10.230  23.225  0.00  0.00    +0.000 A 
ATOM     16  C   UNL     1      -1.079  11.571  22.883  0.00  0.00    +0.000 A 
ATOM     17  C   UNL     1      -0.429  12.080  21.761  0.00  0.00    +0.000 A 
ATOM     18  C   UNL     1       0.372  11.246  20.978  0.00  0.00    +0.000 A 
ENDBRANCH  12  13
ENDBRANCH   7  12
ENDBRANCH   1   8
BRANCH   4  19
ATOM     19  S   UNL     1       3.457   2.331  17.988  0.00  0.00    +0.000 S 
ATOM     20  O   UNL     1       3.673   0.926  18.272  0.00  0.00    +0.000 OA
ATOM     21  O   UNL     1       2.779   2.760  16.782  0.00  0.00    +0.000 OA
BRANCH  19  22
ATOM     22  C   UNL     1       5.032   3.195  18.147  0.00  0.00    +0.000 C 
BRANCH  22  23
ATOM     23  C   UNL     1       5.158   4.219  17.043  0.00  0.00    +0.000 A 
ATOM     24  C   UNL     1       4.734   5.541  17.248  0.00  0.00    +0.000 A 
ATOM     25  C   UNL     1       4.857   6.495  16.236  0.00  0.00    +0.000 A 
ATOM     26  C   UNL     1       5.402   6.138  15.005  0.00  0.00    +0.000 A 
ATOM     27  C   UNL     1       5.820   4.828  14.784  0.00  0.00    +0.000 A 
ATOM     28  C   UNL     1       5.696   3.870  15.796  0.00  0.00    +0.000 A 
ENDBRANCH  22  23
ENDBRANCH  19  22
ENDBRANCH   4  19
TORSDOF 6
ENDMDL
