MODEL 1
REMARK VINA RESULT:      -6.9      0.000      0.000
REMARK  Name = 
REMARK  4 active torsions:
REMARK  status: ('A' for Active; 'I' for Inactive)
REMARK    1  A    between atoms: N_1  and  C_2
REMARK    2  A    between atoms: N_10  and  C_11
REMARK    3  A    between atoms: C_11  and  C_12
REMARK    4  A    between atoms: C_12  and  N_13
REMARK                            x       y       z     vdW  Elec       q    Type
REMARK                         _______ _______ _______ _____ _____    ______ ____
ROOT
ATOM      1  C   UNL     1       7.525   7.317  17.750  0.00  0.00    +0.000 A 
ATOM      2  N   UNL     1       8.181   6.819  18.820  0.00  0.00    +0.000 NA
ATOM      3  C   UNL     1       7.834   5.592  19.272  0.00  0.00    +0.000 A 
ATOM      4  N   UNL     1       6.899   4.749  18.786  0.00  0.00    +0.000 NA
ATOM      5  C   UNL     1       6.293   5.277  17.711  0.00  0.00    +0.000 A 
ATOM      6  C   UNL     1       6.537   6.518  17.139  0.00  0.00    +0.000 A 
ATOM      7  N   UNL     1       5.728   6.719  16.040  0.00  0.00    +0.000 NA
ATOM      8  C   UNL     1       4.994   5.628  15.959  0.00  0.00    +0.000 A 
ATOM      9  N   UNL     1       5.297   4.731  16.950  0.00  0.00    +0.000 N 
ENDROOT
BRANCH   1  10
ATOM     10  N   UNL     1       7.864   8.583  17.296  0.00  0.00    +0.000 N 
ATOM     11  H   UNL     1       7.870   9.264  18.043  0.00  0.00    +0.000 HD
ATOM     12  H   UNL     1       8.644   8.584  16.649  0.00  0.00    +0.000 HD
ENDBRANCH   1  10
BRANCH   9  13
ATOM     13  C   UNL     1       4.624   3.458  17.173  0.00  0.00    +0.000 C 
BRANCH  13  14
ATOM     14  C   UNL     1       3.823   3.497  18.484  0.00  0.00    +0.000 C 
BRANCH  14  15
ATOM     15  N   UNL     1       2.711   4.463  18.562  0.00  0.00    +0.000 NA
ATOM     16  C   UNL     1       1.450   3.811  18.117  0.00  0.00    +0.000 C 
ATOM     17  C   UNL     1       0.875   2.786  19.127  0.00  0.00    +0.000 C 
ATOM     18  N   UNL     1       0.650   3.369  20.455  0.00  0.00    +0.000 NA
ATOM     19  C   UNL     1       1.855   4.056  20.938  0.00  0.00    +0.000 C 
ATOM     20  C   UNL     1       2.465   5.032  19.904  0.00  0.00    +0.000 C 
ATOM     21  H   UNL     1       0.381   2.637  21.112  0.00  0.00    +0.000 HD
ENDBRANCH  14  15
ENDBRANCH  13  14
ENDBRANCH   9  13
TORSDOF 4
ENDMDL
MODEL 2
REMARK VINA RESULT:      -6.9      1.819      2.326
REMARK  Name = 
REMARK  4 active torsions:
REMARK  status: ('A' for Active; 'I' for Inactive)
REMARK    1  A    between atoms: N_1  and  C_2
REMARK    2  A    between atoms: N_10  and  C_11
REMARK    3  A    between atoms: C_11  and  C_12
REMARK    4  A    between atoms: C_12  and  N_13
REMARK                            x       y       z     vdW  Elec       q    Type
REMARK                         _______ _______ _______ _____ _____    ______ ____
ROOT
ATOM      1  C   UNL     1       7.113   5.291  16.074  0.00  0.00    +0.000 A 
ATOM      2  N   UNL     1       7.970   4.592  16.848  0.00  0.00    +0.000 NA
ATOM      3  C   UNL     1       7.628   4.357  18.136  0.00  0.00    +0.000 A 
ATOM      4  N   UNL     1       6.505   4.723  18.788  0.00  0.00    +0.000 NA
ATOM      5  C   UNL     1       5.676   5.393  17.973  0.00  0.00    +0.000 A 
ATOM      6  C   UNL     1       5.891   5.710  16.640  0.00  0.00    +0.000 A 
ATOM      7  N   UNL     1       4.815   6.400  16.119  0.00  0.00    +0.000 NA
ATOM      8  C   UNL     1       3.971   6.513  17.125  0.00  0.00    +0.000 A 
ATOM      9  N   UNL     1       4.450   5.924  18.266  0.00  0.00    +0.000 N 
ENDROOT
BRANCH   1  10
ATOM     10  N   UNL     1       7.469   5.551  14.759  0.00  0.00    +0.000 N 
ATOM     11  H   UNL     1       7.331   6.521  14.514  0.00  0.00    +0.000 HD
ATOM     12  H   UNL     1       8.341   5.113  14.484  0.00  0.00    +0.000 HD
ENDBRANCH   1  10
BRANCH   9  13
ATOM     13  C   UNL     1       3.787   5.929  19.563  0.00  0.00    +0.000 C 
BRANCH  13  14
ATOM     14  C   UNL     1       2.522   5.058  19.522  0.00  0.00    +0.000 C 
BRANCH  14  15
ATOM     15  N   UNL     1       2.533   3.821  20.327  0.00  0.00    +0.000 NA
ATOM     16  C   UNL     1       1.202   3.161  20.249  0.00  0.00    +0.000 C 
ATOM     17  C   UNL     1       0.907   2.490  18.884  0.00  0.00    +0.000 C 
ATOM     18  N   UNL     1       1.932   1.510  18.504  0.00  0.00    +0.000 NA
ATOM     19  C   UNL     1       3.276   2.095  18.592  0.00  0.00    +0.000 C 
ATOM     20  C   UNL     1       3.547   2.822  19.931  0.00  0.00    +0.000 C 
ATOM     21  H   UNL     1       1.759   1.179  17.555  0.00  0.00    +0.000 HD
ENDBRANCH  14  15
ENDBRANCH  13  14
ENDBRANCH   9  13
TORSDOF 4
ENDMDL
MODEL 3
REMARK VINA RESULT:      -6.9      0.699      1.358
REMARK  Name = 
REMARK  4 active torsions:
REMARK  status: ('A' for Active; 'I' for Inactive)
REMARK    1  A    between atoms: N_1  and  C_2
REMARK    2  A    between atoms: N_10  and  C_11
REMARK    3  A    between atoms: C_11  and  C_12
REMARK    4  A    between atoms: C_12  and  N_13
REMARK                            x       y       z     vdW  Elec       q    Type
REMARK                         _______ _______ _______ _____ _____    ______ ____
ROOT
ATOM      1  C   UNL     1       7.575   7.347  17.743  0.00  0.00    +0.000 A 
ATOM      2  N   UNL     1       8.165   6.839  18.847  0.00  0.00    +0.000 NA
ATOM      3  C   UNL     1       7.781   5.614  19.275  0.00  0.00    +0.000 A 
ATOM      4  N   UNL     1       6.865   4.784  18.735  0.00  0.00    +0.000 NA
ATOM      5  C   UNL     1       6.325   5.321  17.630  0.00  0.00    +0.000 A 
ATOM      6  C   UNL     1       6.615   6.560  17.076  0.00  0.00    +0.000 A 
ATOM      7  N   UNL     1       5.870   6.774  15.934  0.00  0.00    +0.000 NA
ATOM      8  C   UNL     1       5.129   5.690  15.809  0.00  0.00    +0.000 A 
ATOM      9  N   UNL     1       5.368   4.788  16.813  0.00  0.00    +0.000 N 
ENDROOT
BRANCH   1  10
ATOM     10  N   UNL     1       7.953   8.611  17.313  0.00  0.00    +0.000 N 
ATOM     11  H   UNL     1       8.720   8.981  17.856  0.00  0.00    +0.000 HD
ATOM     12  H   UNL     1       8.003   8.694  16.304  0.00  0.00    +0.000 HD
ENDBRANCH   1  10
BRANCH   9  13
ATOM     13  C   UNL     1       4.669   3.522  16.994  0.00  0.00    +0.000 C 
BRANCH  13  14
ATOM     14  C   UNL     1       3.393   3.727  17.825  0.00  0.00    +0.000 C 
BRANCH  14  15
ATOM     15  N   UNL     1       3.223   2.872  19.015  0.00  0.00    +0.000 NA
ATOM     16  C   UNL     1       3.062   3.723  20.225  0.00  0.00    +0.000 C 
ATOM     17  C   UNL     1       1.693   4.442  20.316  0.00  0.00    +0.000 C 
ATOM     18  N   UNL     1       0.561   3.509  20.254  0.00  0.00    +0.000 NA
ATOM     19  C   UNL     1       0.678   2.617  19.094  0.00  0.00    +0.000 C 
ATOM     20  C   UNL     1       2.069   1.949  18.967  0.00  0.00    +0.000 C 
ATOM     21  H   UNL     1      -0.314   4.030  20.204  0.00  0.00    +0.000 HD
ENDBRANCH  14  15
ENDBRANCH  13  14
ENDBRANCH   9  13
TORSDOF 4
ENDMDL
MODEL 4
REMARK VINA RESULT:      -6.8      1.517      2.603
REMARK  Name = 
REMARK  4 active torsions:
REMARK  status: ('A' for Active; 'I' for Inactive)
REMARK    1  A    between atoms: N_1  and  C_2
REMARK    2  A    between atoms: N_10  and  C_11
REMARK    3  A    between atoms: C_11  and  C_12
REMARK    4  A    between atoms: C_12  and  N_13
REMARK                            x       y       z     vdW  Elec       q    Type
REMARK                         _______ _______ _______ _____ _____    ______ ____
ROOT
ATOM      1  C   UNL     1       7.064   5.994  16.644  0.00  0.00    +0.000 A 
ATOM      2  N   UNL     1       7.258   5.537  15.388  0.00  0.00    +0.000 NA
ATOM      3  C   UNL     1       6.582   4.433  14.995  0.00  0.00    +0.000 A 
ATOM      4  N   UNL     1       5.696   3.695  15.695  0.00  0.00    +0.000 NA
ATOM      5  C   UNL     1       5.519   4.201  16.925  0.00  0.00    +0.000 A 
ATOM      6  C   UNL     1       6.142   5.317  17.467  0.00  0.00    +0.000 A 
ATOM      7  N   UNL     1       5.707   5.543  18.757  0.00  0.00    +0.000 NA
ATOM      8  C   UNL     1       4.850   4.571  18.998  0.00  0.00    +0.000 A 
ATOM      9  N   UNL     1       4.708   3.734  17.922  0.00  0.00    +0.000 N 
ENDROOT
BRANCH   1  10
ATOM     10  N   UNL     1       7.771   7.114  17.057  0.00  0.00    +0.000 N 
ATOM     11  H   UNL     1       8.737   7.082  16.761  0.00  0.00    +0.000 HD
ATOM     12  H   UNL     1       7.263   7.981  16.925  0.00  0.00    +0.000 HD
ENDBRANCH   1  10
BRANCH   9  13
ATOM     13  C   UNL     1       3.885   2.533  17.889  0.00  0.00    +0.000 C 
BRANCH  13  14
ATOM     14  C   UNL     1       3.490   2.113  19.314  0.00  0.00    +0.000 C 
BRANCH  14  15
ATOM     15  N   UNL     1       2.048   2.062  19.623  0.00  0.00    +0.000 NA
ATOM     16  C   UNL     1       1.831   2.395  21.057  0.00  0.00    +0.000 C 
ATOM     17  C   UNL     1       2.039   3.891  21.398  0.00  0.00    +0.000 C 
ATOM     18  N   UNL     1       1.198   4.778  20.585  0.00  0.00    +0.000 NA
ATOM     19  C   UNL     1       1.345   4.477  19.155  0.00  0.00    +0.000 C 
ATOM     20  C   UNL     1       1.201   2.972  18.823  0.00  0.00    +0.000 C 
ATOM     21  H   UNL     1       1.448   5.750  20.763  0.00  0.00    +0.000 HD
ENDBRANCH  14  15
ENDBRANCH  13  14
ENDBRANCH   9  13
TORSDOF 4
ENDMDL
MODEL 5
REMARK VINA RESULT:      -6.8      0.994      1.396
REMARK  Name = 
REMARK  4 active torsions:
REMARK  status: ('A' for Active; 'I' for Inactive)
REMARK    1  A    between atoms: N_1  and  C_2
REMARK    2  A    between atoms: N_10  and  C_11
REMARK    3  A    between atoms: C_11  and  C_12
REMARK    4  A    between atoms: C_12  and  N_13
REMARK                            x       y       z     vdW  Elec       q    Type
REMARK                         _______ _______ _______ _____ _____    ______ ____
ROOT
ATOM      1  C   UNL     1       7.515   7.251  17.771  0.00  0.00    +0.000 A 
ATOM      2  N   UNL     1       8.079   6.694  18.865  0.00  0.00    +0.000 NA
ATOM      3  C   UNL     1       7.678   5.456  19.235  0.00  0.00    +0.000 A 
ATOM      4  N   UNL     1       6.768   4.654  18.644  0.00  0.00    +0.000 NA
ATOM      5  C   UNL     1       6.255   5.240  17.550  0.00  0.00    +0.000 A 
ATOM      6  C   UNL     1       6.564   6.498  17.053  0.00  0.00    +0.000 A 
ATOM      7  N   UNL     1       5.844   6.763  15.906  0.00  0.00    +0.000 NA
ATOM      8  C   UNL     1       5.100   5.691  15.722  0.00  0.00    +0.000 A 
ATOM      9  N   UNL     1       5.311   4.747  16.693  0.00  0.00    +0.000 N 
ENDROOT
BRANCH   1  10
ATOM     10  N   UNL     1       7.909   8.528  17.401  0.00  0.00    +0.000 N 
ATOM     11  H   UNL     1       8.888   8.692  17.592  0.00  0.00    +0.000 HD
ATOM     12  H   UNL     1       7.549   8.814  16.498  0.00  0.00    +0.000 HD
ENDBRANCH   1  10
BRANCH   9  13
ATOM     13  C   UNL     1       4.602   3.480  16.808  0.00  0.00    +0.000 C 
BRANCH  13  14
ATOM     14  C   UNL     1       3.188   3.705  17.366  0.00  0.00    +0.000 C 
BRANCH  14  15
ATOM     15  N   UNL     1       2.491   2.530  17.924  0.00  0.00    +0.000 NA
ATOM     16  C   UNL     1       3.347   1.883  18.955  0.00  0.00    +0.000 C 
ATOM     17  C   UNL     1       3.454   2.679  20.279  0.00  0.00    +0.000 C 
ATOM     18  N   UNL     1       2.143   2.960  20.877  0.00  0.00    +0.000 NA
ATOM     19  C   UNL     1       1.239   3.573  19.895  0.00  0.00    +0.000 C 
ATOM     20  C   UNL     1       1.182   2.812  18.548  0.00  0.00    +0.000 C 
ATOM     21  H   UNL     1       2.254   3.577  21.680  0.00  0.00    +0.000 HD
ENDBRANCH  14  15
ENDBRANCH  13  14
ENDBRANCH   9  13
TORSDOF 4
ENDMDL
MODEL 6
REMARK VINA RESULT:      -6.7      1.715      2.469
REMARK  Name = 
REMARK  4 active torsions:
REMARK  status: ('A' for Active; 'I' for Inactive)
REMARK    1  A    between atoms: N_1  and  C_2
REMARK    2  A    between atoms: N_10  and  C_11
REMARK    3  A    between atoms: C_11  and  C_12
REMARK    4  A    between atoms: C_12  and  N_13
REMARK                            x       y       z     vdW  Elec       q    Type
REMARK                         _______ _______ _______ _____ _____    ______ ____
ROOT
ATOM      1  C   UNL     1       6.976   6.175  16.498  0.00  0.00    +0.000 A 
ATOM      2  N   UNL     1       7.479   5.423  15.495  0.00  0.00    +0.000 NA
ATOM      3  C   UNL     1       6.749   4.375  15.049  0.00  0.00    +0.000 A 
ATOM      4  N   UNL     1       5.536   3.956  15.466  0.00  0.00    +0.000 NA
ATOM      5  C   UNL     1       5.068   4.747  16.444  0.00  0.00    +0.000 A 
ATOM      6  C   UNL     1       5.701   5.848  17.003  0.00  0.00    +0.000 A 
ATOM      7  N   UNL     1       4.915   6.422  17.982  0.00  0.00    +0.000 NA
ATOM      8  C   UNL     1       3.833   5.671  18.026  0.00  0.00    +0.000 A 
ATOM      9  N   UNL     1       3.883   4.645  17.118  0.00  0.00    +0.000 N 
ENDROOT
BRANCH   1  10
ATOM     10  N   UNL     1       7.731   7.238  16.971  0.00  0.00    +0.000 N 
ATOM     11  H   UNL     1       7.564   8.084  16.444  0.00  0.00    +0.000 HD
ATOM     12  H   UNL     1       7.743   7.305  17.982  0.00  0.00    +0.000 HD
ENDBRANCH   1  10
BRANCH   9  13
ATOM     13  C   UNL     1       2.874   3.606  16.961  0.00  0.00    +0.000 C 
BRANCH  13  14
ATOM     14  C   UNL     1       1.720   3.824  17.952  0.00  0.00    +0.000 C 
BRANCH  14  15
ATOM     15  N   UNL     1       1.330   2.674  18.791  0.00  0.00    +0.000 NA
ATOM     16  C   UNL     1       2.533   1.859  19.113  0.00  0.00    +0.000 C 
ATOM     17  C   UNL     1       3.489   2.518  20.138  0.00  0.00    +0.000 C 
ATOM     18  N   UNL     1       2.816   2.866  21.395  0.00  0.00    +0.000 NA
ATOM     19  C   UNL     1       1.599   3.648  21.141  0.00  0.00    +0.000 C 
ATOM     20  C   UNL     1       0.675   3.021  20.069  0.00  0.00    +0.000 C 
ATOM     21  H   UNL     1       3.450   3.396  21.992  0.00  0.00    +0.000 HD
ENDBRANCH  14  15
ENDBRANCH  13  14
ENDBRANCH   9  13
TORSDOF 4
ENDMDL
MODEL 7
REMARK VINA RESULT:      -6.7      1.896      3.032
REMARK  Name = 
REMARK  4 active torsions:
REMARK  status: ('A' for Active; 'I' for Inactive)
REMARK    1  A    between atoms: N_1  and  C_2
REMARK    2  A    between atoms: N_10  and  C_11
REMARK    3  A    between atoms: C_11  and  C_12
REMARK    4  A    between atoms: C_12  and  N_13
REMARK                            x       y       z     vdW  Elec       q    Type
REMARK                         _______ _______ _______ _____ _____    ______ ____
ROOT
ATOM      1  C   UNL     1       7.094   4.978  14.683  0.00  0.00    +0.000 A 
ATOM      2  N   UNL     1       6.359   3.905  14.317  0.00  0.00    +0.000 NA
ATOM      3  C   UNL     1       5.550   3.335  15.240  0.00  0.00    +0.000 A 
ATOM      4  N   UNL     1       5.350   3.700  16.523  0.00  0.00    +0.000 NA
ATOM      5  C   UNL     1       6.082   4.782  16.832  0.00  0.00    +0.000 A 
ATOM      6  C   UNL     1       6.953   5.467  15.998  0.00  0.00    +0.000 A 
ATOM      7  N   UNL     1       7.526   6.536  16.657  0.00  0.00    +0.000 NA
ATOM      8  C   UNL     1       7.023   6.487  17.874  0.00  0.00    +0.000 A 
ATOM      9  N   UNL     1       6.150   5.442  18.027  0.00  0.00    +0.000 N 
ENDROOT
BRANCH   1  10
ATOM     10  N   UNL     1       7.939   5.552  13.745  0.00  0.00    +0.000 N 
ATOM     11  H   UNL     1       8.707   6.044  14.180  0.00  0.00    +0.000 HD
ATOM     12  H   UNL     1       8.149   4.941  12.965  0.00  0.00    +0.000 HD
ENDBRANCH   1  10
BRANCH   9  13
ATOM     13  C   UNL     1       5.476   5.079  19.267  0.00  0.00    +0.000 C 
BRANCH  13  14
ATOM     14  C   UNL     1       3.952   5.071  19.066  0.00  0.00    +0.000 C 
BRANCH  14  15
ATOM     15  N   UNL     1       3.163   4.195  19.954  0.00  0.00    +0.000 NA
ATOM     16  C   UNL     1       1.754   4.140  19.479  0.00  0.00    +0.000 C 
ATOM     17  C   UNL     1       1.555   3.317  18.182  0.00  0.00    +0.000 C 
ATOM     18  N   UNL     1       2.056   1.942  18.303  0.00  0.00    +0.000 NA
ATOM     19  C   UNL     1       3.438   1.929  18.799  0.00  0.00    +0.000 C 
ATOM     20  C   UNL     1       3.650   2.803  20.058  0.00  0.00    +0.000 C 
ATOM     21  H   UNL     1       2.007   1.476  17.398  0.00  0.00    +0.000 HD
ENDBRANCH  14  15
ENDBRANCH  13  14
ENDBRANCH   9  13
TORSDOF 4
ENDMDL
MODEL 8
REMARK VINA RESULT:      -6.7      1.488      5.978
REMARK  Name = 
REMARK  4 active torsions:
REMARK  status: ('A' for Active; 'I' for Inactive)
REMARK    1  A    between atoms: N_1  and  C_2
REMARK    2  A    between atoms: N_10  and  C_11
REMARK    3  A    between atoms: C_11  and  C_12
REMARK    4  A    between atoms: C_12  and  N_13
REMARK                            x       y       z     vdW  Elec       q    Type
REMARK                         _______ _______ _______ _____ _____    ______ ____
ROOT
ATOM      1  C   UNL     1       1.613   3.235  19.612  0.00  0.00    +0.000 A 
ATOM      2  N   UNL     1       1.851   2.167  18.820  0.00  0.00    +0.000 NA
ATOM      3  C   UNL     1       2.617   2.342  17.719  0.00  0.00    +0.000 A 
ATOM      4  N   UNL     1       3.214   3.469  17.279  0.00  0.00    +0.000 NA
ATOM      5  C   UNL     1       2.969   4.494  18.110  0.00  0.00    +0.000 A 
ATOM      6  C   UNL     1       2.204   4.468  19.267  0.00  0.00    +0.000 A 
ATOM      7  N   UNL     1       2.181   5.709  19.869  0.00  0.00    +0.000 NA
ATOM      8  C   UNL     1       2.904   6.478  19.080  0.00  0.00    +0.000 A 
ATOM      9  N   UNL     1       3.397   5.788  18.003  0.00  0.00    +0.000 N 
ENDROOT
BRANCH   1  10
ATOM     10  N   UNL     1       0.812   3.064  20.731  0.00  0.00    +0.000 N 
ATOM     11  H   UNL     1       1.337   2.719  21.523  0.00  0.00    +0.000 HD
ATOM     12  H   UNL     1       0.169   3.831  20.887  0.00  0.00    +0.000 HD
ENDBRANCH   1  10
BRANCH   9  13
ATOM     13  C   UNL     1       4.180   6.364  16.918  0.00  0.00    +0.000 C 
BRANCH  13  14
ATOM     14  C   UNL     1       5.365   7.167  17.478  0.00  0.00    +0.000 C 
BRANCH  14  15
ATOM     15  N   UNL     1       6.692   6.906  16.888  0.00  0.00    +0.000 NA
ATOM     16  C   UNL     1       7.742   7.059  17.930  0.00  0.00    +0.000 C 
ATOM     17  C   UNL     1       7.774   5.911  18.971  0.00  0.00    +0.000 C 
ATOM     18  N   UNL     1       7.928   4.590  18.349  0.00  0.00    +0.000 NA
ATOM     19  C   UNL     1       6.935   4.391  17.286  0.00  0.00    +0.000 C 
ATOM     20  C   UNL     1       6.858   5.567  16.284  0.00  0.00    +0.000 C 
ATOM     21  H   UNL     1       7.831   3.863  19.057  0.00  0.00    +0.000 HD
ENDBRANCH  14  15
ENDBRANCH  13  14
ENDBRANCH   9  13
TORSDOF 4
ENDMDL
MODEL 9
REMARK VINA RESULT:      -6.6      1.791      2.145
REMARK  Name = 
REMARK  4 active torsions:
REMARK  status: ('A' for Active; 'I' for Inactive)
REMARK    1  A    between atoms: N_1  and  C_2
REMARK    2  A    between atoms: N_10  and  C_11
REMARK    3  A    between atoms: C_11  and  C_12
REMARK    4  A    between atoms: C_12  and  N_13
REMARK                            x       y       z     vdW  Elec       q    Type
REMARK                         _______ _______ _______ _____ _____    ______ ____
ROOT
ATOM      1  C   UNL     1       7.190   5.291  15.898  0.00  0.00    +0.000 A 
ATOM      2  N   UNL     1       7.941   4.517  16.712  0.00  0.00    +0.000 NA
ATOM      3  C   UNL     1       7.526   4.335  17.987  0.00  0.00    +0.000 A 
ATOM      4  N   UNL     1       6.422   4.822  18.591  0.00  0.00    +0.000 NA
ATOM      5  C   UNL     1       5.699   5.562  17.737  0.00  0.00    +0.000 A 
ATOM      6  C   UNL     1       5.997   5.839  16.411  0.00  0.00    +0.000 A 
ATOM      7  N   UNL     1       5.018   6.629  15.842  0.00  0.00    +0.000 NA
ATOM      8  C   UNL     1       4.152   6.840  16.813  0.00  0.00    +0.000 A 
ATOM      9  N   UNL     1       4.524   6.220  17.977  0.00  0.00    +0.000 N 
ENDROOT
BRANCH   1  10
ATOM     10  N   UNL     1       7.622   5.496  14.597  0.00  0.00    +0.000 N 
ATOM     11  H   UNL     1       8.537   5.098  14.434  0.00  0.00    +0.000 HD
ATOM     12  H   UNL     1       6.903   5.328  13.903  0.00  0.00    +0.000 HD
ENDBRANCH   1  10
BRANCH   9  13
ATOM     13  C   UNL     1       3.814   6.309  19.246  0.00  0.00    +0.000 C 
BRANCH  13  14
ATOM     14  C   UNL     1       3.206   4.948  19.618  0.00  0.00    +0.000 C 
BRANCH  14  15
ATOM     15  N   UNL     1       1.817   4.695  19.192  0.00  0.00    +0.000 NA
ATOM     16  C   UNL     1       1.813   4.066  17.844  0.00  0.00    +0.000 C 
ATOM     17  C   UNL     1       2.281   2.589  17.833  0.00  0.00    +0.000 C 
ATOM     18  N   UNL     1       1.498   1.742  18.740  0.00  0.00    +0.000 NA
ATOM     19  C   UNL     1       1.437   2.328  20.085  0.00  0.00    +0.000 C 
ATOM     20  C   UNL     1       1.032   3.821  20.091  0.00  0.00    +0.000 C 
ATOM     21  H   UNL     1       1.910   0.810  18.785  0.00  0.00    +0.000 HD
ENDBRANCH  14  15
ENDBRANCH  13  14
ENDBRANCH   9  13
TORSDOF 4
ENDMDL
