MODEL 1
REMARK VINA RESULT:      -6.1      0.000      0.000
REMARK  Name = 
REMARK  3 active torsions:
REMARK  status: ('A' for Active; 'I' for Inactive)
REMARK    1  A    between atoms: C_2  and  N_3
REMARK    2  A    between atoms: C_2  and  C_7
REMARK    3  A    between atoms: C_4  and  C_5
REMARK                            x       y       z     vdW  Elec       q    Type
REMARK                         _______ _______ _______ _____ _____    ______ ____
ROOT
ATOM      1  C   UNL     1       6.435   4.051  15.785  0.00  0.00    +0.000 C 
ATOM      2  C   UNL     1       6.064   4.559  16.973  0.00  0.00    +0.000 C 
ENDROOT
BRANCH   2   3
ATOM      3  C   UNL     1       4.632   5.042  17.109  0.00  0.00    +0.000 C 
ATOM      4  O   UNL     1       4.372   6.226  16.880  0.00  0.00    +0.000 OA
ATOM      5  N   UNL     1       3.652   4.166  17.535  0.00  0.00    +0.000 N 
ATOM      6  C   UNL     1       3.718   2.775  17.955  0.00  0.00    +0.000 C 
ATOM      7  C   UNL     1       2.279   2.308  17.831  0.00  0.00    +0.000 C 
ATOM      8  C   UNL     1       1.480   3.520  18.278  0.00  0.00    +0.000 C 
ATOM      9  C   UNL     1       2.341   4.712  17.868  0.00  0.00    +0.000 C 
ENDBRANCH   2   3
BRANCH   2  10
ATOM     10  N   UNL     1       6.881   4.476  18.072  0.00  0.00    +0.000 N 
ATOM     11  C   UNL     1       7.650   5.426  18.669  0.00  0.00    +0.000 C 
ATOM     12  C   UNL     1       7.724   6.830  18.129  0.00  0.00    +0.000 C 
ATOM     13  O   UNL     1       8.204   5.145  19.736  0.00  0.00    +0.000 OA
ATOM     14  H   UNL     1       6.733   3.674  18.674  0.00  0.00    +0.000 HD
ENDBRANCH   2  10
TORSDOF 2
ENDMDL
MODEL 2
REMARK VINA RESULT:      -6.1      2.026      2.999
REMARK  Name = 
REMARK  3 active torsions:
REMARK  status: ('A' for Active; 'I' for Inactive)
REMARK    1  A    between atoms: C_2  and  N_3
REMARK    2  A    between atoms: C_2  and  C_7
REMARK    3  A    between atoms: C_4  and  C_5
REMARK                            x       y       z     vdW  Elec       q    Type
REMARK                         _______ _______ _______ _____ _____    ______ ____
ROOT
ATOM      1  C   UNL     1       7.558   4.639  17.666  0.00  0.00    +0.000 C 
ATOM      2  C   UNL     1       6.873   5.282  16.704  0.00  0.00    +0.000 C 
ENDROOT
BRANCH   2   3
ATOM      3  C   UNL     1       5.550   5.915  17.092  0.00  0.00    +0.000 C 
ATOM      4  O   UNL     1       5.492   7.137  17.249  0.00  0.00    +0.000 OA
ATOM      5  N   UNL     1       4.446   5.114  17.312  0.00  0.00    +0.000 N 
ATOM      6  C   UNL     1       4.284   3.669  17.290  0.00  0.00    +0.000 C 
ATOM      7  C   UNL     1       2.783   3.491  17.146  0.00  0.00    +0.000 C 
ATOM      8  C   UNL     1       2.218   4.615  17.998  0.00  0.00    +0.000 C 
ATOM      9  C   UNL     1       3.259   5.726  17.896  0.00  0.00    +0.000 C 
ENDBRANCH   2   3
BRANCH   2  10
ATOM     10  N   UNL     1       7.427   5.520  15.471  0.00  0.00    +0.000 N 
ATOM     11  C   UNL     1       7.148   4.965  14.260  0.00  0.00    +0.000 C 
ATOM     12  C   UNL     1       6.100   3.894  14.110  0.00  0.00    +0.000 C 
ATOM     13  O   UNL     1       7.695   5.440  13.259  0.00  0.00    +0.000 OA
ATOM     14  H   UNL     1       7.955   6.380  15.382  0.00  0.00    +0.000 HD
ENDBRANCH   2  10
TORSDOF 2
ENDMDL
MODEL 3
REMARK VINA RESULT:      -5.9      1.650      2.158
REMARK  Name = 
REMARK  3 active torsions:
REMARK  status: ('A' for Active; 'I' for Inactive)
REMARK    1  A    between atoms: C_2  and  N_3
REMARK    2  A    between atoms: C_2  and  C_7
REMARK    3  A    between atoms: C_4  and  C_5
REMARK                            x       y       z     vdW  Elec       q    Type
REMARK                         _______ _______ _______ _____ _____    ______ ____
ROOT
ATOM      1  C   UNL     1       4.431   6.541  17.317  0.00  0.00    +0.000 C 
ATOM      2  C   UNL     1       4.618   5.501  18.149  0.00  0.00    +0.000 C 
ENDROOT
BRANCH   2   3
ATOM      3  C   UNL     1       3.899   4.206  17.819  0.00  0.00    +0.000 C 
ATOM      4  O   UNL     1       4.340   3.484  16.921  0.00  0.00    +0.000 OA
ATOM      5  N   UNL     1       2.737   3.878  18.491  0.00  0.00    +0.000 N 
ATOM      6  C   UNL     1       1.973   4.593  19.501  0.00  0.00    +0.000 C 
ATOM      7  C   UNL     1       1.121   3.503  20.127  0.00  0.00    +0.000 C 
ATOM      8  C   UNL     1       0.761   2.621  18.944  0.00  0.00    +0.000 C 
ATOM      9  C   UNL     1       1.955   2.749  18.001  0.00  0.00    +0.000 C 
ENDBRANCH   2   3
BRANCH   2  10
ATOM     10  N   UNL     1       5.560   5.543  19.145  0.00  0.00    +0.000 N 
ATOM     11  C   UNL     1       6.886   5.240  19.113  0.00  0.00    +0.000 C 
ATOM     12  C   UNL     1       7.551   4.753  17.852  0.00  0.00    +0.000 C 
ATOM     13  O   UNL     1       7.566   5.483  20.116  0.00  0.00    +0.000 OA
ATOM     14  H   UNL     1       5.314   6.085  19.964  0.00  0.00    +0.000 HD
ENDBRANCH   2  10
TORSDOF 2
ENDMDL
MODEL 4
REMARK VINA RESULT:      -5.8      1.872      2.648
REMARK  Name = 
REMARK  3 active torsions:
REMARK  status: ('A' for Active; 'I' for Inactive)
REMARK    1  A    between atoms: C_2  and  N_3
REMARK    2  A    between atoms: C_2  and  C_7
REMARK    3  A    between atoms: C_4  and  C_5
REMARK                            x       y       z     vdW  Elec       q    Type
REMARK                         _______ _______ _______ _____ _____    ______ ____
ROOT
ATOM      1  C   UNL     1       4.400   6.542  17.411  0.00  0.00    +0.000 C 
ATOM      2  C   UNL     1       4.712   5.280  17.755  0.00  0.00    +0.000 C 
ENDROOT
BRANCH   2   3
ATOM      3  C   UNL     1       3.574   4.281  17.850  0.00  0.00    +0.000 C 
ATOM      4  O   UNL     1       3.310   3.576  16.872  0.00  0.00    +0.000 OA
ATOM      5  N   UNL     1       2.822   4.208  19.006  0.00  0.00    +0.000 N 
ATOM      6  C   UNL     1       2.868   4.983  20.237  0.00  0.00    +0.000 C 
ATOM      7  C   UNL     1       2.125   4.104  21.227  0.00  0.00    +0.000 C 
ATOM      8  C   UNL     1       1.012   3.499  20.388  0.00  0.00    +0.000 C 
ATOM      9  C   UNL     1       1.606   3.403  18.985  0.00  0.00    +0.000 C 
ENDBRANCH   2   3
BRANCH   2  10
ATOM     10  N   UNL     1       6.017   4.863  17.835  0.00  0.00    +0.000 N 
ATOM     11  C   UNL     1       6.871   4.458  16.856  0.00  0.00    +0.000 C 
ATOM     12  C   UNL     1       6.440   4.393  15.414  0.00  0.00    +0.000 C 
ATOM     13  O   UNL     1       8.051   4.252  17.158  0.00  0.00    +0.000 OA
ATOM     14  H   UNL     1       6.504   5.096  18.692  0.00  0.00    +0.000 HD
ENDBRANCH   2  10
TORSDOF 2
ENDMDL
MODEL 5
REMARK VINA RESULT:      -5.8      1.942      2.094
REMARK  Name = 
REMARK  3 active torsions:
REMARK  status: ('A' for Active; 'I' for Inactive)
REMARK    1  A    between atoms: C_2  and  N_3
REMARK    2  A    between atoms: C_2  and  C_7
REMARK    3  A    between atoms: C_4  and  C_5
REMARK                            x       y       z     vdW  Elec       q    Type
REMARK                         _______ _______ _______ _____ _____    ______ ____
ROOT
ATOM      1  C   UNL     1       4.236   4.014  16.749  0.00  0.00    +0.000 C 
ATOM      2  C   UNL     1       4.806   4.345  17.921  0.00  0.00    +0.000 C 
ENDROOT
BRANCH   2   3
ATOM      3  C   UNL     1       3.894   4.847  19.025  0.00  0.00    +0.000 C 
ATOM      4  O   UNL     1       3.955   6.033  19.361  0.00  0.00    +0.000 OA
ATOM      5  N   UNL     1       3.049   3.965  19.669  0.00  0.00    +0.000 N 
ATOM      6  C   UNL     1       2.865   2.529  19.529  0.00  0.00    +0.000 C 
ATOM      7  C   UNL     1       1.506   2.291  20.162  0.00  0.00    +0.000 C 
ATOM      8  C   UNL     1       1.493   3.258  21.333  0.00  0.00    +0.000 C 
ATOM      9  C   UNL     1       2.355   4.428  20.865  0.00  0.00    +0.000 C 
ENDBRANCH   2   3
BRANCH   2  10
ATOM     10  N   UNL     1       6.125   4.066  18.177  0.00  0.00    +0.000 N 
ATOM     11  C   UNL     1       7.238   4.822  17.976  0.00  0.00    +0.000 C 
ATOM     12  C   UNL     1       7.154   6.197  17.366  0.00  0.00    +0.000 C 
ATOM     13  O   UNL     1       8.316   4.404  18.410  0.00  0.00    +0.000 OA
ATOM     14  H   UNL     1       6.300   3.294  18.810  0.00  0.00    +0.000 HD
ENDBRANCH   2  10
TORSDOF 2
ENDMDL
MODEL 6
REMARK VINA RESULT:      -5.7      2.492      4.752
REMARK  Name = 
REMARK  3 active torsions:
REMARK  status: ('A' for Active; 'I' for Inactive)
REMARK    1  A    between atoms: C_2  and  N_3
REMARK    2  A    between atoms: C_2  and  C_7
REMARK    3  A    between atoms: C_4  and  C_5
REMARK                            x       y       z     vdW  Elec       q    Type
REMARK                         _______ _______ _______ _____ _____    ______ ____
ROOT
ATOM      1  C   UNL     1       3.436   2.316  17.856  0.00  0.00    +0.000 C 
ATOM      2  C   UNL     1       3.653   3.293  18.753  0.00  0.00    +0.000 C 
ENDROOT
BRANCH   2   3
ATOM      3  C   UNL     1       3.803   4.707  18.223  0.00  0.00    +0.000 C 
ATOM      4  O   UNL     1       2.792   5.343  17.911  0.00  0.00    +0.000 OA
ATOM      5  N   UNL     1       5.064   5.243  18.050  0.00  0.00    +0.000 N 
ATOM      6  C   UNL     1       6.389   4.674  18.245  0.00  0.00    +0.000 C 
ATOM      7  C   UNL     1       7.282   5.898  18.334  0.00  0.00    +0.000 C 
ATOM      8  C   UNL     1       6.668   6.850  17.321  0.00  0.00    +0.000 C 
ATOM      9  C   UNL     1       5.181   6.508  17.334  0.00  0.00    +0.000 C 
ENDBRANCH   2   3
BRANCH   2  10
ATOM     10  N   UNL     1       3.557   3.060  20.102  0.00  0.00    +0.000 N 
ATOM     11  C   UNL     1       2.475   3.105  20.926  0.00  0.00    +0.000 C 
ATOM     12  C   UNL     1       1.109   3.473  20.411  0.00  0.00    +0.000 C 
ATOM     13  O   UNL     1       2.613   2.724  22.093  0.00  0.00    +0.000 OA
ATOM     14  H   UNL     1       4.334   2.563  20.521  0.00  0.00    +0.000 HD
ENDBRANCH   2  10
TORSDOF 2
ENDMDL
MODEL 7
REMARK VINA RESULT:      -5.7      2.631      5.085
REMARK  Name = 
REMARK  3 active torsions:
REMARK  status: ('A' for Active; 'I' for Inactive)
REMARK    1  A    between atoms: C_2  and  N_3
REMARK    2  A    between atoms: C_2  and  C_7
REMARK    3  A    between atoms: C_4  and  C_5
REMARK                            x       y       z     vdW  Elec       q    Type
REMARK                         _______ _______ _______ _____ _____    ______ ____
ROOT
ATOM      1  C   UNL     1       2.585   6.672  19.440  0.00  0.00    +0.000 C 
ATOM      2  C   UNL     1       3.074   5.421  19.512  0.00  0.00    +0.000 C 
ENDROOT
BRANCH   2   3
ATOM      3  C   UNL     1       3.867   4.912  18.323  0.00  0.00    +0.000 C 
ATOM      4  O   UNL     1       3.268   4.378  17.385  0.00  0.00    +0.000 OA
ATOM      5  N   UNL     1       5.245   5.007  18.328  0.00  0.00    +0.000 N 
ATOM      6  C   UNL     1       6.175   5.493  19.335  0.00  0.00    +0.000 C 
ATOM      7  C   UNL     1       7.442   5.753  18.540  0.00  0.00    +0.000 C 
ATOM      8  C   UNL     1       7.460   4.615  17.534  0.00  0.00    +0.000 C 
ATOM      9  C   UNL     1       5.985   4.312  17.281  0.00  0.00    +0.000 C 
ENDBRANCH   2   3
BRANCH   2  10
ATOM     10  N   UNL     1       3.023   4.700  20.678  0.00  0.00    +0.000 N 
ATOM     11  C   UNL     1       2.091   3.814  21.123  0.00  0.00    +0.000 C 
ATOM     12  C   UNL     1       0.862   3.494  20.313  0.00  0.00    +0.000 C 
ATOM     13  O   UNL     1       2.330   3.185  22.159  0.00  0.00    +0.000 OA
ATOM     14  H   UNL     1       3.894   4.625  21.191  0.00  0.00    +0.000 HD
ENDBRANCH   2  10
TORSDOF 2
ENDMDL
MODEL 8
REMARK VINA RESULT:      -5.7      1.827      2.300
REMARK  Name = 
REMARK  3 active torsions:
REMARK  status: ('A' for Active; 'I' for Inactive)
REMARK    1  A    between atoms: C_2  and  N_3
REMARK    2  A    between atoms: C_2  and  C_7
REMARK    3  A    between atoms: C_4  and  C_5
REMARK                            x       y       z     vdW  Elec       q    Type
REMARK                         _______ _______ _______ _____ _____    ______ ____
ROOT
ATOM      1  C   UNL     1       4.826   5.764  19.312  0.00  0.00    +0.000 C 
ATOM      2  C   UNL     1       5.084   4.587  18.716  0.00  0.00    +0.000 C 
ENDROOT
BRANCH   2   3
ATOM      3  C   UNL     1       3.917   3.855  18.081  0.00  0.00    +0.000 C 
ATOM      4  O   UNL     1       3.916   3.668  16.861  0.00  0.00    +0.000 OA
ATOM      5  N   UNL     1       2.851   3.454  18.864  0.00  0.00    +0.000 N 
ATOM      6  C   UNL     1       2.572   3.639  20.279  0.00  0.00    +0.000 C 
ATOM      7  C   UNL     1       1.522   2.581  20.566  0.00  0.00    +0.000 C 
ATOM      8  C   UNL     1       0.677   2.579  19.303  0.00  0.00    +0.000 C 
ATOM      9  C   UNL     1       1.655   2.958  18.194  0.00  0.00    +0.000 C 
ENDBRANCH   2   3
BRANCH   2  10
ATOM     10  N   UNL     1       6.370   4.151  18.524  0.00  0.00    +0.000 N 
ATOM     11  C   UNL     1       7.299   4.533  17.605  0.00  0.00    +0.000 C 
ATOM     12  C   UNL     1       6.992   5.579  16.566  0.00  0.00    +0.000 C 
ATOM     13  O   UNL     1       8.446   4.085  17.712  0.00  0.00    +0.000 OA
ATOM     14  H   UNL     1       6.786   3.643  19.295  0.00  0.00    +0.000 HD
ENDBRANCH   2  10
TORSDOF 2
ENDMDL
MODEL 9
REMARK VINA RESULT:      -5.7      2.217      2.773
REMARK  Name = 
REMARK  3 active torsions:
REMARK  status: ('A' for Active; 'I' for Inactive)
REMARK    1  A    between atoms: C_2  and  N_3
REMARK    2  A    between atoms: C_2  and  C_7
REMARK    3  A    between atoms: C_4  and  C_5
REMARK                            x       y       z     vdW  Elec       q    Type
REMARK                         _______ _______ _______ _____ _____    ______ ____
ROOT
ATOM      1  C   UNL     1       4.421   3.633  16.735  0.00  0.00    +0.000 C 
ATOM      2  C   UNL     1       4.650   4.320  17.868  0.00  0.00    +0.000 C 
ENDROOT
BRANCH   2   3
ATOM      3  C   UNL     1       4.375   3.612  19.182  0.00  0.00    +0.000 C 
ATOM      4  O   UNL     1       5.291   3.000  19.738  0.00  0.00    +0.000 OA
ATOM      5  N   UNL     1       3.099   3.619  19.710  0.00  0.00    +0.000 N 
ATOM      6  C   UNL     1       1.851   4.172  19.208  0.00  0.00    +0.000 C 
ATOM      7  C   UNL     1       0.980   4.246  20.450  0.00  0.00    +0.000 C 
ATOM      8  C   UNL     1       1.359   2.988  21.214  0.00  0.00    +0.000 C 
ATOM      9  C   UNL     1       2.821   2.749  20.847  0.00  0.00    +0.000 C 
ENDBRANCH   2   3
BRANCH   2  10
ATOM     10  N   UNL     1       5.279   5.539  17.850  0.00  0.00    +0.000 N 
ATOM     11  C   UNL     1       6.605   5.842  17.806  0.00  0.00    +0.000 C 
ATOM     12  C   UNL     1       7.657   4.764  17.789  0.00  0.00    +0.000 C 
ATOM     13  O   UNL     1       6.930   7.025  17.665  0.00  0.00    +0.000 OA
ATOM     14  H   UNL     1       4.700   6.333  17.605  0.00  0.00    +0.000 HD
ENDBRANCH   2  10
TORSDOF 2
ENDMDL
