MODEL 1
REMARK VINA RESULT:      -8.6      0.000      0.000
REMARK  Name = 
REMARK  7 active torsions:
REMARK  status: ('A' for Active; 'I' for Inactive)
REMARK    1  A    between atoms: C_1  and  C_2
REMARK    2  A    between atoms: C_2  and  C_21
REMARK    3  A    between atoms: N_3  and  N_4
REMARK    4  A    between atoms: N_7  and  C_8
REMARK    5  A    between atoms: C_13  and  O_14
REMARK    6  A    between atoms: O_14  and  C_15
REMARK    7  A    between atoms: C_25  and  N_26
REMARK                            x       y       z     vdW  Elec       q    Type
REMARK                         _______ _______ _______ _____ _____    ______ ____
ROOT
ATOM      1  N   UNL     1       1.417   9.016  20.769  0.00  0.00    +0.000 N 
ATOM      2  C   UNL     1       0.164   9.426  21.222  0.00  0.00    +0.000 C 
ATOM      3  O   UNL     1      -0.786   8.670  21.409  0.00  0.00    +0.000 OA
ATOM      4  N   UNL     1       0.116  10.813  21.357  0.00  0.00    +0.000 N 
ATOM      5  H   UNL     1       2.197   9.596  21.048  0.00  0.00    +0.000 HD
ATOM      6  H   UNL     1       0.624  11.292  20.627  0.00  0.00    +0.000 HD
ENDROOT
BRANCH   4   7
ATOM      7  C   UNL     1      -1.074  11.456  21.781  0.00  0.00    +0.000 A 
ATOM      8  C   UNL     1      -1.489  11.319  23.114  0.00  0.00    +0.000 A 
ATOM      9  C   UNL     1      -2.628  11.982  23.579  0.00  0.00    +0.000 A 
ATOM     10  C   UNL     1      -3.367  12.786  22.714  0.00  0.00    +0.000 A 
ATOM     11  C   UNL     1      -2.972  12.923  21.385  0.00  0.00    +0.000 A 
ATOM     12  C   UNL     1      -1.840  12.248  20.906  0.00  0.00    +0.000 A 
BRANCH  12  13
ATOM     13  O   UNL     1      -1.563  12.463  19.573  0.00  0.00    +0.000 OA
BRANCH  13  14
ATOM     14  C   UNL     1      -2.119  11.659  18.601  0.00  0.00    +0.000 A 
ATOM     15  C   UNL     1      -3.459  11.664  18.213  0.00  0.00    +0.000 A 
ATOM     16  C   UNL     1      -3.943  10.671  17.358  0.00  0.00    +0.000 A 
ATOM     17  C   UNL     1      -3.070   9.731  16.814  0.00  0.00    +0.000 A 
ATOM     18  C   UNL     1      -1.710   9.790  17.113  0.00  0.00    +0.000 A 
ATOM     19  C   UNL     1      -1.236  10.749  18.010  0.00  0.00    +0.000 A 
ENDBRANCH  13  14
ENDBRANCH  12  13
ENDBRANCH   4   7
BRANCH   1  22
ATOM     20  C   UNL     1       2.319   8.136  18.202  0.00  0.00    +0.000 C 
ATOM     21  C   UNL     1       2.087   7.262  19.418  0.00  0.00    +0.000 C 
ATOM     22  N   UNL     1       1.635   7.689  20.562  0.00  0.00    +0.000 NA
BRANCH  21  23
ATOM     23  C   UNL     1       2.383   5.788  19.292  0.00  0.00    +0.000 A 
ATOM     24  C   UNL     1       2.549   5.235  18.011  0.00  0.00    +0.000 A 
ATOM     25  C   UNL     1       2.766   3.863  17.840  0.00  0.00    +0.000 A 
ATOM     26  C   UNL     1       2.817   3.023  18.951  0.00  0.00    +0.000 A 
ATOM     27  C   UNL     1       2.665   3.567  20.230  0.00  0.00    +0.000 A 
ATOM     28  C   UNL     1       2.458   4.947  20.410  0.00  0.00    +0.000 A 
BRANCH  27  29
ATOM     29  N   UNL     1       2.703   2.686  21.403  0.00  0.00    +0.000 N 
ATOM     30  O   UNL     1       3.738   2.022  21.601  0.00  0.00    +0.000 OA
ATOM     31  O   UNL     1       1.704   2.652  22.132  0.00  0.00    +0.000 OA
ENDBRANCH  27  29
ENDBRANCH  21  23
ENDBRANCH   1  22
TORSDOF 6
ENDMDL
MODEL 2
REMARK VINA RESULT:      -8.5      2.876      9.290
REMARK  Name = 
REMARK  7 active torsions:
REMARK  status: ('A' for Active; 'I' for Inactive)
REMARK    1  A    between atoms: C_1  and  C_2
REMARK    2  A    between atoms: C_2  and  C_21
REMARK    3  A    between atoms: N_3  and  N_4
REMARK    4  A    between atoms: N_7  and  C_8
REMARK    5  A    between atoms: C_13  and  O_14
REMARK    6  A    between atoms: O_14  and  C_15
REMARK    7  A    between atoms: C_25  and  N_26
REMARK                            x       y       z     vdW  Elec       q    Type
REMARK                         _______ _______ _______ _____ _____    ______ ____
ROOT
ATOM      1  N   UNL     1       2.169   7.430  20.393  0.00  0.00    +0.000 N 
ATOM      2  C   UNL     1       2.325   6.281  19.622  0.00  0.00    +0.000 C 
ATOM      3  O   UNL     1       1.952   6.171  18.457  0.00  0.00    +0.000 OA
ATOM      4  N   UNL     1       2.890   5.251  20.375  0.00  0.00    +0.000 N 
ATOM      5  H   UNL     1       2.848   7.561  21.131  0.00  0.00    +0.000 HD
ATOM      6  H   UNL     1       2.552   5.237  21.327  0.00  0.00    +0.000 HD
ENDROOT
BRANCH   4   7
ATOM      7  C   UNL     1       3.117   3.977  19.800  0.00  0.00    +0.000 A 
ATOM      8  C   UNL     1       2.020   3.161  19.487  0.00  0.00    +0.000 A 
ATOM      9  C   UNL     1       2.205   1.920  18.870  0.00  0.00    +0.000 A 
ATOM     10  C   UNL     1       3.491   1.480  18.565  0.00  0.00    +0.000 A 
ATOM     11  C   UNL     1       4.591   2.275  18.880  0.00  0.00    +0.000 A 
ATOM     12  C   UNL     1       4.415   3.514  19.514  0.00  0.00    +0.000 A 
BRANCH  12  13
ATOM     13  O   UNL     1       5.584   4.197  19.775  0.00  0.00    +0.000 OA
BRANCH  13  14
ATOM     14  C   UNL     1       6.034   5.174  18.914  0.00  0.00    +0.000 A 
ATOM     15  C   UNL     1       5.398   5.575  17.738  0.00  0.00    +0.000 A 
ATOM     16  C   UNL     1       6.049   6.435  16.850  0.00  0.00    +0.000 A 
ATOM     17  C   UNL     1       7.292   6.970  17.180  0.00  0.00    +0.000 A 
ATOM     18  C   UNL     1       7.881   6.658  18.403  0.00  0.00    +0.000 A 
ATOM     19  C   UNL     1       7.256   5.756  19.266  0.00  0.00    +0.000 A 
ENDBRANCH  13  14
ENDBRANCH  12  13
ENDBRANCH   4   7
BRANCH   1  22
ATOM     20  C   UNL     1      -0.132   8.620  21.605  0.00  0.00    +0.000 C 
ATOM     21  C   UNL     1       0.590   9.121  20.371  0.00  0.00    +0.000 C 
ATOM     22  N   UNL     1       1.611   8.531  19.819  0.00  0.00    +0.000 NA
BRANCH  21  23
ATOM     23  C   UNL     1       0.080  10.384  19.722  0.00  0.00    +0.000 A 
ATOM     24  C   UNL     1       0.704  11.605  20.028  0.00  0.00    +0.000 A 
ATOM     25  C   UNL     1       0.230  12.810  19.497  0.00  0.00    +0.000 A 
ATOM     26  C   UNL     1      -0.880  12.811  18.655  0.00  0.00    +0.000 A 
ATOM     27  C   UNL     1      -1.500  11.598  18.335  0.00  0.00    +0.000 A 
ATOM     28  C   UNL     1      -1.021  10.382  18.857  0.00  0.00    +0.000 A 
BRANCH  27  29
ATOM     29  N   UNL     1      -2.678  11.594  17.461  0.00  0.00    +0.000 N 
ATOM     30  O   UNL     1      -2.504  11.362  16.250  0.00  0.00    +0.000 OA
ATOM     31  O   UNL     1      -3.781  11.818  17.976  0.00  0.00    +0.000 OA
ENDBRANCH  27  29
ENDBRANCH  21  23
ENDBRANCH   1  22
TORSDOF 6
ENDMDL
MODEL 3
REMARK VINA RESULT:      -8.5      2.902      9.299
REMARK  Name = 
REMARK  7 active torsions:
REMARK  status: ('A' for Active; 'I' for Inactive)
REMARK    1  A    between atoms: C_1  and  C_2
REMARK    2  A    between atoms: C_2  and  C_21
REMARK    3  A    between atoms: N_3  and  N_4
REMARK    4  A    between atoms: N_7  and  C_8
REMARK    5  A    between atoms: C_13  and  O_14
REMARK    6  A    between atoms: O_14  and  C_15
REMARK    7  A    between atoms: C_25  and  N_26
REMARK                            x       y       z     vdW  Elec       q    Type
REMARK                         _______ _______ _______ _____ _____    ______ ____
ROOT
ATOM      1  N   UNL     1       2.056   7.528  20.721  0.00  0.00    +0.000 N 
ATOM      2  C   UNL     1       2.245   6.521  19.777  0.00  0.00    +0.000 C 
ATOM      3  O   UNL     1       2.043   6.653  18.573  0.00  0.00    +0.000 OA
ATOM      4  N   UNL     1       2.617   5.327  20.395  0.00  0.00    +0.000 N 
ATOM      5  H   UNL     1       2.625   7.463  21.555  0.00  0.00    +0.000 HD
ATOM      6  H   UNL     1       2.140   5.180  21.273  0.00  0.00    +0.000 HD
ENDROOT
BRANCH   4   7
ATOM      7  C   UNL     1       2.837   4.156  19.628  0.00  0.00    +0.000 A 
ATOM      8  C   UNL     1       1.734   3.431  19.152  0.00  0.00    +0.000 A 
ATOM      9  C   UNL     1       1.914   2.302  18.349  0.00  0.00    +0.000 A 
ATOM     10  C   UNL     1       3.200   1.882  18.017  0.00  0.00    +0.000 A 
ATOM     11  C   UNL     1       4.305   2.586  18.490  0.00  0.00    +0.000 A 
ATOM     12  C   UNL     1       4.134   3.711  19.311  0.00  0.00    +0.000 A 
BRANCH  12  13
ATOM     13  O   UNL     1       5.306   4.311  19.716  0.00  0.00    +0.000 OA
BRANCH  13  14
ATOM     14  C   UNL     1       5.890   5.300  18.952  0.00  0.00    +0.000 A 
ATOM     15  C   UNL     1       5.315   5.908  17.836  0.00  0.00    +0.000 A 
ATOM     16  C   UNL     1       6.079   6.755  17.030  0.00  0.00    +0.000 A 
ATOM     17  C   UNL     1       7.388   7.070  17.391  0.00  0.00    +0.000 A 
ATOM     18  C   UNL     1       7.929   6.551  18.565  0.00  0.00    +0.000 A 
ATOM     19  C   UNL     1       7.184   5.662  19.341  0.00  0.00    +0.000 A 
ENDBRANCH  13  14
ENDBRANCH  12  13
ENDBRANCH   4   7
BRANCH   1  22
ATOM     20  C   UNL     1      -0.392   8.638  21.695  0.00  0.00    +0.000 C 
ATOM     21  C   UNL     1       0.583   9.311  20.751  0.00  0.00    +0.000 C 
ATOM     22  N   UNL     1       1.670   8.761  20.293  0.00  0.00    +0.000 NA
BRANCH  21  23
ATOM     23  C   UNL     1       0.265  10.714  20.293  0.00  0.00    +0.000 A 
ATOM     24  C   UNL     1      -0.664  10.896  19.255  0.00  0.00    +0.000 A 
ATOM     25  C   UNL     1      -0.947  12.173  18.756  0.00  0.00    +0.000 A 
ATOM     26  C   UNL     1      -0.300  13.286  19.288  0.00  0.00    +0.000 A 
ATOM     27  C   UNL     1       0.617  13.116  20.329  0.00  0.00    +0.000 A 
ATOM     28  C   UNL     1       0.898  11.836  20.843  0.00  0.00    +0.000 A 
BRANCH  27  29
ATOM     29  N   UNL     1       1.313  14.282  20.883  0.00  0.00    +0.000 N 
ATOM     30  O   UNL     1       1.450  15.281  20.151  0.00  0.00    +0.000 OA
ATOM     31  O   UNL     1       1.723  14.211  22.049  0.00  0.00    +0.000 OA
ENDBRANCH  27  29
ENDBRANCH  21  23
ENDBRANCH   1  22
TORSDOF 6
ENDMDL
MODEL 4
REMARK VINA RESULT:      -8.3      2.991      9.327
REMARK  Name = 
REMARK  7 active torsions:
REMARK  status: ('A' for Active; 'I' for Inactive)
REMARK    1  A    between atoms: C_1  and  C_2
REMARK    2  A    between atoms: C_2  and  C_21
REMARK    3  A    between atoms: N_3  and  N_4
REMARK    4  A    between atoms: N_7  and  C_8
REMARK    5  A    between atoms: C_13  and  O_14
REMARK    6  A    between atoms: O_14  and  C_15
REMARK    7  A    between atoms: C_25  and  N_26
REMARK                            x       y       z     vdW  Elec       q    Type
REMARK                         _______ _______ _______ _____ _____    ______ ____
ROOT
ATOM      1  N   UNL     1       1.968   7.579  20.602  0.00  0.00    +0.000 N 
ATOM      2  C   UNL     1       2.247   6.515  19.746  0.00  0.00    +0.000 C 
ATOM      3  O   UNL     1       2.123   6.557  18.525  0.00  0.00    +0.000 OA
ATOM      4  N   UNL     1       2.611   5.380  20.470  0.00  0.00    +0.000 N 
ATOM      5  H   UNL     1       2.481   7.590  21.473  0.00  0.00    +0.000 HD
ATOM      6  H   UNL     1       2.081   5.278  21.324  0.00  0.00    +0.000 HD
ENDROOT
BRANCH   4   7
ATOM      7  C   UNL     1       2.914   4.166  19.805  0.00  0.00    +0.000 A 
ATOM      8  C   UNL     1       1.866   3.352  19.352  0.00  0.00    +0.000 A 
ATOM      9  C   UNL     1       2.129   2.175  18.645  0.00  0.00    +0.000 A 
ATOM     10  C   UNL     1       3.445   1.797  18.389  0.00  0.00    +0.000 A 
ATOM     11  C   UNL     1       4.497   2.590  18.842  0.00  0.00    +0.000 A 
ATOM     12  C   UNL     1       4.242   3.764  19.566  0.00  0.00    +0.000 A 
BRANCH  12  13
ATOM     13  O   UNL     1       5.369   4.452  19.962  0.00  0.00    +0.000 OA
BRANCH  13  14
ATOM     14  C   UNL     1       6.055   5.249  19.070  0.00  0.00    +0.000 A 
ATOM     15  C   UNL     1       7.359   5.715  19.237  0.00  0.00    +0.000 A 
ATOM     16  C   UNL     1       7.876   6.672  18.360  0.00  0.00    +0.000 A 
ATOM     17  C   UNL     1       7.127   7.092  17.263  0.00  0.00    +0.000 A 
ATOM     18  C   UNL     1       5.867   6.546  17.031  0.00  0.00    +0.000 A 
ATOM     19  C   UNL     1       5.328   5.630  17.937  0.00  0.00    +0.000 A 
ENDBRANCH  13  14
ENDBRANCH  12  13
ENDBRANCH   4   7
BRANCH   1  22
ATOM     20  C   UNL     1      -0.417   8.829  21.565  0.00  0.00    +0.000 C 
ATOM     21  C   UNL     1       0.520   9.380  20.509  0.00  0.00    +0.000 C 
ATOM     22  N   UNL     1       1.576   8.766  20.062  0.00  0.00    +0.000 NA
BRANCH  21  23
ATOM     23  C   UNL     1       0.198  10.732  19.919  0.00  0.00    +0.000 A 
ATOM     24  C   UNL     1      -1.145  11.062  19.671  0.00  0.00    +0.000 A 
ATOM     25  C   UNL     1      -1.489  12.278  19.070  0.00  0.00    +0.000 A 
ATOM     26  C   UNL     1      -0.492  13.181  18.706  0.00  0.00    +0.000 A 
ATOM     27  C   UNL     1       0.846  12.865  18.960  0.00  0.00    +0.000 A 
ATOM     28  C   UNL     1       1.199  11.648  19.574  0.00  0.00    +0.000 A 
BRANCH  27  29
ATOM     29  N   UNL     1       1.901  13.804  18.565  0.00  0.00    +0.000 N 
ATOM     30  O   UNL     1       1.652  15.023  18.629  0.00  0.00    +0.000 OA
ATOM     31  O   UNL     1       2.984  13.334  18.191  0.00  0.00    +0.000 OA
ENDBRANCH  27  29
ENDBRANCH  21  23
ENDBRANCH   1  22
TORSDOF 6
ENDMDL
MODEL 5
REMARK VINA RESULT:      -8.3      2.883      3.619
REMARK  Name = 
REMARK  7 active torsions:
REMARK  status: ('A' for Active; 'I' for Inactive)
REMARK    1  A    between atoms: C_1  and  C_2
REMARK    2  A    between atoms: C_2  and  C_21
REMARK    3  A    between atoms: N_3  and  N_4
REMARK    4  A    between atoms: N_7  and  C_8
REMARK    5  A    between atoms: C_13  and  O_14
REMARK    6  A    between atoms: O_14  and  C_15
REMARK    7  A    between atoms: C_25  and  N_26
REMARK                            x       y       z     vdW  Elec       q    Type
REMARK                         _______ _______ _______ _____ _____    ______ ____
ROOT
ATOM      1  N   UNL     1       1.757   8.376  19.541  0.00  0.00    +0.000 N 
ATOM      2  C   UNL     1       1.548   9.648  19.012  0.00  0.00    +0.000 C 
ATOM      3  O   UNL     1       2.038  10.050  17.960  0.00  0.00    +0.000 OA
ATOM      4  N   UNL     1       0.774  10.422  19.876  0.00  0.00    +0.000 N 
ATOM      5  H   UNL     1       1.018   8.017  20.131  0.00  0.00    +0.000 HD
ATOM      6  H   UNL     1       0.994  10.256  20.848  0.00  0.00    +0.000 HD
ENDROOT
BRANCH   4   7
ATOM      7  C   UNL     1       0.457  11.765  19.554  0.00  0.00    +0.000 A 
ATOM      8  C   UNL     1       1.479  12.725  19.538  0.00  0.00    +0.000 A 
ATOM      9  C   UNL     1       1.211  14.048  19.173  0.00  0.00    +0.000 A 
ATOM     10  C   UNL     1      -0.083  14.425  18.824  0.00  0.00    +0.000 A 
ATOM     11  C   UNL     1      -1.111  13.484  18.845  0.00  0.00    +0.000 A 
ATOM     12  C   UNL     1      -0.854  12.158  19.226  0.00  0.00    +0.000 A 
BRANCH  12  13
ATOM     13  O   UNL     1      -1.957  11.332  19.210  0.00  0.00    +0.000 OA
BRANCH  13  14
ATOM     14  C   UNL     1      -2.522  10.937  18.017  0.00  0.00    +0.000 A 
ATOM     15  C   UNL     1      -1.929  10.092  17.078  0.00  0.00    +0.000 A 
ATOM     16  C   UNL     1      -2.515   9.921  15.822  0.00  0.00    +0.000 A 
ATOM     17  C   UNL     1      -3.742  10.517  15.537  0.00  0.00    +0.000 A 
ATOM     18  C   UNL     1      -4.391  11.272  16.511  0.00  0.00    +0.000 A 
ATOM     19  C   UNL     1      -3.779  11.488  17.747  0.00  0.00    +0.000 A 
ENDBRANCH  13  14
ENDBRANCH  12  13
ENDBRANCH   4   7
BRANCH   1  22
ATOM     20  C   UNL     1       1.987   5.683  20.476  0.00  0.00    +0.000 C 
ATOM     21  C   UNL     1       2.601   6.248  19.211  0.00  0.00    +0.000 C 
ATOM     22  N   UNL     1       2.512   7.490  18.834  0.00  0.00    +0.000 NA
BRANCH  21  23
ATOM     23  C   UNL     1       3.388   5.307  18.330  0.00  0.00    +0.000 A 
ATOM     24  C   UNL     1       2.715   4.255  17.688  0.00  0.00    +0.000 A 
ATOM     25  C   UNL     1       3.411   3.322  16.910  0.00  0.00    +0.000 A 
ATOM     26  C   UNL     1       4.792   3.429  16.766  0.00  0.00    +0.000 A 
ATOM     27  C   UNL     1       5.469   4.481  17.392  0.00  0.00    +0.000 A 
ATOM     28  C   UNL     1       4.774   5.429  18.167  0.00  0.00    +0.000 A 
BRANCH  27  29
ATOM     29  N   UNL     1       6.925   4.591  17.257  0.00  0.00    +0.000 N 
ATOM     30  O   UNL     1       7.617   4.468  18.285  0.00  0.00    +0.000 OA
ATOM     31  O   UNL     1       7.387   4.796  16.127  0.00  0.00    +0.000 OA
ENDBRANCH  27  29
ENDBRANCH  21  23
ENDBRANCH   1  22
TORSDOF 6
ENDMDL
MODEL 6
REMARK VINA RESULT:      -8.3      2.865      9.247
REMARK  Name = 
REMARK  7 active torsions:
REMARK  status: ('A' for Active; 'I' for Inactive)
REMARK    1  A    between atoms: C_1  and  C_2
REMARK    2  A    between atoms: C_2  and  C_21
REMARK    3  A    between atoms: N_3  and  N_4
REMARK    4  A    between atoms: N_7  and  C_8
REMARK    5  A    between atoms: C_13  and  O_14
REMARK    6  A    between atoms: O_14  and  C_15
REMARK    7  A    between atoms: C_25  and  N_26
REMARK                            x       y       z     vdW  Elec       q    Type
REMARK                         _______ _______ _______ _____ _____    ______ ____
ROOT
ATOM      1  N   UNL     1       1.868   7.708  20.682  0.00  0.00    +0.000 N 
ATOM      2  C   UNL     1       2.063   6.585  19.881  0.00  0.00    +0.000 C 
ATOM      3  O   UNL     1       1.892   6.563  18.665  0.00  0.00    +0.000 OA
ATOM      4  N   UNL     1       2.402   5.476  20.657  0.00  0.00    +0.000 N 
ATOM      5  H   UNL     1       2.416   7.744  21.532  0.00  0.00    +0.000 HD
ATOM      6  H   UNL     1       1.903   5.450  21.534  0.00  0.00    +0.000 HD
ENDROOT
BRANCH   4   7
ATOM      7  C   UNL     1       2.622   4.213  20.053  0.00  0.00    +0.000 A 
ATOM      8  C   UNL     1       1.603   3.250  20.089  0.00  0.00    +0.000 A 
ATOM      9  C   UNL     1       1.766   2.013  19.458  0.00  0.00    +0.000 A 
ATOM     10  C   UNL     1       2.953   1.725  18.788  0.00  0.00    +0.000 A 
ATOM     11  C   UNL     1       3.978   2.668  18.754  0.00  0.00    +0.000 A 
ATOM     12  C   UNL     1       3.829   3.905  19.398  0.00  0.00    +0.000 A 
BRANCH  12  13
ATOM     13  O   UNL     1       4.918   4.743  19.293  0.00  0.00    +0.000 OA
BRANCH  13  14
ATOM     14  C   UNL     1       5.478   5.016  18.064  0.00  0.00    +0.000 A 
ATOM     15  C   UNL     1       4.812   5.586  16.978  0.00  0.00    +0.000 A 
ATOM     16  C   UNL     1       5.431   5.634  15.726  0.00  0.00    +0.000 A 
ATOM     17  C   UNL     1       6.748   5.203  15.580  0.00  0.00    +0.000 A 
ATOM     18  C   UNL     1       7.453   4.736  16.688  0.00  0.00    +0.000 A 
ATOM     19  C   UNL     1       6.817   4.637  17.926  0.00  0.00    +0.000 A 
ENDBRANCH  13  14
ENDBRANCH  12  13
ENDBRANCH   4   7
BRANCH   1  22
ATOM     20  C   UNL     1      -0.290   9.227  21.783  0.00  0.00    +0.000 C 
ATOM     21  C   UNL     1       0.562   9.615  20.592  0.00  0.00    +0.000 C 
ATOM     22  N   UNL     1       1.511   8.880  20.089  0.00  0.00    +0.000 NA
BRANCH  21  23
ATOM     23  C   UNL     1       0.280  10.940  19.927  0.00  0.00    +0.000 A 
ATOM     24  C   UNL     1      -0.927  11.106  19.228  0.00  0.00    +0.000 A 
ATOM     25  C   UNL     1      -1.206  12.296  18.545  0.00  0.00    +0.000 A 
ATOM     26  C   UNL     1      -0.279  13.336  18.550  0.00  0.00    +0.000 A 
ATOM     27  C   UNL     1       0.920  13.183  19.254  0.00  0.00    +0.000 A 
ATOM     28  C   UNL     1       1.203  11.993  19.951  0.00  0.00    +0.000 A 
BRANCH  27  29
ATOM     29  N   UNL     1       1.907  14.268  19.250  0.00  0.00    +0.000 N 
ATOM     30  O   UNL     1       2.948  14.112  19.917  0.00  0.00    +0.000 OA
ATOM     31  O   UNL     1       1.653  15.279  18.583  0.00  0.00    +0.000 OA
ENDBRANCH  27  29
ENDBRANCH  21  23
ENDBRANCH   1  22
TORSDOF 6
ENDMDL
MODEL 7
REMARK VINA RESULT:      -8.3      1.079      1.510
REMARK  Name = 
REMARK  7 active torsions:
REMARK  status: ('A' for Active; 'I' for Inactive)
REMARK    1  A    between atoms: C_1  and  C_2
REMARK    2  A    between atoms: C_2  and  C_21
REMARK    3  A    between atoms: N_3  and  N_4
REMARK    4  A    between atoms: N_7  and  C_8
REMARK    5  A    between atoms: C_13  and  O_14
REMARK    6  A    between atoms: O_14  and  C_15
REMARK    7  A    between atoms: C_25  and  N_26
REMARK                            x       y       z     vdW  Elec       q    Type
REMARK                         _______ _______ _______ _____ _____    ______ ____
ROOT
ATOM      1  N   UNL     1       1.589   9.242  20.563  0.00  0.00    +0.000 N 
ATOM      2  C   UNL     1       0.299   9.565  20.975  0.00  0.00    +0.000 C 
ATOM      3  O   UNL     1      -0.646   8.780  20.978  0.00  0.00    +0.000 OA
ATOM      4  N   UNL     1       0.210  10.917  21.310  0.00  0.00    +0.000 N 
ATOM      5  H   UNL     1       2.335   9.783  20.982  0.00  0.00    +0.000 HD
ATOM      6  H   UNL     1       0.759  11.504  20.699  0.00  0.00    +0.000 HD
ENDROOT
BRANCH   4   7
ATOM      7  C   UNL     1      -1.021  11.476  21.733  0.00  0.00    +0.000 A 
ATOM      8  C   UNL     1      -1.405  11.351  23.076  0.00  0.00    +0.000 A 
ATOM      9  C   UNL     1      -2.587  11.936  23.540  0.00  0.00    +0.000 A 
ATOM     10  C   UNL     1      -3.400  12.649  22.662  0.00  0.00    +0.000 A 
ATOM     11  C   UNL     1      -3.037  12.774  21.323  0.00  0.00    +0.000 A 
ATOM     12  C   UNL     1      -1.861  12.176  20.846  0.00  0.00    +0.000 A 
BRANCH  12  13
ATOM     13  O   UNL     1      -1.621  12.369  19.503  0.00  0.00    +0.000 OA
BRANCH  13  14
ATOM     14  C   UNL     1      -2.075  11.461  18.571  0.00  0.00    +0.000 A 
ATOM     15  C   UNL     1      -1.300  10.482  17.947  0.00  0.00    +0.000 A 
ATOM     16  C   UNL     1      -1.824   9.750  16.880  0.00  0.00    +0.000 A 
ATOM     17  C   UNL     1      -3.152   9.927  16.496  0.00  0.00    +0.000 A 
ATOM     18  C   UNL     1      -3.962  10.825  17.189  0.00  0.00    +0.000 A 
ATOM     19  C   UNL     1      -3.422  11.596  18.220  0.00  0.00    +0.000 A 
ENDBRANCH  13  14
ENDBRANCH  12  13
ENDBRANCH   4   7
BRANCH   1  22
ATOM     20  C   UNL     1       2.260   8.714  17.834  0.00  0.00    +0.000 C 
ATOM     21  C   UNL     1       2.201   7.696  18.954  0.00  0.00    +0.000 C 
ATOM     22  N   UNL     1       1.851   7.962  20.179  0.00  0.00    +0.000 NA
BRANCH  21  23
ATOM     23  C   UNL     1       2.557   6.267  18.626  0.00  0.00    +0.000 A 
ATOM     24  C   UNL     1       3.629   6.017  17.753  0.00  0.00    +0.000 A 
ATOM     25  C   UNL     1       3.959   4.711  17.372  0.00  0.00    +0.000 A 
ATOM     26  C   UNL     1       3.217   3.636  17.857  0.00  0.00    +0.000 A 
ATOM     27  C   UNL     1       2.155   3.875  18.735  0.00  0.00    +0.000 A 
ATOM     28  C   UNL     1       1.825   5.185  19.131  0.00  0.00    +0.000 A 
BRANCH  27  29
ATOM     29  N   UNL     1       1.361   2.749  19.237  0.00  0.00    +0.000 N 
ATOM     30  O   UNL     1       0.576   2.191  18.447  0.00  0.00    +0.000 OA
ATOM     31  O   UNL     1       1.515   2.414  20.419  0.00  0.00    +0.000 OA
ENDBRANCH  27  29
ENDBRANCH  21  23
ENDBRANCH   1  22
TORSDOF 6
ENDMDL
MODEL 8
REMARK VINA RESULT:      -8.2      2.620      9.229
REMARK  Name = 
REMARK  7 active torsions:
REMARK  status: ('A' for Active; 'I' for Inactive)
REMARK    1  A    between atoms: C_1  and  C_2
REMARK    2  A    between atoms: C_2  and  C_21
REMARK    3  A    between atoms: N_3  and  N_4
REMARK    4  A    between atoms: N_7  and  C_8
REMARK    5  A    between atoms: C_13  and  O_14
REMARK    6  A    between atoms: O_14  and  C_15
REMARK    7  A    between atoms: C_25  and  N_26
REMARK                            x       y       z     vdW  Elec       q    Type
REMARK                         _______ _______ _______ _____ _____    ______ ____
ROOT
ATOM      1  N   UNL     1       2.188   7.898  19.483  0.00  0.00    +0.000 N 
ATOM      2  C   UNL     1       2.888   7.422  18.378  0.00  0.00    +0.000 C 
ATOM      3  O   UNL     1       2.676   7.772  17.219  0.00  0.00    +0.000 OA
ATOM      4  N   UNL     1       3.805   6.441  18.757  0.00  0.00    +0.000 N 
ATOM      5  H   UNL     1       2.689   7.886  20.362  0.00  0.00    +0.000 HD
ATOM      6  H   UNL     1       3.450   5.840  19.487  0.00  0.00    +0.000 HD
ENDROOT
BRANCH   4   7
ATOM      7  C   UNL     1       4.613   5.795  17.788  0.00  0.00    +0.000 A 
ATOM      8  C   UNL     1       5.830   6.380  17.411  0.00  0.00    +0.000 A 
ATOM      9  C   UNL     1       6.676   5.744  16.498  0.00  0.00    +0.000 A 
ATOM     10  C   UNL     1       6.311   4.517  15.950  0.00  0.00    +0.000 A 
ATOM     11  C   UNL     1       5.100   3.929  16.307  0.00  0.00    +0.000 A 
ATOM     12  C   UNL     1       4.237   4.568  17.209  0.00  0.00    +0.000 A 
BRANCH  12  13
ATOM     13  O   UNL     1       3.070   3.884  17.473  0.00  0.00    +0.000 OA
BRANCH  13  14
ATOM     14  C   UNL     1       2.688   3.618  18.770  0.00  0.00    +0.000 A 
ATOM     15  C   UNL     1       3.475   2.985  19.733  0.00  0.00    +0.000 A 
ATOM     16  C   UNL     1       2.911   2.597  20.951  0.00  0.00    +0.000 A 
ATOM     17  C   UNL     1       1.590   2.926  21.246  0.00  0.00    +0.000 A 
ATOM     18  C   UNL     1       0.835   3.657  20.331  0.00  0.00    +0.000 A 
ATOM     19  C   UNL     1       1.381   3.996  19.092  0.00  0.00    +0.000 A 
ENDBRANCH  13  14
ENDBRANCH  12  13
ENDBRANCH   4   7
BRANCH   1  22
ATOM     20  C   UNL     1       0.603   8.750  21.706  0.00  0.00    +0.000 C 
ATOM     21  C   UNL     1       0.526   9.289  20.292  0.00  0.00    +0.000 C 
ATOM     22  N   UNL     1       1.234   8.850  19.292  0.00  0.00    +0.000 NA
BRANCH  21  23
ATOM     23  C   UNL     1      -0.452  10.405  20.017  0.00  0.00    +0.000 A 
ATOM     24  C   UNL     1      -0.621  11.413  20.981  0.00  0.00    +0.000 A 
ATOM     25  C   UNL     1      -1.560  12.436  20.797  0.00  0.00    +0.000 A 
ATOM     26  C   UNL     1      -2.345  12.461  19.647  0.00  0.00    +0.000 A 
ATOM     27  C   UNL     1      -2.175  11.468  18.677  0.00  0.00    +0.000 A 
ATOM     28  C   UNL     1      -1.225  10.443  18.850  0.00  0.00    +0.000 A 
BRANCH  27  29
ATOM     29  N   UNL     1      -3.009  11.480  17.471  0.00  0.00    +0.000 N 
ATOM     30  O   UNL     1      -4.223  11.724  17.604  0.00  0.00    +0.000 OA
ATOM     31  O   UNL     1      -2.460  11.248  16.386  0.00  0.00    +0.000 OA
ENDBRANCH  27  29
ENDBRANCH  21  23
ENDBRANCH   1  22
TORSDOF 6
ENDMDL
MODEL 9
REMARK VINA RESULT:      -8.2      1.413      1.987
REMARK  Name = 
REMARK  7 active torsions:
REMARK  status: ('A' for Active; 'I' for Inactive)
REMARK    1  A    between atoms: C_1  and  C_2
REMARK    2  A    between atoms: C_2  and  C_21
REMARK    3  A    between atoms: N_3  and  N_4
REMARK    4  A    between atoms: N_7  and  C_8
REMARK    5  A    between atoms: C_13  and  O_14
REMARK    6  A    between atoms: O_14  and  C_15
REMARK    7  A    between atoms: C_25  and  N_26
REMARK                            x       y       z     vdW  Elec       q    Type
REMARK                         _______ _______ _______ _____ _____    ______ ____
ROOT
ATOM      1  N   UNL     1       1.327   8.829  20.988  0.00  0.00    +0.000 N 
ATOM      2  C   UNL     1       0.097   9.315  21.426  0.00  0.00    +0.000 C 
ATOM      3  O   UNL     1      -0.857   8.607  21.735  0.00  0.00    +0.000 OA
ATOM      4  N   UNL     1       0.074  10.709  21.390  0.00  0.00    +0.000 N 
ATOM      5  H   UNL     1       2.125   9.424  21.167  0.00  0.00    +0.000 HD
ATOM      6  H   UNL     1       0.565  11.085  20.591  0.00  0.00    +0.000 HD
ENDROOT
BRANCH   4   7
ATOM      7  C   UNL     1      -1.090  11.422  21.769  0.00  0.00    +0.000 A 
ATOM      8  C   UNL     1      -1.525  11.366  23.101  0.00  0.00    +0.000 A 
ATOM      9  C   UNL     1      -2.639  12.099  23.521  0.00  0.00    +0.000 A 
ATOM     10  C   UNL     1      -3.333  12.892  22.611  0.00  0.00    +0.000 A 
ATOM     11  C   UNL     1      -2.919  12.950  21.282  0.00  0.00    +0.000 A 
ATOM     12  C   UNL     1      -1.812  12.204  20.848  0.00  0.00    +0.000 A 
BRANCH  12  13
ATOM     13  O   UNL     1      -1.513  12.345  19.511  0.00  0.00    +0.000 OA
BRANCH  13  14
ATOM     14  C   UNL     1      -1.993  11.443  18.585  0.00  0.00    +0.000 A 
ATOM     15  C   UNL     1      -1.254  10.421  17.989  0.00  0.00    +0.000 A 
ATOM     16  C   UNL     1      -1.795   9.697  16.924  0.00  0.00    +0.000 A 
ATOM     17  C   UNL     1      -3.107   9.928  16.516  0.00  0.00    +0.000 A 
ATOM     18  C   UNL     1      -3.885  10.873  17.182  0.00  0.00    +0.000 A 
ATOM     19  C   UNL     1      -3.327  11.634  18.210  0.00  0.00    +0.000 A 
ENDBRANCH  13  14
ENDBRANCH  12  13
ENDBRANCH   4   7
BRANCH   1  22
ATOM     20  C   UNL     1       2.411   7.660  18.614  0.00  0.00    +0.000 C 
ATOM     21  C   UNL     1       2.049   6.926  19.889  0.00  0.00    +0.000 C 
ATOM     22  N   UNL     1       1.518   7.482  20.939  0.00  0.00    +0.000 NA
BRANCH  21  23
ATOM     23  C   UNL     1       2.307   5.440  19.943  0.00  0.00    +0.000 A 
ATOM     24  C   UNL     1       2.015   4.742  21.127  0.00  0.00    +0.000 A 
ATOM     25  C   UNL     1       2.292   3.375  21.245  0.00  0.00    +0.000 A 
ATOM     26  C   UNL     1       2.869   2.687  20.180  0.00  0.00    +0.000 A 
ATOM     27  C   UNL     1       3.151   3.372  18.993  0.00  0.00    +0.000 A 
ATOM     28  C   UNL     1       2.866   4.744  18.864  0.00  0.00    +0.000 A 
BRANCH  27  29
ATOM     29  N   UNL     1       3.773   2.657  17.873  0.00  0.00    +0.000 N 
ATOM     30  O   UNL     1       4.272   3.334  16.954  0.00  0.00    +0.000 OA
ATOM     31  O   UNL     1       3.768   1.419  17.903  0.00  0.00    +0.000 OA
ENDBRANCH  27  29
ENDBRANCH  21  23
ENDBRANCH   1  22
TORSDOF 6
ENDMDL
