MODEL 1
REMARK VINA RESULT:      -9.1      0.000      0.000
REMARK  Name = 
REMARK  6 active torsions:
REMARK  status: ('A' for Active; 'I' for Inactive)
REMARK    1  A    between atoms: C_1  and  O_2
REMARK    2  A    between atoms: O_2  and  C_3
REMARK    3  A    between atoms: C_6  and  N_7
REMARK    4  A    between atoms: C_8  and  C_10
REMARK    5  A    between atoms: C_22  and  S_23
REMARK    6  A    between atoms: S_23  and  N_26
REMARK                            x       y       z     vdW  Elec       q    Type
REMARK                         _______ _______ _______ _____ _____    ______ ____
ROOT
ATOM      1  C   UNL     1      -0.599  10.295  21.490  0.00  0.00    +0.000 A 
ATOM      2  C   UNL     1      -0.284   9.206  22.305  0.00  0.00    +0.000 A 
ATOM      3  C   UNL     1       0.676   8.235  21.921  0.00  0.00    +0.000 A 
ATOM      4  C   UNL     1       1.395   8.275  20.710  0.00  0.00    +0.000 A 
ATOM      5  C   UNL     1       1.013   9.350  19.864  0.00  0.00    +0.000 A 
ATOM      6  C   UNL     1       0.017  10.354  20.246  0.00  0.00    +0.000 A 
ENDROOT
BRANCH   4   7
ATOM      7  N   UNL     1       2.469   7.286  20.341  0.00  0.00    +0.000 N 
ATOM      8  C   UNL     1       2.766   6.897  19.029  0.00  0.00    +0.000 C 
ATOM      9  O   UNL     1       2.140   7.456  18.115  0.00  0.00    +0.000 OA
ATOM     10  H   UNL     1       2.985   6.874  21.106  0.00  0.00    +0.000 HD
BRANCH   8  11
ATOM     11  C   UNL     1       3.777   5.806  18.524  0.00  0.00    +0.000 A 
ATOM     12  C   UNL     1       3.642   4.721  19.336  0.00  0.00    +0.000 A 
ATOM     13  C   UNL     1       4.538   3.564  19.198  0.00  0.00    +0.000 A 
ATOM     14  O   UNL     1       4.127   2.418  19.123  0.00  0.00    +0.000 OA
ATOM     15  N   UNL     1       5.850   3.978  19.106  0.00  0.00    +0.000 N 
ATOM     16  C   UNL     1       6.016   4.773  17.943  0.00  0.00    +0.000 A 
ATOM     17  C   UNL     1       7.109   4.380  17.156  0.00  0.00    +0.000 A 
ATOM     18  C   UNL     1       7.104   4.709  15.816  0.00  0.00    +0.000 A 
ATOM     19  C   UNL     1       6.013   5.418  15.313  0.00  0.00    +0.000 A 
ATOM     20  C   UNL     1       4.941   5.888  16.144  0.00  0.00    +0.000 A 
ATOM     21  C   UNL     1       4.917   5.614  17.518  0.00  0.00    +0.000 A 
ATOM     22  H   UNL     1       6.060   4.575  19.901  0.00  0.00    +0.000 HD
ENDBRANCH   8  11
ENDBRANCH   4   7
BRANCH   6  23
ATOM     23  S   UNL     1      -0.361  11.643  19.058  0.00  0.00    +0.000 S 
ATOM     24  O   UNL     1      -0.587  12.833  19.851  0.00  0.00    +0.000 OA
ATOM     25  O   UNL     1       0.763  11.614  18.117  0.00  0.00    +0.000 OA
BRANCH  23  26
ATOM     26  N   UNL     1      -1.800  11.362  18.140  0.00  0.00    +0.000 NA
ATOM     27  C   UNL     1      -3.084  11.871  18.680  0.00  0.00    +0.000 C 
ATOM     28  C   UNL     1      -4.357  11.587  17.871  0.00  0.00    +0.000 C 
ATOM     29  C   UNL     1      -4.154  10.995  16.492  0.00  0.00    +0.000 C 
ATOM     30  C   UNL     1      -3.137   9.878  16.570  0.00  0.00    +0.000 C 
ATOM     31  C   UNL     1      -1.770  10.354  17.061  0.00  0.00    +0.000 C 
ENDBRANCH  23  26
ENDBRANCH   6  23
BRANCH   1  33
ATOM     32  C   UNL     1      -1.668  11.411  23.281  0.00  0.00    +0.000 C 
ATOM     33  O   UNL     1      -1.514  11.232  21.871  0.00  0.00    +0.000 OA
ENDBRANCH   1  33
TORSDOF 5
ENDMDL
MODEL 2
REMARK VINA RESULT:      -8.9      1.244      1.735
REMARK  Name = 
REMARK  6 active torsions:
REMARK  status: ('A' for Active; 'I' for Inactive)
REMARK    1  A    between atoms: C_1  and  O_2
REMARK    2  A    between atoms: O_2  and  C_3
REMARK    3  A    between atoms: C_6  and  N_7
REMARK    4  A    between atoms: C_8  and  C_10
REMARK    5  A    between atoms: C_22  and  S_23
REMARK    6  A    between atoms: S_23  and  N_26
REMARK                            x       y       z     vdW  Elec       q    Type
REMARK                         _______ _______ _______ _____ _____    ______ ____
ROOT
ATOM      1  C   UNL     1      -0.605  10.790  21.131  0.00  0.00    +0.000 A 
ATOM      2  C   UNL     1       0.160   9.843  21.814  0.00  0.00    +0.000 A 
ATOM      3  C   UNL     1       1.026   8.947  21.134  0.00  0.00    +0.000 A 
ATOM      4  C   UNL     1       1.199   8.928  19.736  0.00  0.00    +0.000 A 
ATOM      5  C   UNL     1       0.363   9.851  19.053  0.00  0.00    +0.000 A 
ATOM      6  C   UNL     1      -0.541  10.775  19.744  0.00  0.00    +0.000 A 
ENDROOT
BRANCH   4   7
ATOM      7  N   UNL     1       2.176   8.029  19.026  0.00  0.00    +0.000 N 
ATOM      8  C   UNL     1       2.486   6.725  19.431  0.00  0.00    +0.000 C 
ATOM      9  O   UNL     1       1.861   6.267  20.401  0.00  0.00    +0.000 OA
ATOM     10  H   UNL     1       2.643   8.419  18.219  0.00  0.00    +0.000 HD
BRANCH   8  11
ATOM     11  C   UNL     1       3.555   5.733  18.848  0.00  0.00    +0.000 A 
ATOM     12  C   UNL     1       3.465   4.575  19.559  0.00  0.00    +0.000 A 
ATOM     13  C   UNL     1       4.418   3.479  19.334  0.00  0.00    +0.000 A 
ATOM     14  O   UNL     1       4.065   2.326  19.152  0.00  0.00    +0.000 OA
ATOM     15  N   UNL     1       5.709   3.963  19.299  0.00  0.00    +0.000 N 
ATOM     16  C   UNL     1       5.849   4.865  18.213  0.00  0.00    +0.000 A 
ATOM     17  C   UNL     1       6.968   4.596  17.412  0.00  0.00    +0.000 A 
ATOM     18  C   UNL     1       6.962   5.042  16.106  0.00  0.00    +0.000 A 
ATOM     19  C   UNL     1       5.843   5.739  15.651  0.00  0.00    +0.000 A 
ATOM     20  C   UNL     1       4.740   6.082  16.503  0.00  0.00    +0.000 A 
ATOM     21  C   UNL     1       4.714   5.686  17.847  0.00  0.00    +0.000 A 
ATOM     22  H   UNL     1       5.881   4.497  20.147  0.00  0.00    +0.000 HD
ENDBRANCH   8  11
ENDBRANCH   4   7
BRANCH   6  23
ATOM     23  S   UNL     1      -1.538  11.870  18.733  0.00  0.00    +0.000 S 
ATOM     24  O   UNL     1      -1.104  13.206  19.083  0.00  0.00    +0.000 OA
ATOM     25  O   UNL     1      -1.337  11.389  17.363  0.00  0.00    +0.000 OA
BRANCH  23  26
ATOM     26  N   UNL     1      -3.236  11.786  19.058  0.00  0.00    +0.000 NA
ATOM     27  C   UNL     1      -4.097  11.060  18.094  0.00  0.00    +0.000 C 
ATOM     28  C   UNL     1      -5.605  11.021  18.378  0.00  0.00    +0.000 C 
ATOM     29  C   UNL     1      -6.043  11.548  19.728  0.00  0.00    +0.000 C 
ATOM     30  C   UNL     1      -5.334  12.852  20.012  0.00  0.00    +0.000 C 
ATOM     31  C   UNL     1      -3.814  12.703  20.060  0.00  0.00    +0.000 C 
ENDBRANCH  23  26
ENDBRANCH   6  23
BRANCH   1  33
ATOM     32  C   UNL     1      -0.768  12.686  22.536  0.00  0.00    +0.000 C 
ATOM     33  O   UNL     1      -1.424  11.658  21.792  0.00  0.00    +0.000 OA
ENDBRANCH   1  33
TORSDOF 5
ENDMDL
MODEL 3
REMARK VINA RESULT:      -8.8      2.714      9.141
REMARK  Name = 
REMARK  6 active torsions:
REMARK  status: ('A' for Active; 'I' for Inactive)
REMARK    1  A    between atoms: C_1  and  O_2
REMARK    2  A    between atoms: O_2  and  C_3
REMARK    3  A    between atoms: C_6  and  N_7
REMARK    4  A    between atoms: C_8  and  C_10
REMARK    5  A    between atoms: C_22  and  S_23
REMARK    6  A    between atoms: S_23  and  N_26
REMARK                            x       y       z     vdW  Elec       q    Type
REMARK                         _______ _______ _______ _____ _____    ______ ____
ROOT
ATOM      1  C   UNL     1       5.522   5.310  16.569  0.00  0.00    +0.000 A 
ATOM      2  C   UNL     1       5.449   6.555  15.940  0.00  0.00    +0.000 A 
ATOM      3  C   UNL     1       4.509   7.541  16.335  0.00  0.00    +0.000 A 
ATOM      4  C   UNL     1       3.581   7.369  17.380  0.00  0.00    +0.000 A 
ATOM      5  C   UNL     1       3.622   6.074  17.963  0.00  0.00    +0.000 A 
ATOM      6  C   UNL     1       4.583   5.045  17.558  0.00  0.00    +0.000 A 
ENDROOT
BRANCH   4   7
ATOM      7  N   UNL     1       2.638   8.447  17.848  0.00  0.00    +0.000 N 
ATOM      8  C   UNL     1       1.919   8.399  19.049  0.00  0.00    +0.000 C 
ATOM      9  O   UNL     1       2.129   7.433  19.799  0.00  0.00    +0.000 OA
ATOM     10  H   UNL     1       2.515   9.237  17.231  0.00  0.00    +0.000 HD
BRANCH   8  11
ATOM     11  C   UNL     1       0.834   9.395  19.595  0.00  0.00    +0.000 A 
ATOM     12  C   UNL     1       0.267  10.007  18.518  0.00  0.00    +0.000 A 
ATOM     13  C   UNL     1      -0.711  11.088  18.697  0.00  0.00    +0.000 A 
ATOM     14  O   UNL     1      -1.788  11.106  18.124  0.00  0.00    +0.000 OA
ATOM     15  N   UNL     1      -0.256  12.000  19.627  0.00  0.00    +0.000 N 
ATOM     16  C   UNL     1      -0.107  11.361  20.885  0.00  0.00    +0.000 A 
ATOM     17  C   UNL     1      -0.713  12.064  21.937  0.00  0.00    +0.000 A 
ATOM     18  C   UNL     1      -1.073  11.366  23.071  0.00  0.00    +0.000 A 
ATOM     19  C   UNL     1      -0.814   9.996  23.113  0.00  0.00    +0.000 A 
ATOM     20  C   UNL     1      -0.118   9.303  22.067  0.00  0.00    +0.000 A 
ATOM     21  C   UNL     1       0.303   9.973  20.911  0.00  0.00    +0.000 A 
ATOM     22  H   UNL     1       0.669  12.317  19.349  0.00  0.00    +0.000 HD
ENDBRANCH   8  11
ENDBRANCH   4   7
BRANCH   6  23
ATOM     23  S   UNL     1       4.495   3.457  18.386  0.00  0.00    +0.000 S 
ATOM     24  O   UNL     1       4.447   2.478  17.320  0.00  0.00    +0.000 OA
ATOM     25  O   UNL     1       5.638   3.458  19.303  0.00  0.00    +0.000 OA
BRANCH  23  26
ATOM     26  N   UNL     1       3.072   3.235  19.345  0.00  0.00    +0.000 NA
ATOM     27  C   UNL     1       3.240   2.833  20.762  0.00  0.00    +0.000 C 
ATOM     28  C   UNL     1       1.969   2.608  21.592  0.00  0.00    +0.000 C 
ATOM     29  C   UNL     1       0.665   3.023  20.942  0.00  0.00    +0.000 C 
ATOM     30  C   UNL     1       0.638   2.529  19.514  0.00  0.00    +0.000 C 
ATOM     31  C   UNL     1       1.768   3.108  18.664  0.00  0.00    +0.000 C 
ENDBRANCH  23  26
ENDBRANCH   6  23
BRANCH   1  33
ATOM     32  C   UNL     1       6.891   4.454  14.841  0.00  0.00    +0.000 C 
ATOM     33  O   UNL     1       6.437   4.371  16.193  0.00  0.00    +0.000 OA
ENDBRANCH   1  33
TORSDOF 5
ENDMDL
MODEL 4
REMARK VINA RESULT:      -8.8      3.120      9.485
REMARK  Name = 
REMARK  6 active torsions:
REMARK  status: ('A' for Active; 'I' for Inactive)
REMARK    1  A    between atoms: C_1  and  O_2
REMARK    2  A    between atoms: O_2  and  C_3
REMARK    3  A    between atoms: C_6  and  N_7
REMARK    4  A    between atoms: C_8  and  C_10
REMARK    5  A    between atoms: C_22  and  S_23
REMARK    6  A    between atoms: S_23  and  N_26
REMARK                            x       y       z     vdW  Elec       q    Type
REMARK                         _______ _______ _______ _____ _____    ______ ____
ROOT
ATOM      1  C   UNL     1       3.961   4.682  17.819  0.00  0.00    +0.000 A 
ATOM      2  C   UNL     1       2.705   4.907  18.384  0.00  0.00    +0.000 A 
ATOM      3  C   UNL     1       2.107   6.194  18.398  0.00  0.00    +0.000 A 
ATOM      4  C   UNL     1       2.706   7.345  17.850  0.00  0.00    +0.000 A 
ATOM      5  C   UNL     1       4.012   7.112  17.341  0.00  0.00    +0.000 A 
ATOM      6  C   UNL     1       4.642   5.790  17.328  0.00  0.00    +0.000 A 
ENDROOT
BRANCH   4   7
ATOM      7  N   UNL     1       2.036   8.692  17.797  0.00  0.00    +0.000 N 
ATOM      8  C   UNL     1       1.369   9.284  18.877  0.00  0.00    +0.000 C 
ATOM      9  O   UNL     1       1.393   8.680  19.961  0.00  0.00    +0.000 OA
ATOM     10  H   UNL     1       2.064   9.175  16.910  0.00  0.00    +0.000 HD
BRANCH   8  11
ATOM     11  C   UNL     1       0.544  10.621  18.921  0.00  0.00    +0.000 A 
ATOM     12  C   UNL     1      -0.652  10.379  18.317  0.00  0.00    +0.000 A 
ATOM     13  C   UNL     1      -1.613  11.468  18.090  0.00  0.00    +0.000 A 
ATOM     14  O   UNL     1      -2.789  11.385  18.403  0.00  0.00    +0.000 OA
ATOM     15  N   UNL     1      -0.977  12.567  17.551  0.00  0.00    +0.000 N 
ATOM     16  C   UNL     1      -0.008  13.051  18.468  0.00  0.00    +0.000 A 
ATOM     17  C   UNL     1      -0.099  14.434  18.689  0.00  0.00    +0.000 A 
ATOM     18  C   UNL     1       0.411  14.945  19.864  0.00  0.00    +0.000 A 
ATOM     19  C   UNL     1       0.993  14.060  20.772  0.00  0.00    +0.000 A 
ATOM     20  C   UNL     1       1.156  12.660  20.499  0.00  0.00    +0.000 A 
ATOM     21  C   UNL     1       0.690  12.097  19.304  0.00  0.00    +0.000 A 
ATOM     22  H   UNL     1      -0.472  12.277  16.719  0.00  0.00    +0.000 HD
ENDBRANCH   8  11
ENDBRANCH   4   7
BRANCH   6  23
ATOM     23  S   UNL     1       6.301   5.668  16.659  0.00  0.00    +0.000 S 
ATOM     24  O   UNL     1       6.756   7.036  16.527  0.00  0.00    +0.000 OA
ATOM     25  O   UNL     1       7.003   4.768  17.580  0.00  0.00    +0.000 OA
BRANCH  23  26
ATOM     26  N   UNL     1       6.381   4.951  15.087  0.00  0.00    +0.000 NA
ATOM     27  C   UNL     1       7.446   5.409  14.163  0.00  0.00    +0.000 C 
ATOM     28  C   UNL     1       7.485   4.787  12.760  0.00  0.00    +0.000 C 
ATOM     29  C   UNL     1       6.560   3.612  12.525  0.00  0.00    +0.000 C 
ATOM     30  C   UNL     1       5.193   3.928  13.088  0.00  0.00    +0.000 C 
ATOM     31  C   UNL     1       5.217   4.187  14.594  0.00  0.00    +0.000 C 
ENDBRANCH  23  26
ENDBRANCH   6  23
BRANCH   1  33
ATOM     32  C   UNL     1       3.610   2.344  17.878  0.00  0.00    +0.000 C 
ATOM     33  O   UNL     1       4.524   3.440  17.796  0.00  0.00    +0.000 OA
ENDBRANCH   1  33
TORSDOF 5
ENDMDL
MODEL 5
REMARK VINA RESULT:      -8.7      1.119      1.287
REMARK  Name = 
REMARK  6 active torsions:
REMARK  status: ('A' for Active; 'I' for Inactive)
REMARK    1  A    between atoms: C_1  and  O_2
REMARK    2  A    between atoms: O_2  and  C_3
REMARK    3  A    between atoms: C_6  and  N_7
REMARK    4  A    between atoms: C_8  and  C_10
REMARK    5  A    between atoms: C_22  and  S_23
REMARK    6  A    between atoms: S_23  and  N_26
REMARK                            x       y       z     vdW  Elec       q    Type
REMARK                         _______ _______ _______ _____ _____    ______ ____
ROOT
ATOM      1  C   UNL     1      -0.899  11.287  22.208  0.00  0.00    +0.000 A 
ATOM      2  C   UNL     1      -0.556  10.262  23.091  0.00  0.00    +0.000 A 
ATOM      3  C   UNL     1       0.208   9.140  22.678  0.00  0.00    +0.000 A 
ATOM      4  C   UNL     1       0.690   8.956  21.367  0.00  0.00    +0.000 A 
ATOM      5  C   UNL     1       0.275   9.973  20.467  0.00  0.00    +0.000 A 
ATOM      6  C   UNL     1      -0.521  11.131  20.880  0.00  0.00    +0.000 A 
ENDROOT
BRANCH   4   7
ATOM      7  N   UNL     1       1.566   7.804  20.952  0.00  0.00    +0.000 N 
ATOM      8  C   UNL     1       2.105   7.645  19.669  0.00  0.00    +0.000 C 
ATOM      9  O   UNL     1       1.894   8.551  18.848  0.00  0.00    +0.000 OA
ATOM     10  H   UNL     1       1.749   7.100  21.654  0.00  0.00    +0.000 HD
BRANCH   8  11
ATOM     11  C   UNL     1       2.936   6.447  19.084  0.00  0.00    +0.000 A 
ATOM     12  C   UNL     1       2.486   5.310  19.685  0.00  0.00    +0.000 A 
ATOM     13  C   UNL     1       3.143   4.020  19.438  0.00  0.00    +0.000 A 
ATOM     14  O   UNL     1       2.526   3.013  19.133  0.00  0.00    +0.000 OA
ATOM     15  N   UNL     1       4.513   4.149  19.541  0.00  0.00    +0.000 N 
ATOM     16  C   UNL     1       4.980   5.050  18.550  0.00  0.00    +0.000 A 
ATOM     17  C   UNL     1       6.064   4.548  17.814  0.00  0.00    +0.000 A 
ATOM     18  C   UNL     1       6.295   5.061  16.554  0.00  0.00    +0.000 A 
ATOM     19  C   UNL     1       5.439   6.055  16.078  0.00  0.00    +0.000 A 
ATOM     20  C   UNL     1       4.386   6.620  16.872  0.00  0.00    +0.000 A 
ATOM     21  C   UNL     1       4.133   6.162  18.172  0.00  0.00    +0.000 A 
ATOM     22  H   UNL     1       4.735   4.565  20.442  0.00  0.00    +0.000 HD
ENDBRANCH   8  11
ENDBRANCH   4   7
BRANCH   6  23
ATOM     23  S   UNL     1      -0.973  12.320  19.616  0.00  0.00    +0.000 S 
ATOM     24  O   UNL     1      -1.042  13.593  20.303  0.00  0.00    +0.000 OA
ATOM     25  O   UNL     1       0.027  12.132  18.561  0.00  0.00    +0.000 OA
BRANCH  23  26
ATOM     26  N   UNL     1      -2.525  12.043  18.903  0.00  0.00    +0.000 NA
ATOM     27  C   UNL     1      -3.729  12.443  19.671  0.00  0.00    +0.000 C 
ATOM     28  C   UNL     1      -5.099  12.161  19.041  0.00  0.00    +0.000 C 
ATOM     29  C   UNL     1      -5.088  11.693  17.601  0.00  0.00    +0.000 C 
ATOM     30  C   UNL     1      -4.031  10.626  17.428  0.00  0.00    +0.000 C 
ATOM     31  C   UNL     1      -2.623  11.128  17.749  0.00  0.00    +0.000 C 
ENDBRANCH  23  26
ENDBRANCH   6  23
BRANCH   1  33
ATOM     32  C   UNL     1      -2.843  12.078  23.298  0.00  0.00    +0.000 C 
ATOM     33  O   UNL     1      -1.622  12.370  22.615  0.00  0.00    +0.000 OA
ENDBRANCH   1  33
TORSDOF 5
ENDMDL
MODEL 6
REMARK VINA RESULT:      -8.7      3.000      9.146
REMARK  Name = 
REMARK  6 active torsions:
REMARK  status: ('A' for Active; 'I' for Inactive)
REMARK    1  A    between atoms: C_1  and  O_2
REMARK    2  A    between atoms: O_2  and  C_3
REMARK    3  A    between atoms: C_6  and  N_7
REMARK    4  A    between atoms: C_8  and  C_10
REMARK    5  A    between atoms: C_22  and  S_23
REMARK    6  A    between atoms: S_23  and  N_26
REMARK                            x       y       z     vdW  Elec       q    Type
REMARK                         _______ _______ _______ _____ _____    ______ ____
ROOT
ATOM      1  C   UNL     1       2.224   3.745  19.975  0.00  0.00    +0.000 A 
ATOM      2  C   UNL     1       1.153   4.351  20.632  0.00  0.00    +0.000 A 
ATOM      3  C   UNL     1       1.024   5.762  20.714  0.00  0.00    +0.000 A 
ATOM      4  C   UNL     1       1.942   6.670  20.150  0.00  0.00    +0.000 A 
ATOM      5  C   UNL     1       3.060   6.037  19.545  0.00  0.00    +0.000 A 
ATOM      6  C   UNL     1       3.208   4.582  19.461  0.00  0.00    +0.000 A 
ENDROOT
BRANCH   4   7
ATOM      7  N   UNL     1       1.761   8.164  20.172  0.00  0.00    +0.000 N 
ATOM      8  C   UNL     1       0.717   8.823  20.833  0.00  0.00    +0.000 C 
ATOM      9  O   UNL     1      -0.068   8.124  21.494  0.00  0.00    +0.000 OA
ATOM     10  H   UNL     1       2.436   8.708  19.653  0.00  0.00    +0.000 HD
BRANCH   8  11
ATOM     11  C   UNL     1       0.358  10.352  20.843  0.00  0.00    +0.000 A 
ATOM     12  C   UNL     1      -0.303  10.607  22.007  0.00  0.00    +0.000 A 
ATOM     13  C   UNL     1      -0.881  11.932  22.269  0.00  0.00    +0.000 A 
ATOM     14  O   UNL     1      -0.690  12.541  23.308  0.00  0.00    +0.000 OA
ATOM     15  N   UNL     1      -1.585  12.376  21.169  0.00  0.00    +0.000 N 
ATOM     16  C   UNL     1      -0.704  12.517  20.067  0.00  0.00    +0.000 A 
ATOM     17  C   UNL     1      -0.821  13.757  19.421  0.00  0.00    +0.000 A 
ATOM     18  C   UNL     1       0.253  14.219  18.689  0.00  0.00    +0.000 A 
ATOM     19  C   UNL     1       1.401  13.428  18.627  0.00  0.00    +0.000 A 
ATOM     20  C   UNL     1       1.479  12.123  19.221  0.00  0.00    +0.000 A 
ATOM     21  C   UNL     1       0.402  11.591  19.943  0.00  0.00    +0.000 A 
ATOM     22  H   UNL     1      -2.267  11.668  20.910  0.00  0.00    +0.000 HD
ENDBRANCH   8  11
ENDBRANCH   4   7
BRANCH   6  23
ATOM     23  S   UNL     1       4.687   3.942  18.675  0.00  0.00    +0.000 S 
ATOM     24  O   UNL     1       5.277   3.050  19.652  0.00  0.00    +0.000 OA
ATOM     25  O   UNL     1       4.216   3.393  17.400  0.00  0.00    +0.000 OA
BRANCH  23  26
ATOM     26  N   UNL     1       5.872   5.147  18.305  0.00  0.00    +0.000 NA
ATOM     27  C   UNL     1       6.130   5.458  16.878  0.00  0.00    +0.000 C 
ATOM     28  C   UNL     1       7.207   6.506  16.564  0.00  0.00    +0.000 C 
ATOM     29  C   UNL     1       7.755   7.276  17.748  0.00  0.00    +0.000 C 
ATOM     30  C   UNL     1       8.054   6.315  18.876  0.00  0.00    +0.000 C 
ATOM     31  C   UNL     1       6.813   5.567  19.362  0.00  0.00    +0.000 C 
ENDBRANCH  23  26
ENDBRANCH   6  23
BRANCH   1  33
ATOM     32  C   UNL     1       1.528   1.764  18.886  0.00  0.00    +0.000 C 
ATOM     33  O   UNL     1       2.335   2.388  19.887  0.00  0.00    +0.000 OA
ENDBRANCH   1  33
TORSDOF 5
ENDMDL
MODEL 7
REMARK VINA RESULT:      -8.7      2.757      3.534
REMARK  Name = 
REMARK  6 active torsions:
REMARK  status: ('A' for Active; 'I' for Inactive)
REMARK    1  A    between atoms: C_1  and  O_2
REMARK    2  A    between atoms: O_2  and  C_3
REMARK    3  A    between atoms: C_6  and  N_7
REMARK    4  A    between atoms: C_8  and  C_10
REMARK    5  A    between atoms: C_22  and  S_23
REMARK    6  A    between atoms: S_23  and  N_26
REMARK                            x       y       z     vdW  Elec       q    Type
REMARK                         _______ _______ _______ _____ _____    ______ ____
ROOT
ATOM      1  C   UNL     1      -0.673  11.588  18.986  0.00  0.00    +0.000 A 
ATOM      2  C   UNL     1      -1.038  10.461  18.248  0.00  0.00    +0.000 A 
ATOM      3  C   UNL     1      -0.083   9.504  17.818  0.00  0.00    +0.000 A 
ATOM      4  C   UNL     1       1.296   9.591  18.092  0.00  0.00    +0.000 A 
ATOM      5  C   UNL     1       1.659  10.777  18.784  0.00  0.00    +0.000 A 
ATOM      6  C   UNL     1       0.683  11.776  19.226  0.00  0.00    +0.000 A 
ENDROOT
BRANCH   4   7
ATOM      7  N   UNL     1       2.295   8.534  17.702  0.00  0.00    +0.000 N 
ATOM      8  C   UNL     1       2.648   7.446  18.511  0.00  0.00    +0.000 C 
ATOM      9  O   UNL     1       2.047   7.320  19.589  0.00  0.00    +0.000 OA
ATOM     10  H   UNL     1       2.742   8.646  16.803  0.00  0.00    +0.000 HD
BRANCH   8  11
ATOM     11  C   UNL     1       3.743   6.346  18.269  0.00  0.00    +0.000 A 
ATOM     12  C   UNL     1       3.667   5.463  19.303  0.00  0.00    +0.000 A 
ATOM     13  C   UNL     1       4.643   4.373  19.434  0.00  0.00    +0.000 A 
ATOM     14  O   UNL     1       4.314   3.212  19.617  0.00  0.00    +0.000 OA
ATOM     15  N   UNL     1       5.925   4.850  19.258  0.00  0.00    +0.000 N 
ATOM     16  C   UNL     1       6.060   5.374  17.947  0.00  0.00    +0.000 A 
ATOM     17  C   UNL     1       7.194   4.894  17.275  0.00  0.00    +0.000 A 
ATOM     18  C   UNL     1       7.196   4.914  15.895  0.00  0.00    +0.000 A 
ATOM     19  C   UNL     1       6.069   5.411  15.240  0.00  0.00    +0.000 A 
ATOM     20  C   UNL     1       4.950   5.977  15.938  0.00  0.00    +0.000 A 
ATOM     21  C   UNL     1       4.915   6.017  17.338  0.00  0.00    +0.000 A 
ATOM     22  H   UNL     1       6.076   5.624  19.900  0.00  0.00    +0.000 HD
ENDBRANCH   8  11
ENDBRANCH   4   7
BRANCH   6  23
ATOM     23  S   UNL     1       1.307  13.225  20.079  0.00  0.00    +0.000 S 
ATOM     24  O   UNL     1       0.861  13.077  21.449  0.00  0.00    +0.000 OA
ATOM     25  O   UNL     1       2.744  13.229  19.791  0.00  0.00    +0.000 OA
BRANCH  23  26
ATOM     26  N   UNL     1       0.666  14.723  19.494  0.00  0.00    +0.000 NA
ATOM     27  C   UNL     1       1.548  15.587  18.673  0.00  0.00    +0.000 C 
ATOM     28  C   UNL     1       0.977  16.927  18.189  0.00  0.00    +0.000 C 
ATOM     29  C   UNL     1      -0.504  17.144  18.420  0.00  0.00    +0.000 C 
ATOM     30  C   UNL     1      -0.858  16.727  19.829  0.00  0.00    +0.000 C 
ATOM     31  C   UNL     1      -0.574  15.249  20.099  0.00  0.00    +0.000 C 
ENDBRANCH  23  26
ENDBRANCH   6  23
BRANCH   1  33
ATOM     32  C   UNL     1      -2.964  12.109  19.254  0.00  0.00    +0.000 C 
ATOM     33  O   UNL     1      -1.598  12.498  19.408  0.00  0.00    +0.000 OA
ENDBRANCH   1  33
TORSDOF 5
ENDMDL
MODEL 8
REMARK VINA RESULT:      -8.7      2.966      9.538
REMARK  Name = 
REMARK  6 active torsions:
REMARK  status: ('A' for Active; 'I' for Inactive)
REMARK    1  A    between atoms: C_1  and  O_2
REMARK    2  A    between atoms: O_2  and  C_3
REMARK    3  A    between atoms: C_6  and  N_7
REMARK    4  A    between atoms: C_8  and  C_10
REMARK    5  A    between atoms: C_22  and  S_23
REMARK    6  A    between atoms: S_23  and  N_26
REMARK                            x       y       z     vdW  Elec       q    Type
REMARK                         _______ _______ _______ _____ _____    ______ ____
ROOT
ATOM      1  C   UNL     1       3.971   4.257  17.687  0.00  0.00    +0.000 A 
ATOM      2  C   UNL     1       2.737   4.386  18.327  0.00  0.00    +0.000 A 
ATOM      3  C   UNL     1       2.152   5.654  18.579  0.00  0.00    +0.000 A 
ATOM      4  C   UNL     1       2.741   6.880  18.213  0.00  0.00    +0.000 A 
ATOM      5  C   UNL     1       4.026   6.733  17.625  0.00  0.00    +0.000 A 
ATOM      6  C   UNL     1       4.644   5.430  17.367  0.00  0.00    +0.000 A 
ENDROOT
BRANCH   4   7
ATOM      7  N   UNL     1       2.081   8.218  18.412  0.00  0.00    +0.000 N 
ATOM      8  C   UNL     1       1.549   8.661  19.629  0.00  0.00    +0.000 C 
ATOM      9  O   UNL     1       1.693   7.922  20.616  0.00  0.00    +0.000 OA
ATOM     10  H   UNL     1       2.010   8.812  17.598  0.00  0.00    +0.000 HD
BRANCH   8  11
ATOM     11  C   UNL     1       0.747   9.976  19.941  0.00  0.00    +0.000 A 
ATOM     12  C   UNL     1       0.620  10.660  18.770  0.00  0.00    +0.000 A 
ATOM     13  C   UNL     1       0.015  11.999  18.744  0.00  0.00    +0.000 A 
ATOM     14  O   UNL     1      -0.869  12.309  17.963  0.00  0.00    +0.000 OA
ATOM     15  N   UNL     1       0.545  12.786  19.746  0.00  0.00    +0.000 N 
ATOM     16  C   UNL     1       0.239  12.216  21.008  0.00  0.00    +0.000 A 
ATOM     17  C   UNL     1      -0.307  13.138  21.913  0.00  0.00    +0.000 A 
ATOM     18  C   UNL     1      -1.081  12.660  22.951  0.00  0.00    +0.000 A 
ATOM     19  C   UNL     1      -1.278  11.282  23.047  0.00  0.00    +0.000 A 
ATOM     20  C   UNL     1      -0.646  10.342  22.166  0.00  0.00    +0.000 A 
ATOM     21  C   UNL     1       0.180  10.774  21.119  0.00  0.00    +0.000 A 
ATOM     22  H   UNL     1       1.558  12.785  19.662  0.00  0.00    +0.000 HD
ENDBRANCH   8  11
ENDBRANCH   4   7
BRANCH   6  23
ATOM     23  S   UNL     1       6.278   5.419  16.628  0.00  0.00    +0.000 S 
ATOM     24  O   UNL     1       6.661   6.812  16.539  0.00  0.00    +0.000 OA
ATOM     25  O   UNL     1       7.059   4.516  17.479  0.00  0.00    +0.000 OA
BRANCH  23  26
ATOM     26  N   UNL     1       6.326   4.774  15.023  0.00  0.00    +0.000 NA
ATOM     27  C   UNL     1       7.419   5.217  14.124  0.00  0.00    +0.000 C 
ATOM     28  C   UNL     1       7.430   4.663  12.693  0.00  0.00    +0.000 C 
ATOM     29  C   UNL     1       6.444   3.551  12.400  0.00  0.00    +0.000 C 
ATOM     30  C   UNL     1       5.094   3.913  12.975  0.00  0.00    +0.000 C 
ATOM     31  C   UNL     1       5.125   4.098  14.492  0.00  0.00    +0.000 C 
ENDBRANCH  23  26
ENDBRANCH   6  23
BRANCH   1  33
ATOM     32  C   UNL     1       3.752   1.909  17.859  0.00  0.00    +0.000 C 
ATOM     33  O   UNL     1       4.522   3.035  17.435  0.00  0.00    +0.000 OA
ENDBRANCH   1  33
TORSDOF 5
ENDMDL
MODEL 9
REMARK VINA RESULT:      -8.6      1.799      2.664
REMARK  Name = 
REMARK  6 active torsions:
REMARK  status: ('A' for Active; 'I' for Inactive)
REMARK    1  A    between atoms: C_1  and  O_2
REMARK    2  A    between atoms: O_2  and  C_3
REMARK    3  A    between atoms: C_6  and  N_7
REMARK    4  A    between atoms: C_8  and  C_10
REMARK    5  A    between atoms: C_22  and  S_23
REMARK    6  A    between atoms: S_23  and  N_26
REMARK                            x       y       z     vdW  Elec       q    Type
REMARK                         _______ _______ _______ _____ _____    ______ ____
ROOT
ATOM      1  C   UNL     1      -0.981  11.299  22.047  0.00  0.00    +0.000 A 
ATOM      2  C   UNL     1      -0.631  10.391  23.047  0.00  0.00    +0.000 A 
ATOM      3  C   UNL     1       0.050   9.181  22.756  0.00  0.00    +0.000 A 
ATOM      4  C   UNL     1       0.436   8.787  21.460  0.00  0.00    +0.000 A 
ATOM      5  C   UNL     1       0.012   9.689  20.448  0.00  0.00    +0.000 A 
ATOM      6  C   UNL     1      -0.699  10.937  20.736  0.00  0.00    +0.000 A 
ENDROOT
BRANCH   4   7
ATOM      7  N   UNL     1       1.227   7.540  21.165  0.00  0.00    +0.000 N 
ATOM      8  C   UNL     1       1.922   7.311  19.971  0.00  0.00    +0.000 C 
ATOM      9  O   UNL     1       1.932   8.228  19.134  0.00  0.00    +0.000 OA
ATOM     10  H   UNL     1       1.228   6.827  21.880  0.00  0.00    +0.000 HD
BRANCH   8  11
ATOM     11  C   UNL     1       2.687   6.022  19.500  0.00  0.00    +0.000 A 
ATOM     12  C   UNL     1       4.018   6.309  19.525  0.00  0.00    +0.000 A 
ATOM     13  C   UNL     1       5.004   5.341  19.025  0.00  0.00    +0.000 A 
ATOM     14  O   UNL     1       5.992   5.017  19.663  0.00  0.00    +0.000 OA
ATOM     15  N   UNL     1       4.609   4.837  17.804  0.00  0.00    +0.000 N 
ATOM     16  C   UNL     1       3.382   4.141  17.953  0.00  0.00    +0.000 A 
ATOM     17  C   UNL     1       3.398   2.862  17.375  0.00  0.00    +0.000 A 
ATOM     18  C   UNL     1       2.507   1.919  17.845  0.00  0.00    +0.000 A 
ATOM     19  C   UNL     1       1.635   2.287  18.870  0.00  0.00    +0.000 A 
ATOM     20  C   UNL     1       1.570   3.621  19.395  0.00  0.00    +0.000 A 
ATOM     21  C   UNL     1       2.425   4.626  18.926  0.00  0.00    +0.000 A 
ATOM     22  H   UNL     1       4.430   5.613  17.173  0.00  0.00    +0.000 HD
ENDBRANCH   8  11
ENDBRANCH   4   7
BRANCH   6  23
ATOM     23  S   UNL     1      -1.176  11.960  19.342  0.00  0.00    +0.000 S 
ATOM     24  O   UNL     1      -1.052  13.323  19.815  0.00  0.00    +0.000 OA
ATOM     25  O   UNL     1      -0.319  11.505  18.243  0.00  0.00    +0.000 OA
BRANCH  23  26
ATOM     26  N   UNL     1      -2.815  11.745  18.832  0.00  0.00    +0.000 NA
ATOM     27  C   UNL     1      -3.064  11.356  17.423  0.00  0.00    +0.000 C 
ATOM     28  C   UNL     1      -4.524  11.200  16.977  0.00  0.00    +0.000 C 
ATOM     29  C   UNL     1      -5.567  11.255  18.073  0.00  0.00    +0.000 C 
ATOM     30  C   UNL     1      -5.261  12.410  19.000  0.00  0.00    +0.000 C 
ATOM     31  C   UNL     1      -3.899  12.279  19.681  0.00  0.00    +0.000 C 
ENDBRANCH  23  26
ENDBRANCH   6  23
BRANCH   1  33
ATOM     32  C   UNL     1      -2.714  12.365  23.252  0.00  0.00    +0.000 C 
ATOM     33  O   UNL     1      -1.624  12.468  22.335  0.00  0.00    +0.000 OA
ENDBRANCH   1  33
TORSDOF 5
ENDMDL
