MODEL 1
REMARK VINA RESULT:      -8.0      0.000      0.000
REMARK  Name = 
REMARK  15 active torsions:
REMARK  status: ('A' for Active; 'I' for Inactive)
REMARK    1  A    between atoms: C_1  and  C_2
REMARK    2  A    between atoms: C_2  and  C_9
REMARK    3  A    between atoms: N_3  and  O_4
REMARK    4  A    between atoms: O_4  and  C_5
REMARK    5  A    between atoms: C_5  and  C_6
REMARK    6  A    between atoms: C_9  and  C_10
REMARK    7  A    between atoms: C_9  and  C_32
REMARK    8  A    between atoms: C_10  and  C_11
REMARK    9  A    between atoms: C_14  and  O_15
REMARK   10  A    between atoms: O_15  and  C_16
REMARK   11  A    between atoms: C_16  and  C_17
REMARK   12  A    between atoms: C_17  and  C_18
REMARK   13  A    between atoms: C_20  and  C_21
REMARK   14  A    between atoms: C_28  and  C_29
REMARK   15  A    between atoms: C_32  and  O_34
REMARK                            x       y       z     vdW  Elec       q    Type
REMARK                         _______ _______ _______ _____ _____    ______ ____
ROOT
ATOM      1  C   UNL     1       1.061   9.375  19.639  0.00  0.00    +0.000 A 
ATOM      2  C   UNL     1       1.321   8.393  20.594  0.00  0.00    +0.000 A 
ATOM      3  C   UNL     1       2.014   7.236  20.263  0.00  0.00    +0.000 A 
ATOM      4  C   UNL     1       2.459   7.000  18.966  0.00  0.00    +0.000 A 
ATOM      5  C   UNL     1       2.221   7.979  17.996  0.00  0.00    +0.000 A 
ATOM      6  C   UNL     1       1.521   9.152  18.331  0.00  0.00    +0.000 A 
ENDROOT
BRANCH   1   7
ATOM      7  C   UNL     1       0.239  10.601  19.984  0.00  0.00    +0.000 C 
BRANCH   7   8
ATOM      8  C   UNL     1       0.134  11.715  18.906  0.00  0.00    +0.000 C 
BRANCH   8  10
ATOM      9  C   UNL     1       1.525  13.054  20.681  0.00  0.00    +0.000 C 
ATOM     10  C   UNL     1       0.754  13.038  19.376  0.00  0.00    +0.000 C 
ATOM     11  N   UNL     1       0.608  14.093  18.621  0.00  0.00    +0.000 NA
BRANCH  11  12
ATOM     12  O   UNL     1       1.244  15.206  19.183  0.00  0.00    +0.000 OA
BRANCH  12  13
ATOM     13  C   UNL     1       0.270  16.168  19.590  0.00  0.00    +0.000 C 
BRANCH  13  14
ATOM     14  C   UNL     1      -0.493  16.594  18.376  0.00  0.00    +0.000 C 
ATOM     15  C   UNL     1      -1.399  17.797  18.423  0.00  0.00    +0.000 C 
ATOM     16  C   UNL     1      -0.118  17.854  17.637  0.00  0.00    +0.000 C 
ENDBRANCH  13  14
ENDBRANCH  12  13
ENDBRANCH  11  12
ENDBRANCH   8  10
BRANCH   8  17
ATOM     17  C   UNL     1      -1.277  11.757  18.321  0.00  0.00    +0.000 C 
ATOM     18  O   UNL     1      -2.206  11.091  18.766  0.00  0.00    +0.000 OA
BRANCH  17  19
ATOM     19  O   UNL     1      -1.469  12.549  17.245  0.00  0.00    +0.000 OA
ATOM     20  H   UNL     1      -1.882  12.076  16.484  0.00  0.00    +0.000 HD
ENDBRANCH  17  19
ENDBRANCH   8  17
ENDBRANCH   7   8
ENDBRANCH   1   7
BRANCH   4  21
ATOM     21  O   UNL     1       3.106   5.846  18.571  0.00  0.00    +0.000 OA
BRANCH  21  22
ATOM     22  C   UNL     1       4.123   5.433  19.499  0.00  0.00    +0.000 C 
BRANCH  22  23
ATOM     23  C   UNL     1       4.828   4.142  19.101  0.00  0.00    +0.000 C 
BRANCH  23  24
ATOM     24  C   UNL     1       5.772   4.406  17.972  0.00  0.00    +0.000 A 
ATOM     25  N   UNL     1       5.432   4.079  16.670  0.00  0.00    +0.000 NA
ATOM     26  C   UNL     1       6.456   4.493  15.945  0.00  0.00    +0.000 A 
ATOM     27  O   UNL     1       7.448   5.083  16.683  0.00  0.00    +0.000 OA
ATOM     28  C   UNL     1       7.001   5.029  17.972  0.00  0.00    +0.000 A 
ATOM     29  C   UNL     1       7.872   5.633  18.994  0.00  0.00    +0.000 C 
BRANCH  26  30
ATOM     30  C   UNL     1       6.675   4.425  14.500  0.00  0.00    +0.000 A 
ATOM     31  C   UNL     1       7.620   5.258  13.883  0.00  0.00    +0.000 A 
ATOM     32  C   UNL     1       7.825   5.200  12.497  0.00  0.00    +0.000 A 
ATOM     33  C   UNL     1       7.089   4.314  11.715  0.00  0.00    +0.000 A 
ATOM     34  C   UNL     1       6.144   3.483  12.311  0.00  0.00    +0.000 A 
ATOM     35  C   UNL     1       5.941   3.536  13.692  0.00  0.00    +0.000 A 
ENDBRANCH  26  30
ENDBRANCH  23  24
ENDBRANCH  22  23
ENDBRANCH  21  22
ENDBRANCH   4  21
TORSDOF 13
ENDMDL
MODEL 2
REMARK VINA RESULT:      -7.9      2.441     10.553
REMARK  Name = 
REMARK  15 active torsions:
REMARK  status: ('A' for Active; 'I' for Inactive)
REMARK    1  A    between atoms: C_1  and  C_2
REMARK    2  A    between atoms: C_2  and  C_9
REMARK    3  A    between atoms: N_3  and  O_4
REMARK    4  A    between atoms: O_4  and  C_5
REMARK    5  A    between atoms: C_5  and  C_6
REMARK    6  A    between atoms: C_9  and  C_10
REMARK    7  A    between atoms: C_9  and  C_32
REMARK    8  A    between atoms: C_10  and  C_11
REMARK    9  A    between atoms: C_14  and  O_15
REMARK   10  A    between atoms: O_15  and  C_16
REMARK   11  A    between atoms: C_16  and  C_17
REMARK   12  A    between atoms: C_17  and  C_18
REMARK   13  A    between atoms: C_20  and  C_21
REMARK   14  A    between atoms: C_28  and  C_29
REMARK   15  A    between atoms: C_32  and  O_34
REMARK                            x       y       z     vdW  Elec       q    Type
REMARK                         _______ _______ _______ _____ _____    ______ ____
ROOT
ATOM      1  C   UNL     1       2.858   6.179  18.871  0.00  0.00    +0.000 A 
ATOM      2  C   UNL     1       2.367   5.590  20.036  0.00  0.00    +0.000 A 
ATOM      3  C   UNL     1       1.580   6.308  20.926  0.00  0.00    +0.000 A 
ATOM      4  C   UNL     1       1.265   7.645  20.706  0.00  0.00    +0.000 A 
ATOM      5  C   UNL     1       1.736   8.251  19.536  0.00  0.00    +0.000 A 
ATOM      6  C   UNL     1       2.531   7.524  18.632  0.00  0.00    +0.000 A 
ENDROOT
BRANCH   1   7
ATOM      7  C   UNL     1       3.779   5.418  17.939  0.00  0.00    +0.000 C 
BRANCH   7   8
ATOM      8  C   UNL     1       5.286   5.794  17.962  0.00  0.00    +0.000 C 
BRANCH   8  10
ATOM      9  C   UNL     1       5.137   6.669  15.495  0.00  0.00    +0.000 C 
ATOM     10  C   UNL     1       5.884   5.882  16.551  0.00  0.00    +0.000 C 
ATOM     11  N   UNL     1       7.025   5.288  16.325  0.00  0.00    +0.000 NA
BRANCH  11  12
ATOM     12  O   UNL     1       7.437   5.478  15.000  0.00  0.00    +0.000 OA
BRANCH  12  13
ATOM     13  C   UNL     1       7.364   4.243  14.287  0.00  0.00    +0.000 C 
BRANCH  13  14
ATOM     14  C   UNL     1       6.552   4.471  13.051  0.00  0.00    +0.000 C 
ATOM     15  C   UNL     1       6.940   3.818  11.750  0.00  0.00    +0.000 C 
ATOM     16  C   UNL     1       5.704   3.364  12.477  0.00  0.00    +0.000 C 
ENDBRANCH  13  14
ENDBRANCH  12  13
ENDBRANCH  11  12
ENDBRANCH   8  10
BRANCH   8  17
ATOM     17  C   UNL     1       6.028   4.952  19.000  0.00  0.00    +0.000 C 
ATOM     18  O   UNL     1       6.783   5.435  19.837  0.00  0.00    +0.000 OA
BRANCH  17  19
ATOM     19  O   UNL     1       5.848   3.616  18.945  0.00  0.00    +0.000 OA
ATOM     20  H   UNL     1       4.982   3.325  19.320  0.00  0.00    +0.000 HD
ENDBRANCH  17  19
ENDBRANCH   8  17
ENDBRANCH   7   8
ENDBRANCH   1   7
BRANCH   4  21
ATOM     21  O   UNL     1       0.532   8.419  21.582  0.00  0.00    +0.000 OA
BRANCH  21  22
ATOM     22  C   UNL     1       1.003   9.775  21.656  0.00  0.00    +0.000 C 
BRANCH  22  23
ATOM     23  C   UNL     1      -0.047  10.764  22.146  0.00  0.00    +0.000 C 
BRANCH  23  24
ATOM     24  C   UNL     1      -0.815  11.306  20.982  0.00  0.00    +0.000 A 
ATOM     25  N   UNL     1      -1.176  10.487  19.926  0.00  0.00    +0.000 NA
ATOM     26  C   UNL     1      -1.872  11.270  19.122  0.00  0.00    +0.000 A 
ATOM     27  O   UNL     1      -2.005  12.553  19.584  0.00  0.00    +0.000 OA
ATOM     28  C   UNL     1      -1.333  12.566  20.773  0.00  0.00    +0.000 A 
ATOM     29  C   UNL     1      -1.341  13.835  21.517  0.00  0.00    +0.000 C 
BRANCH  26  30
ATOM     30  C   UNL     1      -2.519  10.971  17.843  0.00  0.00    +0.000 A 
ATOM     31  C   UNL     1      -1.916  10.096  16.928  0.00  0.00    +0.000 A 
ATOM     32  C   UNL     1      -2.530   9.816  15.698  0.00  0.00    +0.000 A 
ATOM     33  C   UNL     1      -3.747  10.406  15.371  0.00  0.00    +0.000 A 
ATOM     34  C   UNL     1      -4.357  11.281  16.267  0.00  0.00    +0.000 A 
ATOM     35  C   UNL     1      -3.749  11.558  17.494  0.00  0.00    +0.000 A 
ENDBRANCH  26  30
ENDBRANCH  23  24
ENDBRANCH  22  23
ENDBRANCH  21  22
ENDBRANCH   4  21
TORSDOF 13
ENDMDL
MODEL 3
REMARK VINA RESULT:      -7.8      2.072      3.264
REMARK  Name = 
REMARK  15 active torsions:
REMARK  status: ('A' for Active; 'I' for Inactive)
REMARK    1  A    between atoms: C_1  and  C_2
REMARK    2  A    between atoms: C_2  and  C_9
REMARK    3  A    between atoms: N_3  and  O_4
REMARK    4  A    between atoms: O_4  and  C_5
REMARK    5  A    between atoms: C_5  and  C_6
REMARK    6  A    between atoms: C_9  and  C_10
REMARK    7  A    between atoms: C_9  and  C_32
REMARK    8  A    between atoms: C_10  and  C_11
REMARK    9  A    between atoms: C_14  and  O_15
REMARK   10  A    between atoms: O_15  and  C_16
REMARK   11  A    between atoms: C_16  and  C_17
REMARK   12  A    between atoms: C_17  and  C_18
REMARK   13  A    between atoms: C_20  and  C_21
REMARK   14  A    between atoms: C_28  and  C_29
REMARK   15  A    between atoms: C_32  and  O_34
REMARK                            x       y       z     vdW  Elec       q    Type
REMARK                         _______ _______ _______ _____ _____    ______ ____
ROOT
ATOM      1  C   UNL     1       1.839   8.928  18.658  0.00  0.00    +0.000 A 
ATOM      2  C   UNL     1       2.535   8.082  17.795  0.00  0.00    +0.000 A 
ATOM      3  C   UNL     1       2.922   6.810  18.194  0.00  0.00    +0.000 A 
ATOM      4  C   UNL     1       2.652   6.334  19.473  0.00  0.00    +0.000 A 
ATOM      5  C   UNL     1       1.942   7.161  20.350  0.00  0.00    +0.000 A 
ATOM      6  C   UNL     1       1.547   8.449  19.946  0.00  0.00    +0.000 A 
ENDROOT
BRANCH   1   7
ATOM      7  C   UNL     1       1.483  10.342  18.247  0.00  0.00    +0.000 C 
BRANCH   7   8
ATOM      8  C   UNL     1       1.220  11.369  19.382  0.00  0.00    +0.000 C 
BRANCH   8  10
ATOM      9  C   UNL     1      -0.773  11.052  21.056  0.00  0.00    +0.000 C 
ATOM     10  C   UNL     1      -0.275  11.512  19.701  0.00  0.00    +0.000 C 
ATOM     11  N   UNL     1      -1.053  12.043  18.797  0.00  0.00    +0.000 NA
BRANCH  11  12
ATOM     12  O   UNL     1      -2.375  12.116  19.251  0.00  0.00    +0.000 OA
BRANCH  12  13
ATOM     13  C   UNL     1      -3.269  11.746  18.201  0.00  0.00    +0.000 C 
BRANCH  13  14
ATOM     14  C   UNL     1      -2.948  10.343  17.794  0.00  0.00    +0.000 C 
ATOM     15  C   UNL     1      -3.715   9.673  16.683  0.00  0.00    +0.000 C 
ATOM     16  C   UNL     1      -2.277  10.063  16.473  0.00  0.00    +0.000 C 
ENDBRANCH  13  14
ENDBRANCH  12  13
ENDBRANCH  11  12
ENDBRANCH   8  10
BRANCH   8  17
ATOM     17  C   UNL     1       2.023  12.647  19.139  0.00  0.00    +0.000 C 
ATOM     18  O   UNL     1       2.649  12.857  18.106  0.00  0.00    +0.000 OA
BRANCH  17  19
ATOM     19  O   UNL     1       2.050  13.551  20.141  0.00  0.00    +0.000 OA
ATOM     20  H   UNL     1       2.922  14.006  20.230  0.00  0.00    +0.000 HD
ENDBRANCH  17  19
ENDBRANCH   8  17
ENDBRANCH   7   8
ENDBRANCH   1   7
BRANCH   4  21
ATOM     21  O   UNL     1       3.059   5.100  19.938  0.00  0.00    +0.000 OA
BRANCH  21  22
ATOM     22  C   UNL     1       3.741   4.325  18.939  0.00  0.00    +0.000 C 
BRANCH  22  23
ATOM     23  C   UNL     1       5.222   4.116  19.230  0.00  0.00    +0.000 C 
BRANCH  23  24
ATOM     24  C   UNL     1       6.033   4.497  18.032  0.00  0.00    +0.000 A 
ATOM     25  N   UNL     1       5.702   4.028  16.772  0.00  0.00    +0.000 NA
ATOM     26  C   UNL     1       6.580   4.596  15.965  0.00  0.00    +0.000 A 
ATOM     27  O   UNL     1       7.465   5.420  16.609  0.00  0.00    +0.000 OA
ATOM     28  C   UNL     1       7.105   5.356  17.925  0.00  0.00    +0.000 A 
ATOM     29  C   UNL     1       7.882   6.186  18.859  0.00  0.00    +0.000 C 
BRANCH  26  30
ATOM     30  C   UNL     1       6.735   4.484  14.514  0.00  0.00    +0.000 A 
ATOM     31  C   UNL     1       7.664   5.286  13.834  0.00  0.00    +0.000 A 
ATOM     32  C   UNL     1       7.807   5.187  12.442  0.00  0.00    +0.000 A 
ATOM     33  C   UNL     1       7.026   4.291  11.718  0.00  0.00    +0.000 A 
ATOM     34  C   UNL     1       6.096   3.491  12.378  0.00  0.00    +0.000 A 
ATOM     35  C   UNL     1       5.954   3.586  13.764  0.00  0.00    +0.000 A 
ENDBRANCH  26  30
ENDBRANCH  23  24
ENDBRANCH  22  23
ENDBRANCH  21  22
ENDBRANCH   4  21
TORSDOF 13
ENDMDL
MODEL 4
REMARK VINA RESULT:      -7.8      2.821     10.251
REMARK  Name = 
REMARK  15 active torsions:
REMARK  status: ('A' for Active; 'I' for Inactive)
REMARK    1  A    between atoms: C_1  and  C_2
REMARK    2  A    between atoms: C_2  and  C_9
REMARK    3  A    between atoms: N_3  and  O_4
REMARK    4  A    between atoms: O_4  and  C_5
REMARK    5  A    between atoms: C_5  and  C_6
REMARK    6  A    between atoms: C_9  and  C_10
REMARK    7  A    between atoms: C_9  and  C_32
REMARK    8  A    between atoms: C_10  and  C_11
REMARK    9  A    between atoms: C_14  and  O_15
REMARK   10  A    between atoms: O_15  and  C_16
REMARK   11  A    between atoms: C_16  and  C_17
REMARK   12  A    between atoms: C_17  and  C_18
REMARK   13  A    between atoms: C_20  and  C_21
REMARK   14  A    between atoms: C_28  and  C_29
REMARK   15  A    between atoms: C_32  and  O_34
REMARK                            x       y       z     vdW  Elec       q    Type
REMARK                         _______ _______ _______ _____ _____    ______ ____
ROOT
ATOM      1  C   UNL     1       4.077   6.532  18.064  0.00  0.00    +0.000 A 
ATOM      2  C   UNL     1       3.275   7.582  17.620  0.00  0.00    +0.000 A 
ATOM      3  C   UNL     1       2.254   8.090  18.412  0.00  0.00    +0.000 A 
ATOM      4  C   UNL     1       1.976   7.562  19.669  0.00  0.00    +0.000 A 
ATOM      5  C   UNL     1       2.779   6.517  20.139  0.00  0.00    +0.000 A 
ATOM      6  C   UNL     1       3.815   6.003  19.339  0.00  0.00    +0.000 A 
ENDROOT
BRANCH   1   7
ATOM      7  C   UNL     1       5.141   5.928  17.168  0.00  0.00    +0.000 C 
BRANCH   7   8
ATOM      8  C   UNL     1       4.749   4.671  16.345  0.00  0.00    +0.000 C 
BRANCH   8  10
ATOM      9  C   UNL     1       2.390   3.673  16.907  0.00  0.00    +0.000 C 
ATOM     10  C   UNL     1       3.885   3.693  17.153  0.00  0.00    +0.000 C 
ATOM     11  N   UNL     1       4.478   2.903  18.008  0.00  0.00    +0.000 NA
BRANCH  11  12
ATOM     12  O   UNL     1       3.553   2.067  18.645  0.00  0.00    +0.000 OA
BRANCH  12  13
ATOM     13  C   UNL     1       3.340   2.512  19.985  0.00  0.00    +0.000 C 
BRANCH  13  14
ATOM     14  C   UNL     1       1.889   2.339  20.304  0.00  0.00    +0.000 C 
ATOM     15  C   UNL     1       1.363   2.665  21.678  0.00  0.00    +0.000 C 
ATOM     16  C   UNL     1       1.001   3.541  20.510  0.00  0.00    +0.000 C 
ENDBRANCH  13  14
ENDBRANCH  12  13
ENDBRANCH  11  12
ENDBRANCH   8  10
BRANCH   8  17
ATOM     17  C   UNL     1       5.972   4.109  15.619  0.00  0.00    +0.000 C 
ATOM     18  O   UNL     1       5.963   3.804  14.431  0.00  0.00    +0.000 OA
BRANCH  17  19
ATOM     19  O   UNL     1       7.087   3.921  16.356  0.00  0.00    +0.000 OA
ATOM     20  H   UNL     1       7.304   4.690  16.936  0.00  0.00    +0.000 HD
ENDBRANCH  17  19
ENDBRANCH   8  17
ENDBRANCH   7   8
ENDBRANCH   1   7
BRANCH   4  21
ATOM     21  O   UNL     1       0.942   7.993  20.475  0.00  0.00    +0.000 OA
BRANCH  21  22
ATOM     22  C   UNL     1       1.399   8.737  21.617  0.00  0.00    +0.000 C 
BRANCH  22  23
ATOM     23  C   UNL     1       0.655  10.049  21.832  0.00  0.00    +0.000 C 
BRANCH  23  24
ATOM     24  C   UNL     1       0.187  10.588  20.517  0.00  0.00    +0.000 A 
ATOM     25  N   UNL     1      -0.957  10.093  19.914  0.00  0.00    +0.000 NA
ATOM     26  C   UNL     1      -1.096  10.819  18.819  0.00  0.00    +0.000 A 
ATOM     27  O   UNL     1      -0.123  11.771  18.666  0.00  0.00    +0.000 OA
ATOM     28  C   UNL     1       0.687  11.621  19.755  0.00  0.00    +0.000 A 
ATOM     29  C   UNL     1       1.819  12.555  19.866  0.00  0.00    +0.000 C 
BRANCH  26  30
ATOM     30  C   UNL     1      -2.121  10.765  17.776  0.00  0.00    +0.000 A 
ATOM     31  C   UNL     1      -1.947   9.949  16.649  0.00  0.00    +0.000 A 
ATOM     32  C   UNL     1      -2.925   9.904  15.644  0.00  0.00    +0.000 A 
ATOM     33  C   UNL     1      -4.081  10.671  15.754  0.00  0.00    +0.000 A 
ATOM     34  C   UNL     1      -4.267  11.490  16.865  0.00  0.00    +0.000 A 
ATOM     35  C   UNL     1      -3.296  11.534  17.869  0.00  0.00    +0.000 A 
ENDBRANCH  26  30
ENDBRANCH  23  24
ENDBRANCH  22  23
ENDBRANCH  21  22
ENDBRANCH   4  21
TORSDOF 13
ENDMDL
MODEL 5
REMARK VINA RESULT:      -7.8      3.328     11.211
REMARK  Name = 
REMARK  15 active torsions:
REMARK  status: ('A' for Active; 'I' for Inactive)
REMARK    1  A    between atoms: C_1  and  C_2
REMARK    2  A    between atoms: C_2  and  C_9
REMARK    3  A    between atoms: N_3  and  O_4
REMARK    4  A    between atoms: O_4  and  C_5
REMARK    5  A    between atoms: C_5  and  C_6
REMARK    6  A    between atoms: C_9  and  C_10
REMARK    7  A    between atoms: C_9  and  C_32
REMARK    8  A    between atoms: C_10  and  C_11
REMARK    9  A    between atoms: C_14  and  O_15
REMARK   10  A    between atoms: O_15  and  C_16
REMARK   11  A    between atoms: C_16  and  C_17
REMARK   12  A    between atoms: C_17  and  C_18
REMARK   13  A    between atoms: C_20  and  C_21
REMARK   14  A    between atoms: C_28  and  C_29
REMARK   15  A    between atoms: C_32  and  O_34
REMARK                            x       y       z     vdW  Elec       q    Type
REMARK                         _______ _______ _______ _____ _____    ______ ____
ROOT
ATOM      1  C   UNL     1       2.612   6.886  19.474  0.00  0.00    +0.000 A 
ATOM      2  C   UNL     1       1.810   7.531  20.414  0.00  0.00    +0.000 A 
ATOM      3  C   UNL     1       1.165   8.723  20.111  0.00  0.00    +0.000 A 
ATOM      4  C   UNL     1       1.308   9.332  18.868  0.00  0.00    +0.000 A 
ATOM      5  C   UNL     1       2.097   8.694  17.905  0.00  0.00    +0.000 A 
ATOM      6  C   UNL     1       2.749   7.486  18.211  0.00  0.00    +0.000 A 
ENDROOT
BRANCH   1   7
ATOM      7  C   UNL     1       3.376   5.627  19.831  0.00  0.00    +0.000 C 
BRANCH   7   8
ATOM      8  C   UNL     1       3.054   4.343  19.017  0.00  0.00    +0.000 C 
BRANCH   8  10
ATOM      9  C   UNL     1       4.501   2.773  17.495  0.00  0.00    +0.000 C 
ATOM     10  C   UNL     1       3.996   4.165  17.818  0.00  0.00    +0.000 C 
ATOM     11  N   UNL     1       4.307   5.218  17.113  0.00  0.00    +0.000 NA
BRANCH  11  12
ATOM     12  O   UNL     1       5.156   4.881  16.051  0.00  0.00    +0.000 OA
BRANCH  12  13
ATOM     13  C   UNL     1       6.198   5.850  15.937  0.00  0.00    +0.000 C 
BRANCH  13  14
ATOM     14  C   UNL     1       6.372   6.502  17.272  0.00  0.00    +0.000 C 
ATOM     15  C   UNL     1       7.475   6.064  18.200  0.00  0.00    +0.000 C 
ATOM     16  C   UNL     1       7.546   7.411  17.534  0.00  0.00    +0.000 C 
ENDBRANCH  13  14
ENDBRANCH  12  13
ENDBRANCH  11  12
ENDBRANCH   8  10
BRANCH   8  17
ATOM     17  C   UNL     1       1.550   4.238  18.765  0.00  0.00    +0.000 C 
ATOM     18  O   UNL     1       0.735   4.027  19.656  0.00  0.00    +0.000 OA
BRANCH  17  19
ATOM     19  O   UNL     1       1.136   4.352  17.485  0.00  0.00    +0.000 OA
ATOM     20  H   UNL     1       0.277   4.830  17.396  0.00  0.00    +0.000 HD
ENDBRANCH  17  19
ENDBRANCH   8  17
ENDBRANCH   7   8
ENDBRANCH   1   7
BRANCH   4  21
ATOM     21  O   UNL     1       0.733  10.540  18.531  0.00  0.00    +0.000 OA
BRANCH  21  22
ATOM     22  C   UNL     1      -0.703  10.512  18.597  0.00  0.00    +0.000 C 
BRANCH  22  23
ATOM     23  C   UNL     1      -1.359   9.847  17.393  0.00  0.00    +0.000 C 
BRANCH  23  24
ATOM     24  C   UNL     1      -2.706  10.451  17.152  0.00  0.00    +0.000 A 
ATOM     25  N   UNL     1      -3.396  11.079  18.175  0.00  0.00    +0.000 NA
ATOM     26  C   UNL     1      -4.498  11.530  17.604  0.00  0.00    +0.000 A 
ATOM     27  O   UNL     1      -4.577  11.251  16.265  0.00  0.00    +0.000 OA
ATOM     28  C   UNL     1      -3.428  10.568  15.984  0.00  0.00    +0.000 A 
ATOM     29  C   UNL     1      -3.230  10.164  14.583  0.00  0.00    +0.000 C 
BRANCH  26  30
ATOM     30  C   UNL     1      -5.617  12.279  18.177  0.00  0.00    +0.000 A 
ATOM     31  C   UNL     1      -5.646  12.579  19.547  0.00  0.00    +0.000 A 
ATOM     32  C   UNL     1      -6.723  13.289  20.099  0.00  0.00    +0.000 A 
ATOM     33  C   UNL     1      -7.778  13.703  19.292  0.00  0.00    +0.000 A 
ATOM     34  C   UNL     1      -7.767  13.409  17.931  0.00  0.00    +0.000 A 
ATOM     35  C   UNL     1      -6.694  12.706  17.378  0.00  0.00    +0.000 A 
ENDBRANCH  26  30
ENDBRANCH  23  24
ENDBRANCH  22  23
ENDBRANCH  21  22
ENDBRANCH   4  21
TORSDOF 13
ENDMDL
MODEL 6
REMARK VINA RESULT:      -7.6      3.123     10.873
REMARK  Name = 
REMARK  15 active torsions:
REMARK  status: ('A' for Active; 'I' for Inactive)
REMARK    1  A    between atoms: C_1  and  C_2
REMARK    2  A    between atoms: C_2  and  C_9
REMARK    3  A    between atoms: N_3  and  O_4
REMARK    4  A    between atoms: O_4  and  C_5
REMARK    5  A    between atoms: C_5  and  C_6
REMARK    6  A    between atoms: C_9  and  C_10
REMARK    7  A    between atoms: C_9  and  C_32
REMARK    8  A    between atoms: C_10  and  C_11
REMARK    9  A    between atoms: C_14  and  O_15
REMARK   10  A    between atoms: O_15  and  C_16
REMARK   11  A    between atoms: C_16  and  C_17
REMARK   12  A    between atoms: C_17  and  C_18
REMARK   13  A    between atoms: C_20  and  C_21
REMARK   14  A    between atoms: C_28  and  C_29
REMARK   15  A    between atoms: C_32  and  O_34
REMARK                            x       y       z     vdW  Elec       q    Type
REMARK                         _______ _______ _______ _____ _____    ______ ____
ROOT
ATOM      1  C   UNL     1       4.448   5.521  17.771  0.00  0.00    +0.000 A 
ATOM      2  C   UNL     1       4.181   6.682  17.046  0.00  0.00    +0.000 A 
ATOM      3  C   UNL     1       3.320   7.653  17.539  0.00  0.00    +0.000 A 
ATOM      4  C   UNL     1       2.674   7.501  18.762  0.00  0.00    +0.000 A 
ATOM      5  C   UNL     1       2.939   6.350  19.511  0.00  0.00    +0.000 A 
ATOM      6  C   UNL     1       3.813   5.366  19.014  0.00  0.00    +0.000 A 
ENDROOT
BRANCH   1   7
ATOM      7  C   UNL     1       5.328   4.428  17.198  0.00  0.00    +0.000 C 
BRANCH   7   8
ATOM      8  C   UNL     1       6.755   4.831  16.735  0.00  0.00    +0.000 C 
BRANCH   8  10
ATOM      9  C   UNL     1       7.707   5.503  19.085  0.00  0.00    +0.000 C 
ATOM     10  C   UNL     1       7.387   5.886  17.654  0.00  0.00    +0.000 C 
ATOM     11  N   UNL     1       7.641   7.067  17.158  0.00  0.00    +0.000 NA
BRANCH  11  12
ATOM     12  O   UNL     1       8.230   7.900  18.118  0.00  0.00    +0.000 OA
BRANCH  12  13
ATOM     13  C   UNL     1       8.057   9.267  17.744  0.00  0.00    +0.000 C 
BRANCH  13  14
ATOM     14  C   UNL     1       8.987  10.094  18.575  0.00  0.00    +0.000 C 
ATOM     15  C   UNL     1      10.091  10.888  17.928  0.00  0.00    +0.000 C 
ATOM     16  C   UNL     1       8.915  11.600  18.537  0.00  0.00    +0.000 C 
ENDBRANCH  13  14
ENDBRANCH  12  13
ENDBRANCH  11  12
ENDBRANCH   8  10
BRANCH   8  17
ATOM     17  C   UNL     1       6.770   5.097  15.230  0.00  0.00    +0.000 C 
ATOM     18  O   UNL     1       5.818   4.848  14.497  0.00  0.00    +0.000 OA
BRANCH  17  19
ATOM     19  O   UNL     1       7.910   5.597  14.709  0.00  0.00    +0.000 OA
ATOM     20  H   UNL     1       7.762   6.136  13.895  0.00  0.00    +0.000 HD
ENDBRANCH  17  19
ENDBRANCH   8  17
ENDBRANCH   7   8
ENDBRANCH   1   7
BRANCH   4  21
ATOM     21  O   UNL     1       1.769   8.409  19.274  0.00  0.00    +0.000 OA
BRANCH  21  22
ATOM     22  C   UNL     1       1.104   9.169  18.252  0.00  0.00    +0.000 C 
BRANCH  22  23
ATOM     23  C   UNL     1       1.062  10.667  18.531  0.00  0.00    +0.000 C 
BRANCH  23  24
ATOM     24  C   UNL     1      -0.297  11.053  19.022  0.00  0.00    +0.000 A 
ATOM     25  N   UNL     1      -0.464  11.624  20.272  0.00  0.00    +0.000 NA
ATOM     26  C   UNL     1      -1.758  11.880  20.350  0.00  0.00    +0.000 A 
ATOM     27  O   UNL     1      -2.456  11.523  19.227  0.00  0.00    +0.000 OA
ATOM     28  C   UNL     1      -1.517  11.004  18.383  0.00  0.00    +0.000 A 
ATOM     29  C   UNL     1      -1.993  10.562  17.063  0.00  0.00    +0.000 C 
BRANCH  26  30
ATOM     30  C   UNL     1      -2.535  12.485  21.433  0.00  0.00    +0.000 A 
ATOM     31  C   UNL     1      -3.491  13.473  21.157  0.00  0.00    +0.000 A 
ATOM     32  C   UNL     1      -4.230  14.060  22.195  0.00  0.00    +0.000 A 
ATOM     33  C   UNL     1      -4.021  13.668  23.514  0.00  0.00    +0.000 A 
ATOM     34  C   UNL     1      -3.072  12.692  23.805  0.00  0.00    +0.000 A 
ATOM     35  C   UNL     1      -2.337  12.103  22.773  0.00  0.00    +0.000 A 
ENDBRANCH  26  30
ENDBRANCH  23  24
ENDBRANCH  22  23
ENDBRANCH  21  22
ENDBRANCH   4  21
TORSDOF 13
ENDMDL
MODEL 7
REMARK VINA RESULT:      -7.6      2.591     10.464
REMARK  Name = 
REMARK  15 active torsions:
REMARK  status: ('A' for Active; 'I' for Inactive)
REMARK    1  A    between atoms: C_1  and  C_2
REMARK    2  A    between atoms: C_2  and  C_9
REMARK    3  A    between atoms: N_3  and  O_4
REMARK    4  A    between atoms: O_4  and  C_5
REMARK    5  A    between atoms: C_5  and  C_6
REMARK    6  A    between atoms: C_9  and  C_10
REMARK    7  A    between atoms: C_9  and  C_32
REMARK    8  A    between atoms: C_10  and  C_11
REMARK    9  A    between atoms: C_14  and  O_15
REMARK   10  A    between atoms: O_15  and  C_16
REMARK   11  A    between atoms: C_16  and  C_17
REMARK   12  A    between atoms: C_17  and  C_18
REMARK   13  A    between atoms: C_20  and  C_21
REMARK   14  A    between atoms: C_28  and  C_29
REMARK   15  A    between atoms: C_32  and  O_34
REMARK                            x       y       z     vdW  Elec       q    Type
REMARK                         _______ _______ _______ _____ _____    ______ ____
ROOT
ATOM      1  C   UNL     1       3.550   7.079  18.191  0.00  0.00    +0.000 A 
ATOM      2  C   UNL     1       2.972   6.783  19.425  0.00  0.00    +0.000 A 
ATOM      3  C   UNL     1       1.932   7.550  19.934  0.00  0.00    +0.000 A 
ATOM      4  C   UNL     1       1.438   8.653  19.246  0.00  0.00    +0.000 A 
ATOM      5  C   UNL     1       1.993   8.959  17.999  0.00  0.00    +0.000 A 
ATOM      6  C   UNL     1       3.045   8.182  17.482  0.00  0.00    +0.000 A 
ENDROOT
BRANCH   1   7
ATOM      7  C   UNL     1       4.734   6.288  17.673  0.00  0.00    +0.000 C 
BRANCH   7   8
ATOM      8  C   UNL     1       4.433   5.078  16.747  0.00  0.00    +0.000 C 
BRANCH   8  10
ATOM      9  C   UNL     1       2.494   3.348  17.100  0.00  0.00    +0.000 C 
ATOM     10  C   UNL     1       3.846   3.888  17.520  0.00  0.00    +0.000 C 
ATOM     11  N   UNL     1       4.546   3.378  18.496  0.00  0.00    +0.000 NA
BRANCH  11  12
ATOM     12  O   UNL     1       3.880   2.295  19.081  0.00  0.00    +0.000 OA
BRANCH  12  13
ATOM     13  C   UNL     1       3.504   2.622  20.419  0.00  0.00    +0.000 C 
BRANCH  13  14
ATOM     14  C   UNL     1       2.017   2.504  20.524  0.00  0.00    +0.000 C 
ATOM     15  C   UNL     1       1.314   2.800  21.824  0.00  0.00    +0.000 C 
ATOM     16  C   UNL     1       1.157   3.736  20.656  0.00  0.00    +0.000 C 
ENDBRANCH  13  14
ENDBRANCH  12  13
ENDBRANCH  11  12
ENDBRANCH   8  10
BRANCH   8  17
ATOM     17  C   UNL     1       5.618   4.811  15.819  0.00  0.00    +0.000 C 
ATOM     18  O   UNL     1       6.054   5.646  15.035  0.00  0.00    +0.000 OA
BRANCH  17  19
ATOM     19  O   UNL     1       6.164   3.578  15.866  0.00  0.00    +0.000 OA
ATOM     20  H   UNL     1       6.928   3.515  16.489  0.00  0.00    +0.000 HD
ENDBRANCH  17  19
ENDBRANCH   8  17
ENDBRANCH   7   8
ENDBRANCH   1   7
BRANCH   4  21
ATOM     21  O   UNL     1       0.443   9.480  19.728  0.00  0.00    +0.000 OA
BRANCH  21  22
ATOM     22  C   UNL     1       0.103   9.202  21.097  0.00  0.00    +0.000 C 
BRANCH  22  23
ATOM     23  C   UNL     1       0.124  10.432  21.996  0.00  0.00    +0.000 C 
BRANCH  23  24
ATOM     24  C   UNL     1       0.269  11.666  21.163  0.00  0.00    +0.000 A 
ATOM     25  N   UNL     1       1.507  12.258  20.980  0.00  0.00    +0.000 NA
ATOM     26  C   UNL     1       1.274  13.271  20.165  0.00  0.00    +0.000 A 
ATOM     27  O   UNL     1      -0.039  13.382  19.788  0.00  0.00    +0.000 OA
ATOM     28  C   UNL     1      -0.671  12.351  20.423  0.00  0.00    +0.000 A 
ATOM     29  C   UNL     1      -2.113  12.208  20.167  0.00  0.00    +0.000 C 
BRANCH  26  30
ATOM     30  C   UNL     1       2.194  14.264  19.609  0.00  0.00    +0.000 A 
ATOM     31  C   UNL     1       2.362  15.508  20.235  0.00  0.00    +0.000 A 
ATOM     32  C   UNL     1       3.237  16.464  19.698  0.00  0.00    +0.000 A 
ATOM     33  C   UNL     1       3.949  16.189  18.534  0.00  0.00    +0.000 A 
ATOM     34  C   UNL     1       3.790  14.960  17.898  0.00  0.00    +0.000 A 
ATOM     35  C   UNL     1       2.922  14.005  18.433  0.00  0.00    +0.000 A 
ENDBRANCH  26  30
ENDBRANCH  23  24
ENDBRANCH  22  23
ENDBRANCH  21  22
ENDBRANCH   4  21
TORSDOF 13
ENDMDL
MODEL 8
REMARK VINA RESULT:      -7.6      3.215     11.566
REMARK  Name = 
REMARK  15 active torsions:
REMARK  status: ('A' for Active; 'I' for Inactive)
REMARK    1  A    between atoms: C_1  and  C_2
REMARK    2  A    between atoms: C_2  and  C_9
REMARK    3  A    between atoms: N_3  and  O_4
REMARK    4  A    between atoms: O_4  and  C_5
REMARK    5  A    between atoms: C_5  and  C_6
REMARK    6  A    between atoms: C_9  and  C_10
REMARK    7  A    between atoms: C_9  and  C_32
REMARK    8  A    between atoms: C_10  and  C_11
REMARK    9  A    between atoms: C_14  and  O_15
REMARK   10  A    between atoms: O_15  and  C_16
REMARK   11  A    between atoms: C_16  and  C_17
REMARK   12  A    between atoms: C_17  and  C_18
REMARK   13  A    between atoms: C_20  and  C_21
REMARK   14  A    between atoms: C_28  and  C_29
REMARK   15  A    between atoms: C_32  and  O_34
REMARK                            x       y       z     vdW  Elec       q    Type
REMARK                         _______ _______ _______ _____ _____    ______ ____
ROOT
ATOM      1  C   UNL     1       1.858   6.607  19.461  0.00  0.00    +0.000 A 
ATOM      2  C   UNL     1       2.077   7.474  18.391  0.00  0.00    +0.000 A 
ATOM      3  C   UNL     1       1.867   8.840  18.519  0.00  0.00    +0.000 A 
ATOM      4  C   UNL     1       1.411   9.398  19.709  0.00  0.00    +0.000 A 
ATOM      5  C   UNL     1       1.199   8.548  20.800  0.00  0.00    +0.000 A 
ATOM      6  C   UNL     1       1.414   7.164  20.672  0.00  0.00    +0.000 A 
ENDROOT
BRANCH   1   7
ATOM      7  C   UNL     1       2.015   5.109  19.298  0.00  0.00    +0.000 C 
BRANCH   7   8
ATOM      8  C   UNL     1       2.903   4.368  20.335  0.00  0.00    +0.000 C 
BRANCH   8  10
ATOM      9  C   UNL     1       4.370   2.315  19.622  0.00  0.00    +0.000 C 
ATOM     10  C   UNL     1       4.192   3.817  19.708  0.00  0.00    +0.000 C 
ATOM     11  N   UNL     1       5.074   4.667  19.258  0.00  0.00    +0.000 NA
BRANCH  11  12
ATOM     12  O   UNL     1       6.177   4.004  18.706  0.00  0.00    +0.000 OA
BRANCH  12  13
ATOM     13  C   UNL     1       6.635   4.704  17.549  0.00  0.00    +0.000 C 
BRANCH  13  14
ATOM     14  C   UNL     1       5.471   4.882  16.626  0.00  0.00    +0.000 C 
ATOM     15  C   UNL     1       5.186   6.223  16.003  0.00  0.00    +0.000 C 
ATOM     16  C   UNL     1       5.690   5.093  15.149  0.00  0.00    +0.000 C 
ENDBRANCH  13  14
ENDBRANCH  12  13
ENDBRANCH  11  12
ENDBRANCH   8  10
BRANCH   8  17
ATOM     17  C   UNL     1       2.055   3.414  21.176  0.00  0.00    +0.000 C 
ATOM     18  O   UNL     1       2.450   2.915  22.224  0.00  0.00    +0.000 OA
BRANCH  17  19
ATOM     19  O   UNL     1       0.833   3.099  20.696  0.00  0.00    +0.000 OA
ATOM     20  H   UNL     1       0.720   3.324  19.742  0.00  0.00    +0.000 HD
ENDBRANCH  17  19
ENDBRANCH   8  17
ENDBRANCH   7   8
ENDBRANCH   1   7
BRANCH   4  21
ATOM     21  O   UNL     1       1.135  10.740  19.875  0.00  0.00    +0.000 OA
BRANCH  21  22
ATOM     22  C   UNL     1      -0.257  11.048  19.701  0.00  0.00    +0.000 C 
BRANCH  22  23
ATOM     23  C   UNL     1      -0.648  11.322  18.253  0.00  0.00    +0.000 C 
BRANCH  23  24
ATOM     24  C   UNL     1      -2.135  11.452  18.146  0.00  0.00    +0.000 A 
ATOM     25  N   UNL     1      -2.884  11.931  19.208  0.00  0.00    +0.000 NA
ATOM     26  C   UNL     1      -4.123  11.962  18.752  0.00  0.00    +0.000 A 
ATOM     27  O   UNL     1      -4.241  11.544  17.453  0.00  0.00    +0.000 OA
ATOM     28  C   UNL     1      -2.969  11.227  17.073  0.00  0.00    +0.000 A 
ATOM     29  C   UNL     1      -2.792  10.771  15.685  0.00  0.00    +0.000 C 
BRANCH  26  30
ATOM     30  C   UNL     1      -5.360  12.380  19.414  0.00  0.00    +0.000 A 
ATOM     31  C   UNL     1      -6.516  12.639  18.664  0.00  0.00    +0.000 A 
ATOM     32  C   UNL     1      -7.700  13.048  19.296  0.00  0.00    +0.000 A 
ATOM     33  C   UNL     1      -7.739  13.203  20.679  0.00  0.00    +0.000 A 
ATOM     34  C   UNL     1      -6.598  12.954  21.438  0.00  0.00    +0.000 A 
ATOM     35  C   UNL     1      -5.420  12.543  20.810  0.00  0.00    +0.000 A 
ENDBRANCH  26  30
ENDBRANCH  23  24
ENDBRANCH  22  23
ENDBRANCH  21  22
ENDBRANCH   4  21
TORSDOF 13
ENDMDL
MODEL 9
REMARK VINA RESULT:      -7.6      2.683     11.615
REMARK  Name = 
REMARK  15 active torsions:
REMARK  status: ('A' for Active; 'I' for Inactive)
REMARK    1  A    between atoms: C_1  and  C_2
REMARK    2  A    between atoms: C_2  and  C_9
REMARK    3  A    between atoms: N_3  and  O_4
REMARK    4  A    between atoms: O_4  and  C_5
REMARK    5  A    between atoms: C_5  and  C_6
REMARK    6  A    between atoms: C_9  and  C_10
REMARK    7  A    between atoms: C_9  and  C_32
REMARK    8  A    between atoms: C_10  and  C_11
REMARK    9  A    between atoms: C_14  and  O_15
REMARK   10  A    between atoms: O_15  and  C_16
REMARK   11  A    between atoms: C_16  and  C_17
REMARK   12  A    between atoms: C_17  and  C_18
REMARK   13  A    between atoms: C_20  and  C_21
REMARK   14  A    between atoms: C_28  and  C_29
REMARK   15  A    between atoms: C_32  and  O_34
REMARK                            x       y       z     vdW  Elec       q    Type
REMARK                         _______ _______ _______ _____ _____    ______ ____
ROOT
ATOM      1  C   UNL     1       2.959   6.561  18.388  0.00  0.00    +0.000 A 
ATOM      2  C   UNL     1       2.467   6.617  19.692  0.00  0.00    +0.000 A 
ATOM      3  C   UNL     1       1.798   7.740  20.159  0.00  0.00    +0.000 A 
ATOM      4  C   UNL     1       1.608   8.860  19.357  0.00  0.00    +0.000 A 
ATOM      5  C   UNL     1       2.081   8.820  18.042  0.00  0.00    +0.000 A 
ATOM      6  C   UNL     1       2.757   7.682  17.566  0.00  0.00    +0.000 A 
ENDROOT
BRANCH   1   7
ATOM      7  C   UNL     1       3.755   5.366  17.904  0.00  0.00    +0.000 C 
BRANCH   7   8
ATOM      8  C   UNL     1       5.303   5.498  17.894  0.00  0.00    +0.000 C 
BRANCH   8  10
ATOM      9  C   UNL     1       7.327   4.589  16.496  0.00  0.00    +0.000 C 
ATOM     10  C   UNL     1       5.909   5.123  16.534  0.00  0.00    +0.000 C 
ATOM     11  N   UNL     1       5.170   5.262  15.467  0.00  0.00    +0.000 NA
BRANCH  11  12
ATOM     12  O   UNL     1       5.864   4.862  14.319  0.00  0.00    +0.000 OA
BRANCH  12  13
ATOM     13  C   UNL     1       5.274   3.676  13.784  0.00  0.00    +0.000 C 
BRANCH  13  14
ATOM     14  C   UNL     1       5.465   3.694  12.301  0.00  0.00    +0.000 C 
ATOM     15  C   UNL     1       5.694   2.412  11.543  0.00  0.00    +0.000 C 
ATOM     16  C   UNL     1       4.396   3.154  11.384  0.00  0.00    +0.000 C 
ENDBRANCH  13  14
ENDBRANCH  12  13
ENDBRANCH  11  12
ENDBRANCH   8  10
BRANCH   8  17
ATOM     17  C   UNL     1       5.899   4.849  19.143  0.00  0.00    +0.000 C 
ATOM     18  O   UNL     1       6.699   5.421  19.876  0.00  0.00    +0.000 OA
BRANCH  17  19
ATOM     19  O   UNL     1       5.535   3.576  19.404  0.00  0.00    +0.000 OA
ATOM     20  H   UNL     1       6.133   3.125  20.047  0.00  0.00    +0.000 HD
ENDBRANCH  17  19
ENDBRANCH   8  17
ENDBRANCH   7   8
ENDBRANCH   1   7
BRANCH   4  21
ATOM     21  O   UNL     1       0.997  10.021  19.787  0.00  0.00    +0.000 OA
BRANCH  21  22
ATOM     22  C   UNL     1       0.873  11.004  18.745  0.00  0.00    +0.000 C 
BRANCH  22  23
ATOM     23  C   UNL     1       0.528  12.398  19.254  0.00  0.00    +0.000 C 
BRANCH  23  24
ATOM     24  C   UNL     1      -0.875  12.415  19.772  0.00  0.00    +0.000 A 
ATOM     25  N   UNL     1      -1.952  12.307  18.909  0.00  0.00    +0.000 NA
ATOM     26  C   UNL     1      -3.011  12.305  19.697  0.00  0.00    +0.000 A 
ATOM     27  O   UNL     1      -2.704  12.394  21.030  0.00  0.00    +0.000 OA
ATOM     28  C   UNL     1      -1.341  12.457  21.069  0.00  0.00    +0.000 A 
ATOM     29  C   UNL     1      -0.724  12.526  22.403  0.00  0.00    +0.000 C 
BRANCH  26  30
ATOM     30  C   UNL     1      -4.434  12.212  19.365  0.00  0.00    +0.000 A 
ATOM     31  C   UNL     1      -5.399  12.794  20.199  0.00  0.00    +0.000 A 
ATOM     32  C   UNL     1      -6.764  12.698  19.886  0.00  0.00    +0.000 A 
ATOM     33  C   UNL     1      -7.175  12.021  18.742  0.00  0.00    +0.000 A 
ATOM     34  C   UNL     1      -6.229  11.434  17.905  0.00  0.00    +0.000 A 
ATOM     35  C   UNL     1      -4.870  11.531  18.213  0.00  0.00    +0.000 A 
ENDBRANCH  26  30
ENDBRANCH  23  24
ENDBRANCH  22  23
ENDBRANCH  21  22
ENDBRANCH   4  21
TORSDOF 13
ENDMDL
