MODEL 1
REMARK VINA RESULT:      -7.2      0.000      0.000
REMARK  Name = 
REMARK  7 active torsions:
REMARK  status: ('A' for Active; 'I' for Inactive)
REMARK    1  A    between atoms: C_1  and  C_2
REMARK    2  A    between atoms: C_5  and  C_6
REMARK    3  A    between atoms: C_6  and  N_7
REMARK    4  A    between atoms: C_9  and  N_10
REMARK    5  A    between atoms: N_13  and  C_14
REMARK    6  A    between atoms: C_14  and  C_15
REMARK    7  A    between atoms: C_15  and  O_16
REMARK                            x       y       z     vdW  Elec       q    Type
REMARK                         _______ _______ _______ _____ _____    ______ ____
ROOT
ATOM      1  N   UNL     1       2.707   4.653  19.170  0.00  0.00    +0.000 NA
ATOM      2  C   UNL     1       4.122   4.283  19.230  0.00  0.00    +0.000 C 
ATOM      3  C   UNL     1       4.447   3.494  17.927  0.00  0.00    +0.000 C 
ATOM      4  C   UNL     1       3.191   2.646  17.646  0.00  0.00    +0.000 C 
ATOM      5  S   UNL     1       1.807   3.474  18.383  0.00  0.00    +0.000 S 
ATOM      6  O   UNL     1       1.228   2.583  19.361  0.00  0.00    +0.000 OA
ATOM      7  O   UNL     1       1.003   4.118  17.375  0.00  0.00    +0.000 OA
ENDROOT
BRANCH   3   8
ATOM      8  N   UNL     1       4.947   4.334  16.794  0.00  0.00    +0.000 NA
ATOM      9  C   UNL     1       4.704   5.785  17.020  0.00  0.00    +0.000 C 
ATOM     10  C   UNL     1       5.555   6.411  18.157  0.00  0.00    +0.000 C 
ATOM     11  N   UNL     1       7.014   6.174  18.074  0.00  0.00    +0.000 NA
ATOM     12  C   UNL     1       7.276   4.758  17.717  0.00  0.00    +0.000 C 
ATOM     13  C   UNL     1       6.407   4.206  16.560  0.00  0.00    +0.000 C 
BRANCH  11  14
ATOM     14  C   UNL     1       7.689   7.077  17.114  0.00  0.00    +0.000 C 
BRANCH  14  15
ATOM     15  C   UNL     1       7.977   8.472  17.696  0.00  0.00    +0.000 C 
BRANCH  15  16
ATOM     16  O   UNL     1       8.720   8.363  18.908  0.00  0.00    +0.000 OA
ATOM     17  H   UNL     1       8.422   7.527  19.318  0.00  0.00    +0.000 HD
ENDBRANCH  15  16
ENDBRANCH  14  15
ENDBRANCH  11  14
ENDBRANCH   3   8
BRANCH   1  18
ATOM     18  C   UNL     1       2.127   5.363  20.314  0.00  0.00    +0.000 C 
BRANCH  18  23
ATOM     19  C   UNL     1       0.683  10.948  19.473  0.00  0.00    +0.000 C 
ATOM     20  C   UNL     1       1.130   9.536  19.698  0.00  0.00    +0.000 A 
ATOM     21  C   UNL     1       1.757   8.804  18.685  0.00  0.00    +0.000 A 
ATOM     22  C   UNL     1       2.086   7.460  18.883  0.00  0.00    +0.000 A 
ATOM     23  C   UNL     1       1.806   6.824  20.101  0.00  0.00    +0.000 A 
ATOM     24  C   UNL     1       1.214   7.574  21.126  0.00  0.00    +0.000 A 
ATOM     25  C   UNL     1       0.875   8.914  20.924  0.00  0.00    +0.000 A 
ENDBRANCH  18  23
ENDBRANCH   1  18
TORSDOF 6
ENDMDL
MODEL 2
REMARK VINA RESULT:      -7.2      2.239      2.654
REMARK  Name = 
REMARK  7 active torsions:
REMARK  status: ('A' for Active; 'I' for Inactive)
REMARK    1  A    between atoms: C_1  and  C_2
REMARK    2  A    between atoms: C_5  and  C_6
REMARK    3  A    between atoms: C_6  and  N_7
REMARK    4  A    between atoms: C_9  and  N_10
REMARK    5  A    between atoms: N_13  and  C_14
REMARK    6  A    between atoms: C_14  and  C_15
REMARK    7  A    between atoms: C_15  and  O_16
REMARK                            x       y       z     vdW  Elec       q    Type
REMARK                         _______ _______ _______ _____ _____    ______ ____
ROOT
ATOM      1  N   UNL     1       2.753   5.436  19.638  0.00  0.00    +0.000 NA
ATOM      2  C   UNL     1       4.167   5.710  19.374  0.00  0.00    +0.000 C 
ATOM      3  C   UNL     1       4.625   4.724  18.258  0.00  0.00    +0.000 C 
ATOM      4  C   UNL     1       3.890   3.404  18.561  0.00  0.00    +0.000 C 
ATOM      5  S   UNL     1       2.408   3.805  19.447  0.00  0.00    +0.000 S 
ATOM      6  O   UNL     1       2.471   3.149  20.733  0.00  0.00    +0.000 OA
ATOM      7  O   UNL     1       1.254   3.684  18.592  0.00  0.00    +0.000 OA
ENDROOT
BRANCH   3   8
ATOM      8  N   UNL     1       4.494   5.251  16.863  0.00  0.00    +0.000 NA
ATOM      9  C   UNL     1       5.498   6.308  16.565  0.00  0.00    +0.000 C 
ATOM     10  C   UNL     1       6.962   5.799  16.477  0.00  0.00    +0.000 C 
ATOM     11  N   UNL     1       7.190   4.649  15.573  0.00  0.00    +0.000 NA
ATOM     12  C   UNL     1       6.120   3.639  15.761  0.00  0.00    +0.000 C 
ATOM     13  C   UNL     1       4.682   4.215  15.818  0.00  0.00    +0.000 C 
BRANCH  11  14
ATOM     14  C   UNL     1       7.274   5.046  14.149  0.00  0.00    +0.000 C 
BRANCH  14  15
ATOM     15  C   UNL     1       6.668   4.003  13.194  0.00  0.00    +0.000 C 
BRANCH  15  16
ATOM     16  O   UNL     1       7.221   4.140  11.888  0.00  0.00    +0.000 OA
ATOM     17  H   UNL     1       7.561   5.056  11.848  0.00  0.00    +0.000 HD
ENDBRANCH  15  16
ENDBRANCH  14  15
ENDBRANCH  11  14
ENDBRANCH   3   8
BRANCH   1  18
ATOM     18  C   UNL     1       2.086   6.198  20.698  0.00  0.00    +0.000 C 
BRANCH  18  23
ATOM     19  C   UNL     1       0.172  11.525  19.302  0.00  0.00    +0.000 C 
ATOM     20  C   UNL     1       0.739  10.186  19.665  0.00  0.00    +0.000 A 
ATOM     21  C   UNL     1       1.401   9.399  18.718  0.00  0.00    +0.000 A 
ATOM     22  C   UNL     1       1.843   8.115  19.050  0.00  0.00    +0.000 A 
ATOM     23  C   UNL     1       1.643   7.598  20.339  0.00  0.00    +0.000 A 
ATOM     24  C   UNL     1       1.013   8.407  21.293  0.00  0.00    +0.000 A 
ATOM     25  C   UNL     1       0.562   9.685  20.959  0.00  0.00    +0.000 A 
ENDBRANCH  18  23
ENDBRANCH   1  18
TORSDOF 6
ENDMDL
MODEL 3
REMARK VINA RESULT:      -7.2      3.553      5.771
REMARK  Name = 
REMARK  7 active torsions:
REMARK  status: ('A' for Active; 'I' for Inactive)
REMARK    1  A    between atoms: C_1  and  C_2
REMARK    2  A    between atoms: C_5  and  C_6
REMARK    3  A    between atoms: C_6  and  N_7
REMARK    4  A    between atoms: C_9  and  N_10
REMARK    5  A    between atoms: N_13  and  C_14
REMARK    6  A    between atoms: C_14  and  C_15
REMARK    7  A    between atoms: C_15  and  O_16
REMARK                            x       y       z     vdW  Elec       q    Type
REMARK                         _______ _______ _______ _____ _____    ______ ____
ROOT
ATOM      1  N   UNL     1       0.901   9.150  19.326  0.00  0.00    +0.000 NA
ATOM      2  C   UNL     1       2.065   8.397  18.854  0.00  0.00    +0.000 C 
ATOM      3  C   UNL     1       2.218   7.157  19.784  0.00  0.00    +0.000 C 
ATOM      4  C   UNL     1       1.842   7.660  21.192  0.00  0.00    +0.000 C 
ATOM      5  S   UNL     1       0.747   9.040  20.994  0.00  0.00    +0.000 S 
ATOM      6  O   UNL     1       1.369  10.190  21.608  0.00  0.00    +0.000 OA
ATOM      7  O   UNL     1      -0.610   8.662  21.299  0.00  0.00    +0.000 OA
ENDROOT
BRANCH   3   8
ATOM      8  N   UNL     1       1.511   5.926  19.309  0.00  0.00    +0.000 NA
ATOM      9  C   UNL     1       2.277   5.210  18.254  0.00  0.00    +0.000 C 
ATOM     10  C   UNL     1       3.587   4.540  18.750  0.00  0.00    +0.000 C 
ATOM     11  N   UNL     1       3.450   3.656  19.929  0.00  0.00    +0.000 NA
ATOM     12  C   UNL     1       2.578   4.298  20.943  0.00  0.00    +0.000 C 
ATOM     13  C   UNL     1       1.278   4.926  20.381  0.00  0.00    +0.000 C 
BRANCH  11  14
ATOM     14  C   UNL     1       2.931   2.314  19.583  0.00  0.00    +0.000 C 
BRANCH  14  15
ATOM     15  C   UNL     1       3.460   1.790  18.237  0.00  0.00    +0.000 C 
BRANCH  15  16
ATOM     16  O   UNL     1       4.343   0.690  18.441  0.00  0.00    +0.000 OA
ATOM     17  H   UNL     1       5.002   1.007  19.091  0.00  0.00    +0.000 HD
ENDBRANCH  15  16
ENDBRANCH  14  15
ENDBRANCH  11  14
ENDBRANCH   3   8
BRANCH   1  18
ATOM     18  C   UNL     1       0.568  10.406  18.649  0.00  0.00    +0.000 C 
BRANCH  18  23
ATOM     19  C   UNL     1      -5.122  11.174  17.639  0.00  0.00    +0.000 C 
ATOM     20  C   UNL     1      -3.644  11.018  17.832  0.00  0.00    +0.000 A 
ATOM     21  C   UNL     1      -2.911  10.086  17.092  0.00  0.00    +0.000 A 
ATOM     22  C   UNL     1      -1.551   9.892  17.347  0.00  0.00    +0.000 A 
ATOM     23  C   UNL     1      -0.894  10.633  18.341  0.00  0.00    +0.000 A 
ATOM     24  C   UNL     1      -1.626  11.592  19.053  0.00  0.00    +0.000 A 
ATOM     25  C   UNL     1      -2.988  11.779  18.804  0.00  0.00    +0.000 A 
ENDBRANCH  18  23
ENDBRANCH   1  18
TORSDOF 6
ENDMDL
MODEL 4
REMARK VINA RESULT:      -6.9      4.983      8.401
REMARK  Name = 
REMARK  7 active torsions:
REMARK  status: ('A' for Active; 'I' for Inactive)
REMARK    1  A    between atoms: C_1  and  C_2
REMARK    2  A    between atoms: C_5  and  C_6
REMARK    3  A    between atoms: C_6  and  N_7
REMARK    4  A    between atoms: C_9  and  N_10
REMARK    5  A    between atoms: N_13  and  C_14
REMARK    6  A    between atoms: C_14  and  C_15
REMARK    7  A    between atoms: C_15  and  O_16
REMARK                            x       y       z     vdW  Elec       q    Type
REMARK                         _______ _______ _______ _____ _____    ______ ____
ROOT
ATOM      1  N   UNL     1       0.658   9.465  20.793  0.00  0.00    +0.000 NA
ATOM      2  C   UNL     1      -0.600   9.124  20.126  0.00  0.00    +0.000 C 
ATOM      3  C   UNL     1      -1.298  10.465  19.750  0.00  0.00    +0.000 C 
ATOM      4  C   UNL     1      -1.002  11.417  20.925  0.00  0.00    +0.000 C 
ATOM      5  S   UNL     1       0.504  10.877  21.688  0.00  0.00    +0.000 S 
ATOM      6  O   UNL     1       0.209  10.542  23.062  0.00  0.00    +0.000 OA
ATOM      7  O   UNL     1       1.594  11.753  21.341  0.00  0.00    +0.000 OA
ENDROOT
BRANCH   3   8
ATOM      8  N   UNL     1      -0.972  10.979  18.382  0.00  0.00    +0.000 NA
ATOM      9  C   UNL     1      -1.146   9.937  17.334  0.00  0.00    +0.000 C 
ATOM     10  C   UNL     1      -2.620   9.523  17.074  0.00  0.00    +0.000 C 
ATOM     11  N   UNL     1      -3.562  10.634  16.811  0.00  0.00    +0.000 NA
ATOM     12  C   UNL     1      -3.316  11.743  17.765  0.00  0.00    +0.000 C 
ATOM     13  C   UNL     1      -1.825  12.117  17.958  0.00  0.00    +0.000 C 
BRANCH  11  14
ATOM     14  C   UNL     1      -3.489  11.131  15.418  0.00  0.00    +0.000 C 
BRANCH  14  15
ATOM     15  C   UNL     1      -3.696  10.024  14.369  0.00  0.00    +0.000 C 
BRANCH  15  16
ATOM     16  O   UNL     1      -2.582   9.960  13.483  0.00  0.00    +0.000 OA
ATOM     17  H   UNL     1      -2.264   9.037  13.536  0.00  0.00    +0.000 HD
ENDBRANCH  15  16
ENDBRANCH  14  15
ENDBRANCH  11  14
ENDBRANCH   3   8
BRANCH   1  18
ATOM     18  C   UNL     1       1.490   8.371  21.304  0.00  0.00    +0.000 C 
BRANCH  18  23
ATOM     19  C   UNL     1       3.085   4.167  17.594  0.00  0.00    +0.000 C 
ATOM     20  C   UNL     1       2.609   5.258  18.504  0.00  0.00    +0.000 A 
ATOM     21  C   UNL     1       2.733   6.604  18.147  0.00  0.00    +0.000 A 
ATOM     22  C   UNL     1       2.366   7.611  19.045  0.00  0.00    +0.000 A 
ATOM     23  C   UNL     1       1.857   7.291  20.313  0.00  0.00    +0.000 A 
ATOM     24  C   UNL     1       1.700   5.940  20.649  0.00  0.00    +0.000 A 
ATOM     25  C   UNL     1       2.076   4.935  19.756  0.00  0.00    +0.000 A 
ENDBRANCH  18  23
ENDBRANCH   1  18
TORSDOF 6
ENDMDL
MODEL 5
REMARK VINA RESULT:      -6.8      3.475      5.660
REMARK  Name = 
REMARK  7 active torsions:
REMARK  status: ('A' for Active; 'I' for Inactive)
REMARK    1  A    between atoms: C_1  and  C_2
REMARK    2  A    between atoms: C_5  and  C_6
REMARK    3  A    between atoms: C_6  and  N_7
REMARK    4  A    between atoms: C_9  and  N_10
REMARK    5  A    between atoms: N_13  and  C_14
REMARK    6  A    between atoms: C_14  and  C_15
REMARK    7  A    between atoms: C_15  and  O_16
REMARK                            x       y       z     vdW  Elec       q    Type
REMARK                         _______ _______ _______ _____ _____    ______ ____
ROOT
ATOM      1  N   UNL     1       0.910   9.255  19.394  0.00  0.00    +0.000 NA
ATOM      2  C   UNL     1       2.142   8.624  18.919  0.00  0.00    +0.000 C 
ATOM      3  C   UNL     1       2.342   7.322  19.750  0.00  0.00    +0.000 C 
ATOM      4  C   UNL     1       1.872   7.677  21.174  0.00  0.00    +0.000 C 
ATOM      5  S   UNL     1       0.692   8.993  21.038  0.00  0.00    +0.000 S 
ATOM      6  O   UNL     1       1.206  10.125  21.774  0.00  0.00    +0.000 OA
ATOM      7  O   UNL     1      -0.647   8.502  21.244  0.00  0.00    +0.000 OA
ENDROOT
BRANCH   3   8
ATOM      8  N   UNL     1       1.744   6.092  19.141  0.00  0.00    +0.000 NA
ATOM      9  C   UNL     1       2.204   5.877  17.742  0.00  0.00    +0.000 C 
ATOM     10  C   UNL     1       3.701   5.489  17.608  0.00  0.00    +0.000 C 
ATOM     11  N   UNL     1       4.148   4.351  18.443  0.00  0.00    +0.000 NA
ATOM     12  C   UNL     1       3.589   4.478  19.811  0.00  0.00    +0.000 C 
ATOM     13  C   UNL     1       2.084   4.845  19.869  0.00  0.00    +0.000 C 
BRANCH  11  14
ATOM     14  C   UNL     1       3.788   3.037  17.863  0.00  0.00    +0.000 C 
BRANCH  14  15
ATOM     15  C   UNL     1       3.572   1.946  18.926  0.00  0.00    +0.000 C 
BRANCH  15  16
ATOM     16  O   UNL     1       2.300   1.327  18.755  0.00  0.00    +0.000 OA
ATOM     17  H   UNL     1       2.477   0.366  18.773  0.00  0.00    +0.000 HD
ENDBRANCH  15  16
ENDBRANCH  14  15
ENDBRANCH  11  14
ENDBRANCH   3   8
BRANCH   1  18
ATOM     18  C   UNL     1       0.519  10.540  18.808  0.00  0.00    +0.000 C 
BRANCH  18  23
ATOM     19  C   UNL     1      -5.069  11.275  17.316  0.00  0.00    +0.000 C 
ATOM     20  C   UNL     1      -3.658  11.044  17.763  0.00  0.00    +0.000 A 
ATOM     21  C   UNL     1      -3.095  11.794  18.801  0.00  0.00    +0.000 A 
ATOM     22  C   UNL     1      -1.751  11.629  19.145  0.00  0.00    +0.000 A 
ATOM     23  C   UNL     1      -0.945  10.702  18.466  0.00  0.00    +0.000 A 
ATOM     24  C   UNL     1      -1.525   9.927  17.454  0.00  0.00    +0.000 A 
ATOM     25  C   UNL     1      -2.865  10.100  17.103  0.00  0.00    +0.000 A 
ENDBRANCH  18  23
ENDBRANCH   1  18
TORSDOF 6
ENDMDL
MODEL 6
REMARK VINA RESULT:      -6.8      5.073      8.585
REMARK  Name = 
REMARK  7 active torsions:
REMARK  status: ('A' for Active; 'I' for Inactive)
REMARK    1  A    between atoms: C_1  and  C_2
REMARK    2  A    between atoms: C_5  and  C_6
REMARK    3  A    between atoms: C_6  and  N_7
REMARK    4  A    between atoms: C_9  and  N_10
REMARK    5  A    between atoms: N_13  and  C_14
REMARK    6  A    between atoms: C_14  and  C_15
REMARK    7  A    between atoms: C_15  and  O_16
REMARK                            x       y       z     vdW  Elec       q    Type
REMARK                         _______ _______ _______ _____ _____    ______ ____
ROOT
ATOM      1  N   UNL     1       0.678   9.562  20.807  0.00  0.00    +0.000 NA
ATOM      2  C   UNL     1      -0.565   9.155  20.149  0.00  0.00    +0.000 C 
ATOM      3  C   UNL     1      -1.343  10.456  19.791  0.00  0.00    +0.000 C 
ATOM      4  C   UNL     1      -1.091  11.413  20.973  0.00  0.00    +0.000 C 
ATOM      5  S   UNL     1       0.451  10.955  21.717  0.00  0.00    +0.000 S 
ATOM      6  O   UNL     1       0.190  10.591  23.090  0.00  0.00    +0.000 OA
ATOM      7  O   UNL     1       1.486  11.895  21.368  0.00  0.00    +0.000 OA
ENDROOT
BRANCH   3   8
ATOM      8  N   UNL     1      -1.062  11.000  18.426  0.00  0.00    +0.000 NA
ATOM      9  C   UNL     1      -1.246   9.974  17.363  0.00  0.00    +0.000 C 
ATOM     10  C   UNL     1      -2.719   9.541  17.134  0.00  0.00    +0.000 C 
ATOM     11  N   UNL     1      -3.685  10.641  16.915  0.00  0.00    +0.000 NA
ATOM     12  C   UNL     1      -3.433  11.736  17.883  0.00  0.00    +0.000 C 
ATOM     13  C   UNL     1      -1.943  12.132  18.045  0.00  0.00    +0.000 C 
BRANCH  11  14
ATOM     14  C   UNL     1      -3.656  11.164  15.531  0.00  0.00    +0.000 C 
BRANCH  14  15
ATOM     15  C   UNL     1      -3.405  10.071  14.477  0.00  0.00    +0.000 C 
BRANCH  15  16
ATOM     16  O   UNL     1      -4.599   9.796  13.749  0.00  0.00    +0.000 OA
ATOM     17  H   UNL     1      -5.182   9.329  14.379  0.00  0.00    +0.000 HD
ENDBRANCH  15  16
ENDBRANCH  14  15
ENDBRANCH  11  14
ENDBRANCH   3   8
BRANCH   1  18
ATOM     18  C   UNL     1       1.576   8.514  21.299  0.00  0.00    +0.000 C 
BRANCH  18  23
ATOM     19  C   UNL     1       2.439   4.132  17.551  0.00  0.00    +0.000 C 
ATOM     20  C   UNL     1       2.287   5.239  18.550  0.00  0.00    +0.000 A 
ATOM     21  C   UNL     1       1.869   4.982  19.859  0.00  0.00    +0.000 A 
ATOM     22  C   UNL     1       1.646   6.035  20.750  0.00  0.00    +0.000 A 
ATOM     23  C   UNL     1       1.847   7.366  20.354  0.00  0.00    +0.000 A 
ATOM     24  C   UNL     1       2.303   7.614  19.053  0.00  0.00    +0.000 A 
ATOM     25  C   UNL     1       2.516   6.563  18.159  0.00  0.00    +0.000 A 
ENDBRANCH  18  23
ENDBRANCH   1  18
TORSDOF 6
ENDMDL
MODEL 7
REMARK VINA RESULT:      -6.7      2.012      2.339
REMARK  Name = 
REMARK  7 active torsions:
REMARK  status: ('A' for Active; 'I' for Inactive)
REMARK    1  A    between atoms: C_1  and  C_2
REMARK    2  A    between atoms: C_5  and  C_6
REMARK    3  A    between atoms: C_6  and  N_7
REMARK    4  A    between atoms: C_9  and  N_10
REMARK    5  A    between atoms: N_13  and  C_14
REMARK    6  A    between atoms: C_14  and  C_15
REMARK    7  A    between atoms: C_15  and  O_16
REMARK                            x       y       z     vdW  Elec       q    Type
REMARK                         _______ _______ _______ _____ _____    ______ ____
ROOT
ATOM      1  N   UNL     1       2.331   5.310  20.452  0.00  0.00    +0.000 NA
ATOM      2  C   UNL     1       3.687   5.354  19.903  0.00  0.00    +0.000 C 
ATOM      3  C   UNL     1       3.880   4.061  19.055  0.00  0.00    +0.000 C 
ATOM      4  C   UNL     1       3.139   2.955  19.832  0.00  0.00    +0.000 C 
ATOM      5  S   UNL     1       1.865   3.733  20.789  0.00  0.00    +0.000 S 
ATOM      6  O   UNL     1       2.121   3.446  22.181  0.00  0.00    +0.000 OA
ATOM      7  O   UNL     1       0.571   3.507  20.196  0.00  0.00    +0.000 OA
ENDROOT
BRANCH   3   8
ATOM      8  N   UNL     1       3.530   4.203  17.606  0.00  0.00    +0.000 NA
ATOM      9  C   UNL     1       3.590   5.618  17.150  0.00  0.00    +0.000 C 
ATOM     10  C   UNL     1       5.021   6.218  17.096  0.00  0.00    +0.000 C 
ATOM     11  N   UNL     1       6.022   5.427  16.345  0.00  0.00    +0.000 NA
ATOM     12  C   UNL     1       5.890   3.990  16.688  0.00  0.00    +0.000 C 
ATOM     13  C   UNL     1       4.437   3.453  16.702  0.00  0.00    +0.000 C 
BRANCH  11  14
ATOM     14  C   UNL     1       5.921   5.615  14.880  0.00  0.00    +0.000 C 
BRANCH  14  15
ATOM     15  C   UNL     1       7.007   4.857  14.098  0.00  0.00    +0.000 C 
BRANCH  15  16
ATOM     16  O   UNL     1       8.173   5.664  13.953  0.00  0.00    +0.000 OA
ATOM     17  H   UNL     1       8.624   5.324  13.155  0.00  0.00    +0.000 HD
ENDBRANCH  15  16
ENDBRANCH  14  15
ENDBRANCH  11  14
ENDBRANCH   3   8
BRANCH   1  18
ATOM     18  C   UNL     1       1.910   6.395  21.344  0.00  0.00    +0.000 C 
BRANCH  18  23
ATOM     19  C   UNL     1      -0.202  11.149  18.712  0.00  0.00    +0.000 C 
ATOM     20  C   UNL     1       0.406   9.970  19.408  0.00  0.00    +0.000 A 
ATOM     21  C   UNL     1       1.405   9.205  18.798  0.00  0.00    +0.000 A 
ATOM     22  C   UNL     1       1.898   8.056  19.423  0.00  0.00    +0.000 A 
ATOM     23  C   UNL     1       1.409   7.655  20.675  0.00  0.00    +0.000 A 
ATOM     24  C   UNL     1       0.435   8.447  21.297  0.00  0.00    +0.000 A 
ATOM     25  C   UNL     1      -0.064   9.589  20.668  0.00  0.00    +0.000 A 
ENDBRANCH  18  23
ENDBRANCH   1  18
TORSDOF 6
ENDMDL
MODEL 8
REMARK VINA RESULT:      -6.6      2.129      2.618
REMARK  Name = 
REMARK  7 active torsions:
REMARK  status: ('A' for Active; 'I' for Inactive)
REMARK    1  A    between atoms: C_1  and  C_2
REMARK    2  A    between atoms: C_5  and  C_6
REMARK    3  A    between atoms: C_6  and  N_7
REMARK    4  A    between atoms: C_9  and  N_10
REMARK    5  A    between atoms: N_13  and  C_14
REMARK    6  A    between atoms: C_14  and  C_15
REMARK    7  A    between atoms: C_15  and  O_16
REMARK                            x       y       z     vdW  Elec       q    Type
REMARK                         _______ _______ _______ _____ _____    ______ ____
ROOT
ATOM      1  N   UNL     1       2.927   5.419  19.585  0.00  0.00    +0.000 NA
ATOM      2  C   UNL     1       4.309   5.727  19.213  0.00  0.00    +0.000 C 
ATOM      3  C   UNL     1       4.736   4.693  18.130  0.00  0.00    +0.000 C 
ATOM      4  C   UNL     1       4.075   3.367  18.556  0.00  0.00    +0.000 C 
ATOM      5  S   UNL     1       2.636   3.767  19.512  0.00  0.00    +0.000 S 
ATOM      6  O   UNL     1       2.806   3.194  20.828  0.00  0.00    +0.000 OA
ATOM      7  O   UNL     1       1.437   3.553  18.743  0.00  0.00    +0.000 OA
ENDROOT
BRANCH   3   8
ATOM      8  N   UNL     1       4.496   5.129  16.718  0.00  0.00    +0.000 NA
ATOM      9  C   UNL     1       5.396   6.243  16.314  0.00  0.00    +0.000 C 
ATOM     10  C   UNL     1       6.890   5.847  16.176  0.00  0.00    +0.000 C 
ATOM     11  N   UNL     1       7.168   4.670  15.323  0.00  0.00    +0.000 NA
ATOM     12  C   UNL     1       6.194   3.590  15.618  0.00  0.00    +0.000 C 
ATOM     13  C   UNL     1       4.718   4.054  15.720  0.00  0.00    +0.000 C 
BRANCH  11  14
ATOM     14  C   UNL     1       7.152   4.991  13.878  0.00  0.00    +0.000 C 
BRANCH  14  15
ATOM     15  C   UNL     1       8.512   5.486  13.354  0.00  0.00    +0.000 C 
BRANCH  15  16
ATOM     16  O   UNL     1       8.334   6.311  12.206  0.00  0.00    +0.000 OA
ATOM     17  H   UNL     1       8.466   7.226  12.524  0.00  0.00    +0.000 HD
ENDBRANCH  15  16
ENDBRANCH  14  15
ENDBRANCH  11  14
ENDBRANCH   3   8
BRANCH   1  18
ATOM     18  C   UNL     1       2.299   6.219  20.640  0.00  0.00    +0.000 C 
BRANCH  18  23
ATOM     19  C   UNL     1       0.526  11.545  19.066  0.00  0.00    +0.000 C 
ATOM     20  C   UNL     1       0.905  10.152  19.468  0.00  0.00    +0.000 A 
ATOM     21  C   UNL     1       0.721   9.701  20.779  0.00  0.00    +0.000 A 
ATOM     22  C   UNL     1       1.163   8.430  21.158  0.00  0.00    +0.000 A 
ATOM     23  C   UNL     1       1.787   7.581  20.232  0.00  0.00    +0.000 A 
ATOM     24  C   UNL     1       1.933   8.025  18.911  0.00  0.00    +0.000 A 
ATOM     25  C   UNL     1       1.501   9.298  18.535  0.00  0.00    +0.000 A 
ENDBRANCH  18  23
ENDBRANCH   1  18
TORSDOF 6
ENDMDL
MODEL 9
REMARK VINA RESULT:      -6.6      2.083      3.068
REMARK  Name = 
REMARK  7 active torsions:
REMARK  status: ('A' for Active; 'I' for Inactive)
REMARK    1  A    between atoms: C_1  and  C_2
REMARK    2  A    between atoms: C_5  and  C_6
REMARK    3  A    between atoms: C_6  and  N_7
REMARK    4  A    between atoms: C_9  and  N_10
REMARK    5  A    between atoms: N_13  and  C_14
REMARK    6  A    between atoms: C_14  and  C_15
REMARK    7  A    between atoms: C_15  and  O_16
REMARK                            x       y       z     vdW  Elec       q    Type
REMARK                         _______ _______ _______ _____ _____    ______ ____
ROOT
ATOM      1  N   UNL     1       3.075   5.453  19.337  0.00  0.00    +0.000 NA
ATOM      2  C   UNL     1       4.512   5.491  19.613  0.00  0.00    +0.000 C 
ATOM      3  C   UNL     1       5.230   4.831  18.398  0.00  0.00    +0.000 C 
ATOM      4  C   UNL     1       4.312   3.668  17.971  0.00  0.00    +0.000 C 
ATOM      5  S   UNL     1       2.661   4.075  18.472  0.00  0.00    +0.000 S 
ATOM      6  O   UNL     1       2.212   3.053  19.389  0.00  0.00    +0.000 OA
ATOM      7  O   UNL     1       1.867   4.475  17.338  0.00  0.00    +0.000 OA
ENDROOT
BRANCH   3   8
ATOM      8  N   UNL     1       5.640   5.783  17.319  0.00  0.00    +0.000 NA
ATOM      9  C   UNL     1       7.082   5.655  16.973  0.00  0.00    +0.000 C 
ATOM     10  C   UNL     1       7.458   4.329  16.259  0.00  0.00    +0.000 C 
ATOM     11  N   UNL     1       6.645   3.987  15.069  0.00  0.00    +0.000 NA
ATOM     12  C   UNL     1       5.210   4.235  15.350  0.00  0.00    +0.000 C 
ATOM     13  C   UNL     1       4.906   5.587  16.044  0.00  0.00    +0.000 C 
BRANCH  11  14
ATOM     14  C   UNL     1       7.065   4.724  13.856  0.00  0.00    +0.000 C 
BRANCH  14  15
ATOM     15  C   UNL     1       6.476   4.139  12.560  0.00  0.00    +0.000 C 
BRANCH  15  16
ATOM     16  O   UNL     1       6.441   2.716  12.626  0.00  0.00    +0.000 OA
ATOM     17  H   UNL     1       7.376   2.439  12.697  0.00  0.00    +0.000 HD
ENDBRANCH  15  16
ENDBRANCH  14  15
ENDBRANCH  11  14
ENDBRANCH   3   8
BRANCH   1  18
ATOM     18  C   UNL     1       2.160   5.968  20.360  0.00  0.00    +0.000 C 
BRANCH  18  23
ATOM     19  C   UNL     1       0.493  11.509  19.649  0.00  0.00    +0.000 C 
ATOM     20  C   UNL     1       0.845  10.063  19.825  0.00  0.00    +0.000 A 
ATOM     21  C   UNL     1       0.646   9.413  21.047  0.00  0.00    +0.000 A 
ATOM     22  C   UNL     1       1.062   8.090  21.220  0.00  0.00    +0.000 A 
ATOM     23  C   UNL     1       1.675   7.387  20.173  0.00  0.00    +0.000 A 
ATOM     24  C   UNL     1       1.837   8.032  18.940  0.00  0.00    +0.000 A 
ATOM     25  C   UNL     1       1.430   9.357  18.769  0.00  0.00    +0.000 A 
ENDBRANCH  18  23
ENDBRANCH   1  18
TORSDOF 6
ENDMDL
