MODEL 1
REMARK VINA RESULT:      -8.5      0.000      0.000
REMARK  Name = 
REMARK  4 active torsions:
REMARK  status: ('A' for Active; 'I' for Inactive)
REMARK    1  A    between atoms: C_2  and  C_3
REMARK    2  A    between atoms: C_2  and  C_14
REMARK    3  A    between atoms: C_3  and  C_4
REMARK    4  A    between atoms: C_4  and  N_5
REMARK                            x       y       z     vdW  Elec       q    Type
REMARK                         _______ _______ _______ _____ _____    ______ ____
ROOT
ATOM      1  O   UNL     1       5.490   5.474  19.340  0.00  0.00    +0.000 OA
ATOM      2  C   UNL     1       4.506   5.174  18.657  0.00  0.00    +0.000 C 
ENDROOT
BRANCH   2   3
ATOM      3  C   UNL     1       3.361   4.353  19.252  0.00  0.00    +0.000 C 
ATOM      4  C   UNL     1       2.830   5.029  20.536  0.00  0.00    +0.000 C 
ATOM      5  C   UNL     1       1.759   4.142  21.200  0.00  0.00    +0.000 C 
ATOM      6  C   UNL     1       0.592   3.934  20.219  0.00  0.00    +0.000 C 
ATOM      7  C   UNL     1       1.098   3.259  18.932  0.00  0.00    +0.000 C 
ATOM      8  C   UNL     1       1.711   1.895  19.286  0.00  0.00    +0.000 C 
ATOM      9  C   UNL     1       2.875   2.081  20.269  0.00  0.00    +0.000 C 
ATOM     10  C   UNL     1       2.372   2.774  21.546  0.00  0.00    +0.000 C 
ATOM     11  C   UNL     1       3.939   2.962  19.617  0.00  0.00    +0.000 C 
ATOM     12  C   UNL     1       2.174   4.149  18.283  0.00  0.00    +0.000 C 
ENDBRANCH   2   3
BRANCH   2  13
ATOM     13  C   UNL     1       4.392   5.671  17.235  0.00  0.00    +0.000 C 
BRANCH  13  14
ATOM     14  C   UNL     1       4.692   4.512  16.287  0.00  0.00    +0.000 C 
BRANCH  14  15
ATOM     15  N   UNL     1       5.804   4.786  15.413  0.00  0.00    +0.000 N 
ATOM     16  C   UNL     1       6.906   5.531  15.720  0.00  0.00    +0.000 A 
ATOM     17  N   UNL     1       7.760   5.562  14.719  0.00  0.00    +0.000 NA
ATOM     18  C   UNL     1       7.177   4.813  13.725  0.00  0.00    +0.000 A 
ATOM     19  C   UNL     1       7.652   4.492  12.445  0.00  0.00    +0.000 A 
ATOM     20  C   UNL     1       6.851   3.698  11.613  0.00  0.00    +0.000 A 
ATOM     21  C   UNL     1       5.605   3.233  12.038  0.00  0.00    +0.000 A 
ATOM     22  C   UNL     1       5.120   3.539  13.313  0.00  0.00    +0.000 A 
ATOM     23  C   UNL     1       5.938   4.326  14.128  0.00  0.00    +0.000 A 
ENDBRANCH  14  15
ENDBRANCH  13  14
ENDBRANCH   2  13
TORSDOF 4
ENDMDL
MODEL 2
REMARK VINA RESULT:      -8.4      5.357      8.370
REMARK  Name = 
REMARK  4 active torsions:
REMARK  status: ('A' for Active; 'I' for Inactive)
REMARK    1  A    between atoms: C_2  and  C_3
REMARK    2  A    between atoms: C_2  and  C_14
REMARK    3  A    between atoms: C_3  and  C_4
REMARK    4  A    between atoms: C_4  and  N_5
REMARK                            x       y       z     vdW  Elec       q    Type
REMARK                         _______ _______ _______ _____ _____    ______ ____
ROOT
ATOM      1  O   UNL     1       2.814   7.412  18.593  0.00  0.00    +0.000 OA
ATOM      2  C   UNL     1       2.292   6.759  19.502  0.00  0.00    +0.000 C 
ENDROOT
BRANCH   2   3
ATOM      3  C   UNL     1       2.239   5.232  19.438  0.00  0.00    +0.000 C 
ATOM      4  C   UNL     1       1.206   4.691  20.451  0.00  0.00    +0.000 C 
ATOM      5  C   UNL     1       1.236   3.150  20.471  0.00  0.00    +0.000 C 
ATOM      6  C   UNL     1       0.897   2.616  19.069  0.00  0.00    +0.000 C 
ATOM      7  C   UNL     1       1.916   3.142  18.043  0.00  0.00    +0.000 C 
ATOM      8  C   UNL     1       3.321   2.664  18.439  0.00  0.00    +0.000 C 
ATOM      9  C   UNL     1       3.678   3.182  19.839  0.00  0.00    +0.000 C 
ATOM     10  C   UNL     1       2.647   2.673  20.860  0.00  0.00    +0.000 C 
ATOM     11  C   UNL     1       3.645   4.710  19.826  0.00  0.00    +0.000 C 
ATOM     12  C   UNL     1       1.883   4.682  18.038  0.00  0.00    +0.000 C 
ENDBRANCH   2   3
BRANCH   2  13
ATOM     13  C   UNL     1       1.751   7.462  20.725  0.00  0.00    +0.000 C 
BRANCH  13  14
ATOM     14  C   UNL     1       1.221   8.832  20.306  0.00  0.00    +0.000 C 
BRANCH  14  15
ATOM     15  N   UNL     1       0.534   9.510  21.376  0.00  0.00    +0.000 N 
ATOM     16  C   UNL     1       0.690   9.273  22.711  0.00  0.00    +0.000 A 
ATOM     17  N   UNL     1      -0.053  10.084  23.434  0.00  0.00    +0.000 NA
ATOM     18  C   UNL     1      -0.720  10.869  22.523  0.00  0.00    +0.000 A 
ATOM     19  C   UNL     1      -1.629  11.916  22.733  0.00  0.00    +0.000 A 
ATOM     20  C   UNL     1      -2.173  12.565  21.616  0.00  0.00    +0.000 A 
ATOM     21  C   UNL     1      -1.827  12.184  20.320  0.00  0.00    +0.000 A 
ATOM     22  C   UNL     1      -0.917  11.146  20.092  0.00  0.00    +0.000 A 
ATOM     23  C   UNL     1      -0.382  10.518  21.220  0.00  0.00    +0.000 A 
ENDBRANCH  14  15
ENDBRANCH  13  14
ENDBRANCH   2  13
TORSDOF 4
ENDMDL
MODEL 3
REMARK VINA RESULT:      -8.4      5.390      8.531
REMARK  Name = 
REMARK  4 active torsions:
REMARK  status: ('A' for Active; 'I' for Inactive)
REMARK    1  A    between atoms: C_2  and  C_3
REMARK    2  A    between atoms: C_2  and  C_14
REMARK    3  A    between atoms: C_3  and  C_4
REMARK    4  A    between atoms: C_4  and  N_5
REMARK                            x       y       z     vdW  Elec       q    Type
REMARK                         _______ _______ _______ _____ _____    ______ ____
ROOT
ATOM      1  O   UNL     1       2.796   7.498  18.630  0.00  0.00    +0.000 OA
ATOM      2  C   UNL     1       2.291   6.807  19.520  0.00  0.00    +0.000 C 
ENDROOT
BRANCH   2   3
ATOM      3  C   UNL     1       2.337   5.280  19.446  0.00  0.00    +0.000 C 
ATOM      4  C   UNL     1       1.783   4.795  18.087  0.00  0.00    +0.000 C 
ATOM      5  C   UNL     1       1.719   3.256  18.058  0.00  0.00    +0.000 C 
ATOM      6  C   UNL     1       3.132   2.683  18.262  0.00  0.00    +0.000 C 
ATOM      7  C   UNL     1       3.702   3.152  19.612  0.00  0.00    +0.000 C 
ATOM      8  C   UNL     1       2.789   2.658  20.744  0.00  0.00    +0.000 C 
ATOM      9  C   UNL     1       1.371   3.214  20.556  0.00  0.00    +0.000 C 
ATOM     10  C   UNL     1       0.810   2.761  19.198  0.00  0.00    +0.000 C 
ATOM     11  C   UNL     1       1.430   4.741  20.580  0.00  0.00    +0.000 C 
ATOM     12  C   UNL     1       3.754   4.692  19.632  0.00  0.00    +0.000 C 
ENDBRANCH   2   3
BRANCH   2  13
ATOM     13  C   UNL     1       1.672   7.466  20.730  0.00  0.00    +0.000 C 
BRANCH  13  14
ATOM     14  C   UNL     1       1.179   8.855  20.331  0.00  0.00    +0.000 C 
BRANCH  14  15
ATOM     15  N   UNL     1       0.499   9.531  21.406  0.00  0.00    +0.000 N 
ATOM     16  C   UNL     1       0.648   9.277  22.739  0.00  0.00    +0.000 A 
ATOM     17  N   UNL     1      -0.085  10.090  23.469  0.00  0.00    +0.000 NA
ATOM     18  C   UNL     1      -0.738  10.895  22.566  0.00  0.00    +0.000 A 
ATOM     19  C   UNL     1      -1.633  11.953  22.786  0.00  0.00    +0.000 A 
ATOM     20  C   UNL     1      -2.164  12.622  21.675  0.00  0.00    +0.000 A 
ATOM     21  C   UNL     1      -1.821  12.250  20.375  0.00  0.00    +0.000 A 
ATOM     22  C   UNL     1      -0.926  11.202  20.138  0.00  0.00    +0.000 A 
ATOM     23  C   UNL     1      -0.403  10.554  21.259  0.00  0.00    +0.000 A 
ENDBRANCH  14  15
ENDBRANCH  13  14
ENDBRANCH   2  13
TORSDOF 4
ENDMDL
MODEL 4
REMARK VINA RESULT:      -8.4      2.392      3.266
REMARK  Name = 
REMARK  4 active torsions:
REMARK  status: ('A' for Active; 'I' for Inactive)
REMARK    1  A    between atoms: C_2  and  C_3
REMARK    2  A    between atoms: C_2  and  C_14
REMARK    3  A    between atoms: C_3  and  C_4
REMARK    4  A    between atoms: C_4  and  N_5
REMARK                            x       y       z     vdW  Elec       q    Type
REMARK                         _______ _______ _______ _____ _____    ______ ____
ROOT
ATOM      1  O   UNL     1       2.461   7.086  20.164  0.00  0.00    +0.000 OA
ATOM      2  C   UNL     1       2.406   6.396  19.142  0.00  0.00    +0.000 C 
ENDROOT
BRANCH   2   3
ATOM      3  C   UNL     1       2.240   4.877  19.229  0.00  0.00    +0.000 C 
ATOM      4  C   UNL     1       1.001   4.525  20.081  0.00  0.00    +0.000 C 
ATOM      5  C   UNL     1       0.901   2.998  20.268  0.00  0.00    +0.000 C 
ATOM      6  C   UNL     1       0.777   2.324  18.891  0.00  0.00    +0.000 C 
ATOM      7  C   UNL     1       2.004   2.661  18.026  0.00  0.00    +0.000 C 
ATOM      8  C   UNL     1       3.271   2.148  18.728  0.00  0.00    +0.000 C 
ATOM      9  C   UNL     1       3.411   2.805  20.107  0.00  0.00    +0.000 C 
ATOM     10  C   UNL     1       2.175   2.485  20.963  0.00  0.00    +0.000 C 
ATOM     11  C   UNL     1       3.506   4.320  19.928  0.00  0.00    +0.000 C 
ATOM     12  C   UNL     1       2.098   4.188  17.853  0.00  0.00    +0.000 C 
ENDBRANCH   2   3
BRANCH   2  13
ATOM     13  C   UNL     1       2.441   7.054  17.783  0.00  0.00    +0.000 C 
BRANCH  13  14
ATOM     14  C   UNL     1       3.810   7.703  17.589  0.00  0.00    +0.000 C 
BRANCH  14  15
ATOM     15  N   UNL     1       4.723   6.860  16.860  0.00  0.00    +0.000 N 
ATOM     16  C   UNL     1       4.745   6.677  15.507  0.00  0.00    +0.000 A 
ATOM     17  N   UNL     1       5.724   5.874  15.146  0.00  0.00    +0.000 NA
ATOM     18  C   UNL     1       6.351   5.521  16.317  0.00  0.00    +0.000 A 
ATOM     19  C   UNL     1       7.469   4.701  16.527  0.00  0.00    +0.000 A 
ATOM     20  C   UNL     1       7.915   4.500  17.840  0.00  0.00    +0.000 A 
ATOM     21  C   UNL     1       7.267   5.096  18.923  0.00  0.00    +0.000 A 
ATOM     22  C   UNL     1       6.155   5.921  18.731  0.00  0.00    +0.000 A 
ATOM     23  C   UNL     1       5.731   6.113  17.414  0.00  0.00    +0.000 A 
ENDBRANCH  14  15
ENDBRANCH  13  14
ENDBRANCH   2  13
TORSDOF 4
ENDMDL
MODEL 5
REMARK VINA RESULT:      -8.4      0.153      1.544
REMARK  Name = 
REMARK  4 active torsions:
REMARK  status: ('A' for Active; 'I' for Inactive)
REMARK    1  A    between atoms: C_2  and  C_3
REMARK    2  A    between atoms: C_2  and  C_14
REMARK    3  A    between atoms: C_3  and  C_4
REMARK    4  A    between atoms: C_4  and  N_5
REMARK                            x       y       z     vdW  Elec       q    Type
REMARK                         _______ _______ _______ _____ _____    ______ ____
ROOT
ATOM      1  O   UNL     1       5.434   5.609  19.323  0.00  0.00    +0.000 OA
ATOM      2  C   UNL     1       4.529   5.148  18.620  0.00  0.00    +0.000 C 
ENDROOT
BRANCH   2   3
ATOM      3  C   UNL     1       3.441   4.260  19.227  0.00  0.00    +0.000 C 
ATOM      4  C   UNL     1       2.227   4.180  18.276  0.00  0.00    +0.000 C 
ATOM      5  C   UNL     1       1.085   3.383  18.937  0.00  0.00    +0.000 C 
ATOM      6  C   UNL     1       1.575   1.959  19.253  0.00  0.00    +0.000 C 
ATOM      7  C   UNL     1       2.785   2.016  20.202  0.00  0.00    +0.000 C 
ATOM      8  C   UNL     1       2.368   2.708  21.508  0.00  0.00    +0.000 C 
ATOM      9  C   UNL     1       1.871   4.130  21.214  0.00  0.00    +0.000 C 
ATOM     10  C   UNL     1       0.675   4.074  20.250  0.00  0.00    +0.000 C 
ATOM     11  C   UNL     1       2.999   4.924  20.555  0.00  0.00    +0.000 C 
ATOM     12  C   UNL     1       3.915   2.821  19.534  0.00  0.00    +0.000 C 
ENDBRANCH   2   3
BRANCH   2  13
ATOM     13  C   UNL     1       4.451   5.509  17.155  0.00  0.00    +0.000 C 
BRANCH  13  14
ATOM     14  C   UNL     1       4.918   4.311  16.332  0.00  0.00    +0.000 C 
BRANCH  14  15
ATOM     15  N   UNL     1       5.951   4.657  15.389  0.00  0.00    +0.000 N 
ATOM     16  C   UNL     1       7.038   5.444  15.637  0.00  0.00    +0.000 A 
ATOM     17  N   UNL     1       7.815   5.539  14.580  0.00  0.00    +0.000 NA
ATOM     18  C   UNL     1       7.197   4.789  13.609  0.00  0.00    +0.000 A 
ATOM     19  C   UNL     1       7.592   4.521  12.290  0.00  0.00    +0.000 A 
ATOM     20  C   UNL     1       6.768   3.711  11.496  0.00  0.00    +0.000 A 
ATOM     21  C   UNL     1       5.579   3.180  11.995  0.00  0.00    +0.000 A 
ATOM     22  C   UNL     1       5.173   3.431  13.309  0.00  0.00    +0.000 A 
ATOM     23  C   UNL     1       6.012   4.235  14.085  0.00  0.00    +0.000 A 
ENDBRANCH  14  15
ENDBRANCH  13  14
ENDBRANCH   2  13
TORSDOF 4
ENDMDL
MODEL 6
REMARK VINA RESULT:      -8.3      5.462      8.589
REMARK  Name = 
REMARK  4 active torsions:
REMARK  status: ('A' for Active; 'I' for Inactive)
REMARK    1  A    between atoms: C_2  and  C_3
REMARK    2  A    between atoms: C_2  and  C_14
REMARK    3  A    between atoms: C_3  and  C_4
REMARK    4  A    between atoms: C_4  and  N_5
REMARK                            x       y       z     vdW  Elec       q    Type
REMARK                         _______ _______ _______ _____ _____    ______ ____
ROOT
ATOM      1  O   UNL     1       2.716   7.644  18.502  0.00  0.00    +0.000 OA
ATOM      2  C   UNL     1       2.298   6.983  19.457  0.00  0.00    +0.000 C 
ENDROOT
BRANCH   2   3
ATOM      3  C   UNL     1       2.327   5.454  19.424  0.00  0.00    +0.000 C 
ATOM      4  C   UNL     1       3.762   4.942  19.681  0.00  0.00    +0.000 C 
ATOM      5  C   UNL     1       3.815   3.410  19.531  0.00  0.00    +0.000 C 
ATOM      6  C   UNL     1       2.859   2.765  20.549  0.00  0.00    +0.000 C 
ATOM      7  C   UNL     1       1.421   3.260  20.310  0.00  0.00    +0.000 C 
ATOM      8  C   UNL     1       0.985   2.870  18.890  0.00  0.00    +0.000 C 
ATOM      9  C   UNL     1       1.930   3.499  17.858  0.00  0.00    +0.000 C 
ATOM     10  C   UNL     1       3.369   3.020  18.111  0.00  0.00    +0.000 C 
ATOM     11  C   UNL     1       1.884   5.020  18.004  0.00  0.00    +0.000 C 
ATOM     12  C   UNL     1       1.382   4.793  20.454  0.00  0.00    +0.000 C 
ENDBRANCH   2   3
BRANCH   2  13
ATOM     13  C   UNL     1       1.806   7.682  20.703  0.00  0.00    +0.000 C 
BRANCH  13  14
ATOM     14  C   UNL     1       1.037   8.935  20.290  0.00  0.00    +0.000 C 
BRANCH  14  15
ATOM     15  N   UNL     1       0.397   9.584  21.405  0.00  0.00    +0.000 N 
ATOM     16  C   UNL     1       0.569   9.276  22.724  0.00  0.00    +0.000 A 
ATOM     17  N   UNL     1      -0.129  10.078  23.500  0.00  0.00    +0.000 NA
ATOM     18  C   UNL     1      -0.783  10.930  22.643  0.00  0.00    +0.000 A 
ATOM     19  C   UNL     1      -1.649  11.998  22.922  0.00  0.00    +0.000 A 
ATOM     20  C   UNL     1      -2.189  12.720  21.849  0.00  0.00    +0.000 A 
ATOM     21  C   UNL     1      -1.883  12.390  20.528  0.00  0.00    +0.000 A 
ATOM     22  C   UNL     1      -1.017  11.333  20.233  0.00  0.00    +0.000 A 
ATOM     23  C   UNL     1      -0.484  10.631  21.317  0.00  0.00    +0.000 A 
ENDBRANCH  14  15
ENDBRANCH  13  14
ENDBRANCH   2  13
TORSDOF 4
ENDMDL
MODEL 7
REMARK VINA RESULT:      -8.3      2.417      3.645
REMARK  Name = 
REMARK  4 active torsions:
REMARK  status: ('A' for Active; 'I' for Inactive)
REMARK    1  A    between atoms: C_2  and  C_3
REMARK    2  A    between atoms: C_2  and  C_14
REMARK    3  A    between atoms: C_3  and  C_4
REMARK    4  A    between atoms: C_4  and  N_5
REMARK                            x       y       z     vdW  Elec       q    Type
REMARK                         _______ _______ _______ _____ _____    ______ ____
ROOT
ATOM      1  O   UNL     1       1.957   7.250  20.264  0.00  0.00    +0.000 OA
ATOM      2  C   UNL     1       2.223   6.570  19.269  0.00  0.00    +0.000 C 
ENDROOT
BRANCH   2   3
ATOM      3  C   UNL     1       2.252   5.042  19.350  0.00  0.00    +0.000 C 
ATOM      4  C   UNL     1       2.107   4.431  17.938  0.00  0.00    +0.000 C 
ATOM      5  C   UNL     1       2.017   2.895  18.030  0.00  0.00    +0.000 C 
ATOM      6  C   UNL     1       3.295   2.349  18.688  0.00  0.00    +0.000 C 
ATOM      7  C   UNL     1       3.459   2.944  20.098  0.00  0.00    +0.000 C 
ATOM      8  C   UNL     1       2.243   2.554  20.953  0.00  0.00    +0.000 C 
ATOM      9  C   UNL     1       0.955   3.085  20.310  0.00  0.00    +0.000 C 
ATOM     10  C   UNL     1       0.804   2.506  18.894  0.00  0.00    +0.000 C 
ATOM     11  C   UNL     1       1.041   4.608  20.213  0.00  0.00    +0.000 C 
ATOM     12  C   UNL     1       3.539   4.479  19.994  0.00  0.00    +0.000 C 
ENDBRANCH   2   3
BRANCH   2  13
ATOM     13  C   UNL     1       2.466   7.240  17.937  0.00  0.00    +0.000 C 
BRANCH  13  14
ATOM     14  C   UNL     1       3.915   7.720  17.889  0.00  0.00    +0.000 C 
BRANCH  14  15
ATOM     15  N   UNL     1       4.747   6.884  17.061  0.00  0.00    +0.000 N 
ATOM     16  C   UNL     1       4.652   6.742  15.707  0.00  0.00    +0.000 A 
ATOM     17  N   UNL     1       5.581   5.934  15.241  0.00  0.00    +0.000 NA
ATOM     18  C   UNL     1       6.296   5.534  16.344  0.00  0.00    +0.000 A 
ATOM     19  C   UNL     1       7.412   4.689  16.435  0.00  0.00    +0.000 A 
ATOM     20  C   UNL     1       7.963   4.441  17.700  0.00  0.00    +0.000 A 
ATOM     21  C   UNL     1       7.420   5.015  18.850  0.00  0.00    +0.000 A 
ATOM     22  C   UNL     1       6.312   5.865  18.776  0.00  0.00    +0.000 A 
ATOM     23  C   UNL     1       5.783   6.104  17.506  0.00  0.00    +0.000 A 
ENDBRANCH  14  15
ENDBRANCH  13  14
ENDBRANCH   2  13
TORSDOF 4
ENDMDL
MODEL 8
REMARK VINA RESULT:      -8.3      5.078      7.373
REMARK  Name = 
REMARK  4 active torsions:
REMARK  status: ('A' for Active; 'I' for Inactive)
REMARK    1  A    between atoms: C_2  and  C_3
REMARK    2  A    between atoms: C_2  and  C_14
REMARK    3  A    between atoms: C_3  and  C_4
REMARK    4  A    between atoms: C_4  and  N_5
REMARK                            x       y       z     vdW  Elec       q    Type
REMARK                         _______ _______ _______ _____ _____    ______ ____
ROOT
ATOM      1  O   UNL     1       3.672   7.036  17.826  0.00  0.00    +0.000 OA
ATOM      2  C   UNL     1       2.819   6.716  18.660  0.00  0.00    +0.000 C 
ENDROOT
BRANCH   2   3
ATOM      3  C   UNL     1       2.601   5.249  19.035  0.00  0.00    +0.000 C 
ATOM      4  C   UNL     1       1.807   4.528  17.923  0.00  0.00    +0.000 C 
ATOM      5  C   UNL     1       1.484   3.083  18.352  0.00  0.00    +0.000 C 
ATOM      6  C   UNL     1       2.797   2.324  18.609  0.00  0.00    +0.000 C 
ATOM      7  C   UNL     1       3.604   3.025  19.716  0.00  0.00    +0.000 C 
ATOM      8  C   UNL     1       2.772   3.049  21.007  0.00  0.00    +0.000 C 
ATOM      9  C   UNL     1       1.454   3.798  20.770  0.00  0.00    +0.000 C 
ATOM     10  C   UNL     1       0.658   3.109  19.650  0.00  0.00    +0.000 C 
ATOM     11  C   UNL     1       1.768   5.231  20.341  0.00  0.00    +0.000 C 
ATOM     12  C   UNL     1       3.913   4.470  19.280  0.00  0.00    +0.000 C 
ENDBRANCH   2   3
BRANCH   2  13
ATOM     13  C   UNL     1       2.020   7.783  19.370  0.00  0.00    +0.000 C 
BRANCH  13  14
ATOM     14  C   UNL     1       1.669   8.880  18.367  0.00  0.00    +0.000 C 
BRANCH  14  15
ATOM     15  N   UNL     1       0.801   9.884  18.928  0.00  0.00    +0.000 N 
ATOM     16  C   UNL     1       1.071  10.668  20.012  0.00  0.00    +0.000 A 
ATOM     17  N   UNL     1       0.091  11.514  20.250  0.00  0.00    +0.000 NA
ATOM     18  C   UNL     1      -0.851  11.256  19.283  0.00  0.00    +0.000 A 
ATOM     19  C   UNL     1      -2.088  11.872  19.045  0.00  0.00    +0.000 A 
ATOM     20  C   UNL     1      -2.869  11.414  17.975  0.00  0.00    +0.000 A 
ATOM     21  C   UNL     1      -2.437  10.367  17.161  0.00  0.00    +0.000 A 
ATOM     22  C   UNL     1      -1.203   9.746  17.380  0.00  0.00    +0.000 A 
ATOM     23  C   UNL     1      -0.438  10.223  18.447  0.00  0.00    +0.000 A 
ENDBRANCH  14  15
ENDBRANCH  13  14
ENDBRANCH   2  13
TORSDOF 4
ENDMDL
MODEL 9
REMARK VINA RESULT:      -8.3      4.354      7.476
REMARK  Name = 
REMARK  4 active torsions:
REMARK  status: ('A' for Active; 'I' for Inactive)
REMARK    1  A    between atoms: C_2  and  C_3
REMARK    2  A    between atoms: C_2  and  C_14
REMARK    3  A    between atoms: C_3  and  C_4
REMARK    4  A    between atoms: C_4  and  N_5
REMARK                            x       y       z     vdW  Elec       q    Type
REMARK                         _______ _______ _______ _____ _____    ______ ____
ROOT
ATOM      1  O   UNL     1       4.217   6.405  17.851  0.00  0.00    +0.000 OA
ATOM      2  C   UNL     1       3.072   6.110  18.205  0.00  0.00    +0.000 C 
ENDROOT
BRANCH   2   3
ATOM      3  C   UNL     1       2.723   4.678  18.616  0.00  0.00    +0.000 C 
ATOM      4  C   UNL     1       1.483   4.674  19.537  0.00  0.00    +0.000 C 
ATOM      5  C   UNL     1       1.203   3.247  20.046  0.00  0.00    +0.000 C 
ATOM      6  C   UNL     1       0.944   2.320  18.846  0.00  0.00    +0.000 C 
ATOM      7  C   UNL     1       2.169   2.307  17.915  0.00  0.00    +0.000 C 
ATOM      8  C   UNL     1       3.389   1.794  18.695  0.00  0.00    +0.000 C 
ATOM      9  C   UNL     1       3.662   2.703  19.902  0.00  0.00    +0.000 C 
ATOM     10  C   UNL     1       2.429   2.731  20.820  0.00  0.00    +0.000 C 
ATOM     11  C   UNL     1       3.937   4.121  19.402  0.00  0.00    +0.000 C 
ATOM     12  C   UNL     1       2.445   3.739  17.420  0.00  0.00    +0.000 C 
ENDBRANCH   2   3
BRANCH   2  13
ATOM     13  C   UNL     1       2.009   7.179  18.295  0.00  0.00    +0.000 C 
BRANCH  13  14
ATOM     14  C   UNL     1       2.153   7.899  19.634  0.00  0.00    +0.000 C 
BRANCH  14  15
ATOM     15  N   UNL     1       1.277   9.037  19.747  0.00  0.00    +0.000 N 
ATOM     16  C   UNL     1       0.907   9.874  18.734  0.00  0.00    +0.000 A 
ATOM     17  N   UNL     1       0.067  10.796  19.153  0.00  0.00    +0.000 NA
ATOM     18  C   UNL     1      -0.103  10.546  20.494  0.00  0.00    +0.000 A 
ATOM     19  C   UNL     1      -0.905  11.204  21.438  0.00  0.00    +0.000 A 
ATOM     20  C   UNL     1      -0.898  10.742  22.761  0.00  0.00    +0.000 A 
ATOM     21  C   UNL     1      -0.114   9.654  23.143  0.00  0.00    +0.000 A 
ATOM     22  C   UNL     1       0.687   8.982  22.213  0.00  0.00    +0.000 A 
ATOM     23  C   UNL     1       0.660   9.455  20.899  0.00  0.00    +0.000 A 
ENDBRANCH  14  15
ENDBRANCH  13  14
ENDBRANCH   2  13
TORSDOF 4
ENDMDL
