MODEL 1
REMARK VINA RESULT:      -8.5      0.000      0.000
REMARK  Name = 
REMARK  7 active torsions:
REMARK  status: ('A' for Active; 'I' for Inactive)
REMARK    1  A    between atoms: C_1  and  C_2
REMARK    2  A    between atoms: C_2  and  C_3
REMARK    3  A    between atoms: C_8  and  C_9
REMARK    4  A    between atoms: N_11  and  C_12
REMARK    5  A    between atoms: N_19  and  C_20
REMARK    6  A    between atoms: C_20  and  C_21
REMARK    7  A    between atoms: N_23  and  C_24
REMARK                            x       y       z     vdW  Elec       q    Type
REMARK                         _______ _______ _______ _____ _____    ______ ____
ROOT
ATOM      1  C   UNL     1      -0.735  13.262  22.626  0.00  0.00    +0.000 C 
ATOM      2  C   UNL     1      -1.685  12.159  22.141  0.00  0.00    +0.000 C 
ATOM      3  C   UNL     1      -2.962  12.204  22.996  0.00  0.00    +0.000 C 
ATOM      4  O   UNL     1      -1.078  10.904  22.420  0.00  0.00    +0.000 OA
ATOM      5  C   UNL     1      -0.350  10.359  21.402  0.00  0.00    +0.000 A 
ATOM      6  C   UNL     1       0.508   9.323  21.778  0.00  0.00    +0.000 A 
ATOM      7  C   UNL     1       1.267   8.658  20.817  0.00  0.00    +0.000 A 
ATOM      8  C   UNL     1       1.184   9.039  19.474  0.00  0.00    +0.000 A 
ATOM      9  C   UNL     1       0.312  10.069  19.098  0.00  0.00    +0.000 A 
ATOM     10  C   UNL     1      -0.475  10.733  20.058  0.00  0.00    +0.000 A 
ATOM     11  N   UNL     1      -1.411  11.733  19.695  0.00  0.00    +0.000 N 
ATOM     12  C   UNL     1      -2.073  12.466  20.674  0.00  0.00    +0.000 C 
ATOM     13  O   UNL     1      -2.846  13.384  20.382  0.00  0.00    +0.000 OA
ENDROOT
BRANCH   8  14
ATOM     14  C   UNL     1       2.005   8.287  18.482  0.00  0.00    +0.000 C 
ATOM     15  O   UNL     1       2.341   8.835  17.437  0.00  0.00    +0.000 OA
ATOM     16  N   UNL     1       2.321   6.977  18.785  0.00  0.00    +0.000 N 
ATOM     17  H   UNL     1       2.040   6.567  19.666  0.00  0.00    +0.000 HD
BRANCH  16  18
ATOM     18  C   UNL     1       3.113   6.168  17.882  0.00  0.00    +0.000 C 
ATOM     19  C   UNL     1       4.549   5.981  18.359  0.00  0.00    +0.000 C 
ATOM     20  C   UNL     1       5.040   4.785  17.551  0.00  0.00    +0.000 C 
ATOM     21  C   UNL     1       3.804   3.930  17.276  0.00  0.00    +0.000 C 
ATOM     22  C   UNL     1       2.605   4.733  17.777  0.00  0.00    +0.000 C 
ENDBRANCH  16  18
ENDBRANCH   8  14
BRANCH  11  23
ATOM     23  C   UNL     1      -1.769  11.959  18.289  0.00  0.00    +0.000 C 
BRANCH  23  24
ATOM     24  C   UNL     1      -3.040  11.219  17.856  0.00  0.00    +0.000 C 
ATOM     25  O   UNL     1      -3.048  10.021  17.603  0.00  0.00    +0.000 OA
ATOM     26  N   UNL     1      -4.159  12.020  17.856  0.00  0.00    +0.000 N 
ATOM     27  H   UNL     1      -3.991  13.020  17.946  0.00  0.00    +0.000 HD
BRANCH  26  28
ATOM     28  C   UNL     1      -5.509  11.569  17.538  0.00  0.00    +0.000 C 
ATOM     29  C   UNL     1      -6.109  10.810  18.730  0.00  0.00    +0.000 C 
ATOM     30  C   UNL     1      -6.261  11.716  19.953  0.00  0.00    +0.000 C 
ATOM     31  C   UNL     1      -7.094  12.956  19.633  0.00  0.00    +0.000 C 
ATOM     32  C   UNL     1      -6.635  13.686  18.369  0.00  0.00    +0.000 C 
ATOM     33  C   UNL     1      -6.424  12.746  17.180  0.00  0.00    +0.000 C 
ENDBRANCH  26  28
ENDBRANCH  23  24
ENDBRANCH  11  23
TORSDOF 5
ENDMDL
MODEL 2
REMARK VINA RESULT:      -7.3      3.969      7.657
REMARK  Name = 
REMARK  7 active torsions:
REMARK  status: ('A' for Active; 'I' for Inactive)
REMARK    1  A    between atoms: C_1  and  C_2
REMARK    2  A    between atoms: C_2  and  C_3
REMARK    3  A    between atoms: C_8  and  C_9
REMARK    4  A    between atoms: N_11  and  C_12
REMARK    5  A    between atoms: N_19  and  C_20
REMARK    6  A    between atoms: C_20  and  C_21
REMARK    7  A    between atoms: N_23  and  C_24
REMARK                            x       y       z     vdW  Elec       q    Type
REMARK                         _______ _______ _______ _____ _____    ______ ____
ROOT
ATOM      1  C   UNL     1       2.770   2.391  20.318  0.00  0.00    +0.000 C 
ATOM      2  C   UNL     1       2.215   3.211  19.145  0.00  0.00    +0.000 C 
ATOM      3  C   UNL     1       0.908   2.558  18.669  0.00  0.00    +0.000 C 
ATOM      4  O   UNL     1       3.124   3.092  18.058  0.00  0.00    +0.000 OA
ATOM      5  C   UNL     1       4.062   4.079  17.961  0.00  0.00    +0.000 A 
ATOM      6  C   UNL     1       5.141   3.787  17.122  0.00  0.00    +0.000 A 
ATOM      7  C   UNL     1       6.138   4.736  16.906  0.00  0.00    +0.000 A 
ATOM      8  C   UNL     1       6.069   5.979  17.543  0.00  0.00    +0.000 A 
ATOM      9  C   UNL     1       4.978   6.275  18.372  0.00  0.00    +0.000 A 
ATOM     10  C   UNL     1       3.955   5.330  18.581  0.00  0.00    +0.000 A 
ATOM     11  N   UNL     1       2.811   5.628  19.362  0.00  0.00    +0.000 N 
ATOM     12  C   UNL     1       1.886   4.633  19.662  0.00  0.00    +0.000 C 
ATOM     13  O   UNL     1       0.916   4.854  20.393  0.00  0.00    +0.000 OA
ENDROOT
BRANCH   8  14
ATOM     14  C   UNL     1       7.151   6.967  17.268  0.00  0.00    +0.000 C 
ATOM     15  O   UNL     1       7.861   6.824  16.277  0.00  0.00    +0.000 OA
ATOM     16  N   UNL     1       7.323   7.990  18.180  0.00  0.00    +0.000 N 
ATOM     17  H   UNL     1       6.705   8.083  18.976  0.00  0.00    +0.000 HD
BRANCH  16  18
ATOM     18  C   UNL     1       8.349   8.995  17.997  0.00  0.00    +0.000 C 
ATOM     19  C   UNL     1       7.785  10.347  17.574  0.00  0.00    +0.000 C 
ATOM     20  C   UNL     1       8.921  11.317  17.876  0.00  0.00    +0.000 C 
ATOM     21  C   UNL     1       9.686  10.712  19.053  0.00  0.00    +0.000 C 
ATOM     22  C   UNL     1       9.085   9.329  19.291  0.00  0.00    +0.000 C 
ENDBRANCH  16  18
ENDBRANCH   8  14
BRANCH  11  23
ATOM     23  C   UNL     1       2.529   7.001  19.797  0.00  0.00    +0.000 C 
BRANCH  23  24
ATOM     24  C   UNL     1       2.017   7.905  18.670  0.00  0.00    +0.000 C 
ATOM     25  O   UNL     1       1.754   7.477  17.553  0.00  0.00    +0.000 OA
ATOM     26  N   UNL     1       1.822   9.209  19.067  0.00  0.00    +0.000 N 
ATOM     27  H   UNL     1       2.212   9.461  19.972  0.00  0.00    +0.000 HD
BRANCH  26  28
ATOM     28  C   UNL     1       1.294  10.271  18.218  0.00  0.00    +0.000 C 
ATOM     29  C   UNL     1      -0.218  10.090  18.021  0.00  0.00    +0.000 C 
ATOM     30  C   UNL     1      -0.974  10.214  19.344  0.00  0.00    +0.000 C 
ATOM     31  C   UNL     1      -0.679  11.543  20.038  0.00  0.00    +0.000 C 
ATOM     32  C   UNL     1       0.816  11.854  20.142  0.00  0.00    +0.000 C 
ATOM     33  C   UNL     1       1.561  11.655  18.820  0.00  0.00    +0.000 C 
ENDBRANCH  26  28
ENDBRANCH  23  24
ENDBRANCH  11  23
TORSDOF 5
ENDMDL
MODEL 3
REMARK VINA RESULT:      -7.2      2.649      3.872
REMARK  Name = 
REMARK  7 active torsions:
REMARK  status: ('A' for Active; 'I' for Inactive)
REMARK    1  A    between atoms: C_1  and  C_2
REMARK    2  A    between atoms: C_2  and  C_3
REMARK    3  A    between atoms: C_8  and  C_9
REMARK    4  A    between atoms: N_11  and  C_12
REMARK    5  A    between atoms: N_19  and  C_20
REMARK    6  A    between atoms: C_20  and  C_21
REMARK    7  A    between atoms: N_23  and  C_24
REMARK                            x       y       z     vdW  Elec       q    Type
REMARK                         _______ _______ _______ _____ _____    ______ ____
ROOT
ATOM      1  C   UNL     1      -1.105  13.366  23.588  0.00  0.00    +0.000 C 
ATOM      2  C   UNL     1      -2.065  12.428  22.844  0.00  0.00    +0.000 C 
ATOM      3  C   UNL     1      -3.467  12.580  23.457  0.00  0.00    +0.000 C 
ATOM      4  O   UNL     1      -1.669  11.090  23.115  0.00  0.00    +0.000 OA
ATOM      5  C   UNL     1      -0.828  10.525  22.200  0.00  0.00    +0.000 A 
ATOM      6  C   UNL     1      -0.180   9.364  22.631  0.00  0.00    +0.000 A 
ATOM      7  C   UNL     1       0.666   8.673  21.767  0.00  0.00    +0.000 A 
ATOM      8  C   UNL     1       0.882   9.149  20.470  0.00  0.00    +0.000 A 
ATOM      9  C   UNL     1       0.220  10.305  20.036  0.00  0.00    +0.000 A 
ATOM     10  C   UNL     1      -0.653  11.000  20.894  0.00  0.00    +0.000 A 
ATOM     11  N   UNL     1      -1.384  12.133  20.459  0.00  0.00    +0.000 N 
ATOM     12  C   UNL     1      -2.131  12.879  21.364  0.00  0.00    +0.000 C 
ATOM     13  O   UNL     1      -2.725  13.905  21.021  0.00  0.00    +0.000 OA
ENDROOT
BRANCH   8  14
ATOM     14  C   UNL     1       1.785   8.365  19.579  0.00  0.00    +0.000 C 
ATOM     15  O   UNL     1       2.182   8.865  18.531  0.00  0.00    +0.000 OA
ATOM     16  N   UNL     1       2.104   7.080  19.972  0.00  0.00    +0.000 N 
ATOM     17  H   UNL     1       1.770   6.710  20.853  0.00  0.00    +0.000 HD
BRANCH  16  18
ATOM     18  C   UNL     1       2.972   6.243  19.171  0.00  0.00    +0.000 C 
ATOM     19  C   UNL     1       3.627   5.126  19.977  0.00  0.00    +0.000 C 
ATOM     20  C   UNL     1       4.099   4.146  18.910  0.00  0.00    +0.000 C 
ATOM     21  C   UNL     1       3.123   4.296  17.743  0.00  0.00    +0.000 C 
ATOM     22  C   UNL     1       2.218   5.477  18.088  0.00  0.00    +0.000 C 
ENDBRANCH  16  18
ENDBRANCH   8  14
BRANCH  11  23
ATOM     23  C   UNL     1      -1.441  12.496  19.037  0.00  0.00    +0.000 C 
BRANCH  23  24
ATOM     24  C   UNL     1      -0.408  13.556  18.638  0.00  0.00    +0.000 C 
ATOM     25  O   UNL     1       0.653  13.268  18.097  0.00  0.00    +0.000 OA
ATOM     26  N   UNL     1      -0.830  14.843  18.882  0.00  0.00    +0.000 N 
ATOM     27  H   UNL     1      -1.663  14.936  19.461  0.00  0.00    +0.000 HD
BRANCH  26  28
ATOM     28  C   UNL     1      -0.075  16.047  18.554  0.00  0.00    +0.000 C 
ATOM     29  C   UNL     1      -1.011  17.262  18.499  0.00  0.00    +0.000 C 
ATOM     30  C   UNL     1      -1.650  17.541  19.860  0.00  0.00    +0.000 C 
ATOM     31  C   UNL     1      -0.594  17.727  20.948  0.00  0.00    +0.000 C 
ATOM     32  C   UNL     1       0.459  16.618  20.969  0.00  0.00    +0.000 C 
ATOM     33  C   UNL     1       1.031  16.312  19.582  0.00  0.00    +0.000 C 
ENDBRANCH  26  28
ENDBRANCH  23  24
ENDBRANCH  11  23
TORSDOF 5
ENDMDL
MODEL 4
REMARK VINA RESULT:      -7.1      4.220      9.884
REMARK  Name = 
REMARK  7 active torsions:
REMARK  status: ('A' for Active; 'I' for Inactive)
REMARK    1  A    between atoms: C_1  and  C_2
REMARK    2  A    between atoms: C_2  and  C_3
REMARK    3  A    between atoms: C_8  and  C_9
REMARK    4  A    between atoms: N_11  and  C_12
REMARK    5  A    between atoms: N_19  and  C_20
REMARK    6  A    between atoms: C_20  and  C_21
REMARK    7  A    between atoms: N_23  and  C_24
REMARK                            x       y       z     vdW  Elec       q    Type
REMARK                         _______ _______ _______ _____ _____    ______ ____
ROOT
ATOM      1  C   UNL     1       7.574   6.969  16.588  0.00  0.00    +0.000 C 
ATOM      2  C   UNL     1       6.573   5.813  16.458  0.00  0.00    +0.000 C 
ATOM      3  C   UNL     1       6.960   4.968  15.234  0.00  0.00    +0.000 C 
ATOM      4  O   UNL     1       5.299   6.367  16.156  0.00  0.00    +0.000 OA
ATOM      5  C   UNL     1       4.487   6.601  17.228  0.00  0.00    +0.000 A 
ATOM      6  C   UNL     1       3.401   7.444  16.973  0.00  0.00    +0.000 A 
ATOM      7  C   UNL     1       2.476   7.718  17.978  0.00  0.00    +0.000 A 
ATOM      8  C   UNL     1       2.642   7.163  19.251  0.00  0.00    +0.000 A 
ATOM      9  C   UNL     1       3.723   6.307  19.499  0.00  0.00    +0.000 A 
ATOM     10  C   UNL     1       4.652   6.007  18.485  0.00  0.00    +0.000 A 
ATOM     11  N   UNL     1       5.716   5.094  18.692  0.00  0.00    +0.000 N 
ATOM     12  C   UNL     1       6.695   4.923  17.719  0.00  0.00    +0.000 C 
ATOM     13  O   UNL     1       7.665   4.181  17.903  0.00  0.00    +0.000 OA
ENDROOT
BRANCH   8  14
ATOM     14  C   UNL     1       1.616   7.474  20.288  0.00  0.00    +0.000 C 
ATOM     15  O   UNL     1       1.289   6.607  21.092  0.00  0.00    +0.000 OA
ATOM     16  N   UNL     1       1.055   8.735  20.265  0.00  0.00    +0.000 N 
ATOM     17  H   UNL     1       1.365   9.428  19.596  0.00  0.00    +0.000 HD
BRANCH  16  18
ATOM     18  C   UNL     1       0.050   9.128  21.231  0.00  0.00    +0.000 C 
ATOM     19  C   UNL     1       0.598   9.217  22.652  0.00  0.00    +0.000 C 
ATOM     20  C   UNL     1      -0.448  10.048  23.385  0.00  0.00    +0.000 C 
ATOM     21  C   UNL     1      -1.060  10.973  22.334  0.00  0.00    +0.000 C 
ATOM     22  C   UNL     1      -0.483  10.537  20.989  0.00  0.00    +0.000 C 
ENDBRANCH  16  18
ENDBRANCH   8  14
BRANCH  11  23
ATOM     23  C   UNL     1       5.765   4.250  19.892  0.00  0.00    +0.000 C 
BRANCH  23  24
ATOM     24  C   UNL     1       4.911   2.981  19.779  0.00  0.00    +0.000 C 
ATOM     25  O   UNL     1       5.111   1.991  20.470  0.00  0.00    +0.000 OA
ATOM     26  N   UNL     1       3.871   3.107  18.886  0.00  0.00    +0.000 N 
ATOM     27  H   UNL     1       3.903   3.922  18.277  0.00  0.00    +0.000 HD
BRANCH  26  28
ATOM     28  C   UNL     1       2.872   2.079  18.617  0.00  0.00    +0.000 C 
ATOM     29  C   UNL     1       2.062   1.782  19.887  0.00  0.00    +0.000 C 
ATOM     30  C   UNL     1       1.270   3.007  20.346  0.00  0.00    +0.000 C 
ATOM     31  C   UNL     1       0.359   3.535  19.240  0.00  0.00    +0.000 C 
ATOM     32  C   UNL     1       1.075   3.721  17.900  0.00  0.00    +0.000 C 
ATOM     33  C   UNL     1       1.915   2.506  17.498  0.00  0.00    +0.000 C 
ENDBRANCH  26  28
ENDBRANCH  23  24
ENDBRANCH  11  23
TORSDOF 5
ENDMDL
MODEL 5
REMARK VINA RESULT:      -7.1      3.993     10.166
REMARK  Name = 
REMARK  7 active torsions:
REMARK  status: ('A' for Active; 'I' for Inactive)
REMARK    1  A    between atoms: C_1  and  C_2
REMARK    2  A    between atoms: C_2  and  C_3
REMARK    3  A    between atoms: C_8  and  C_9
REMARK    4  A    between atoms: N_11  and  C_12
REMARK    5  A    between atoms: N_19  and  C_20
REMARK    6  A    between atoms: C_20  and  C_21
REMARK    7  A    between atoms: N_23  and  C_24
REMARK                            x       y       z     vdW  Elec       q    Type
REMARK                         _______ _______ _______ _____ _____    ______ ____
ROOT
ATOM      1  C   UNL     1       1.279   2.381  20.198  0.00  0.00    +0.000 C 
ATOM      2  C   UNL     1       2.690   2.980  20.123  0.00  0.00    +0.000 C 
ATOM      3  C   UNL     1       3.660   2.033  20.848  0.00  0.00    +0.000 C 
ATOM      4  O   UNL     1       2.695   4.186  20.875  0.00  0.00    +0.000 OA
ATOM      5  C   UNL     1       2.459   5.327  20.165  0.00  0.00    +0.000 A 
ATOM      6  C   UNL     1       2.128   6.445  20.936  0.00  0.00    +0.000 A 
ATOM      7  C   UNL     1       1.912   7.678  20.325  0.00  0.00    +0.000 A 
ATOM      8  C   UNL     1       2.008   7.796  18.934  0.00  0.00    +0.000 A 
ATOM      9  C   UNL     1       2.354   6.677  18.166  0.00  0.00    +0.000 A 
ATOM     10  C   UNL     1       2.595   5.431  18.775  0.00  0.00    +0.000 A 
ATOM     11  N   UNL     1       3.009   4.301  18.027  0.00  0.00    +0.000 N 
ATOM     12  C   UNL     1       3.106   3.053  18.634  0.00  0.00    +0.000 C 
ATOM     13  O   UNL     1       3.403   2.043  17.989  0.00  0.00    +0.000 OA
ENDROOT
BRANCH   8  14
ATOM     14  C   UNL     1       1.782   9.140  18.330  0.00  0.00    +0.000 C 
ATOM     15  O   UNL     1       2.077   9.330  17.153  0.00  0.00    +0.000 OA
ATOM     16  N   UNL     1       1.276  10.128  19.151  0.00  0.00    +0.000 N 
ATOM     17  H   UNL     1       1.029   9.926  20.112  0.00  0.00    +0.000 HD
BRANCH  16  18
ATOM     18  C   UNL     1       1.025  11.464  18.653  0.00  0.00    +0.000 C 
ATOM     19  C   UNL     1      -0.460  11.808  18.602  0.00  0.00    +0.000 C 
ATOM     20  C   UNL     1      -0.470  13.329  18.500  0.00  0.00    +0.000 C 
ATOM     21  C   UNL     1       0.792  13.805  19.218  0.00  0.00    +0.000 C 
ATOM     22  C   UNL     1       1.589  12.549  19.565  0.00  0.00    +0.000 C 
ENDBRANCH  16  18
ENDBRANCH   8  14
BRANCH  11  23
ATOM     23  C   UNL     1       3.425   4.433  16.626  0.00  0.00    +0.000 C 
BRANCH  23  24
ATOM     24  C   UNL     1       4.918   4.161  16.406  0.00  0.00    +0.000 C 
ATOM     25  O   UNL     1       5.332   3.107  15.938  0.00  0.00    +0.000 OA
ATOM     26  N   UNL     1       5.717   5.238  16.718  0.00  0.00    +0.000 N 
ATOM     27  H   UNL     1       5.264   5.994  17.228  0.00  0.00    +0.000 HD
BRANCH  26  28
ATOM     28  C   UNL     1       7.166   5.278  16.557  0.00  0.00    +0.000 C 
ATOM     29  C   UNL     1       7.640   6.727  16.383  0.00  0.00    +0.000 C 
ATOM     30  C   UNL     1       7.346   7.567  17.628  0.00  0.00    +0.000 C 
ATOM     31  C   UNL     1       7.961   6.947  18.881  0.00  0.00    +0.000 C 
ATOM     32  C   UNL     1       7.643   5.459  19.043  0.00  0.00    +0.000 C 
ATOM     33  C   UNL     1       7.881   4.656  17.761  0.00  0.00    +0.000 C 
ENDBRANCH  26  28
ENDBRANCH  23  24
ENDBRANCH  11  23
TORSDOF 5
ENDMDL
MODEL 6
REMARK VINA RESULT:      -7.1      1.284      1.623
REMARK  Name = 
REMARK  7 active torsions:
REMARK  status: ('A' for Active; 'I' for Inactive)
REMARK    1  A    between atoms: C_1  and  C_2
REMARK    2  A    between atoms: C_2  and  C_3
REMARK    3  A    between atoms: C_8  and  C_9
REMARK    4  A    between atoms: N_11  and  C_12
REMARK    5  A    between atoms: N_19  and  C_20
REMARK    6  A    between atoms: C_20  and  C_21
REMARK    7  A    between atoms: N_23  and  C_24
REMARK                            x       y       z     vdW  Elec       q    Type
REMARK                         _______ _______ _______ _____ _____    ______ ____
ROOT
ATOM      1  C   UNL     1      -1.270  14.103  22.685  0.00  0.00    +0.000 C 
ATOM      2  C   UNL     1      -2.272  13.024  22.251  0.00  0.00    +0.000 C 
ATOM      3  C   UNL     1      -3.679  13.462  22.691  0.00  0.00    +0.000 C 
ATOM      4  O   UNL     1      -1.989  11.841  22.986  0.00  0.00    +0.000 OA
ATOM      5  C   UNL     1      -1.163  10.946  22.371  0.00  0.00    +0.000 A 
ATOM      6  C   UNL     1      -0.621   9.969  23.211  0.00  0.00    +0.000 A 
ATOM      7  C   UNL     1       0.200   8.972  22.687  0.00  0.00    +0.000 A 
ATOM      8  C   UNL     1       0.497   8.958  21.320  0.00  0.00    +0.000 A 
ATOM      9  C   UNL     1      -0.059   9.930  20.479  0.00  0.00    +0.000 A 
ATOM     10  C   UNL     1      -0.906  10.929  20.994  0.00  0.00    +0.000 A 
ATOM     11  N   UNL     1      -1.533  11.884  20.155  0.00  0.00    +0.000 N 
ATOM     12  C   UNL     1      -2.252  12.939  20.705  0.00  0.00    +0.000 C 
ATOM     13  O   UNL     1      -2.754  13.818  19.997  0.00  0.00    +0.000 OA
ENDROOT
BRANCH   8  14
ATOM     14  C   UNL     1       1.368   7.862  20.806  0.00  0.00    +0.000 C 
ATOM     15  O   UNL     1       1.508   6.840  21.471  0.00  0.00    +0.000 OA
ATOM     16  N   UNL     1       2.009   8.075  19.602  0.00  0.00    +0.000 N 
ATOM     17  H   UNL     1       1.854   8.925  19.075  0.00  0.00    +0.000 HD
BRANCH  16  18
ATOM     18  C   UNL     1       2.876   7.068  19.024  0.00  0.00    +0.000 C 
ATOM     19  C   UNL     1       2.111   5.854  18.509  0.00  0.00    +0.000 C 
ATOM     20  C   UNL     1       3.108   5.173  17.578  0.00  0.00    +0.000 C 
ATOM     21  C   UNL     1       3.992   6.290  17.024  0.00  0.00    +0.000 C 
ATOM     22  C   UNL     1       3.602   7.561  17.776  0.00  0.00    +0.000 C 
ENDBRANCH  16  18
ENDBRANCH   8  14
BRANCH  11  23
ATOM     23  C   UNL     1      -1.512  11.736  18.695  0.00  0.00    +0.000 C 
BRANCH  23  24
ATOM     24  C   UNL     1      -2.752  11.028  18.136  0.00  0.00    +0.000 C 
ATOM     25  O   UNL     1      -2.769   9.829  17.890  0.00  0.00    +0.000 OA
ATOM     26  N   UNL     1      -3.843  11.861  18.015  0.00  0.00    +0.000 N 
ATOM     27  H   UNL     1      -3.656  12.856  18.117  0.00  0.00    +0.000 HD
BRANCH  26  28
ATOM     28  C   UNL     1      -5.165  11.445  17.561  0.00  0.00    +0.000 C 
ATOM     29  C   UNL     1      -5.907  10.713  18.688  0.00  0.00    +0.000 C 
ATOM     30  C   UNL     1      -6.159  11.633  19.883  0.00  0.00    +0.000 C 
ATOM     31  C   UNL     1      -6.917  12.894  19.472  0.00  0.00    +0.000 C 
ATOM     32  C   UNL     1      -6.308  13.600  18.258  0.00  0.00    +0.000 C 
ATOM     33  C   UNL     1      -6.002  12.644  17.103  0.00  0.00    +0.000 C 
ENDBRANCH  26  28
ENDBRANCH  23  24
ENDBRANCH  11  23
TORSDOF 5
ENDMDL
MODEL 7
REMARK VINA RESULT:      -6.8      2.399      3.739
REMARK  Name = 
REMARK  7 active torsions:
REMARK  status: ('A' for Active; 'I' for Inactive)
REMARK    1  A    between atoms: C_1  and  C_2
REMARK    2  A    between atoms: C_2  and  C_3
REMARK    3  A    between atoms: C_8  and  C_9
REMARK    4  A    between atoms: N_11  and  C_12
REMARK    5  A    between atoms: N_19  and  C_20
REMARK    6  A    between atoms: C_20  and  C_21
REMARK    7  A    between atoms: N_23  and  C_24
REMARK                            x       y       z     vdW  Elec       q    Type
REMARK                         _______ _______ _______ _____ _____    ______ ____
ROOT
ATOM      1  C   UNL     1      -0.849  13.405  23.203  0.00  0.00    +0.000 C 
ATOM      2  C   UNL     1      -1.785  12.233  22.877  0.00  0.00    +0.000 C 
ATOM      3  C   UNL     1      -3.035  12.347  23.764  0.00  0.00    +0.000 C 
ATOM      4  O   UNL     1      -1.138  11.031  23.274  0.00  0.00    +0.000 OA
ATOM      5  C   UNL     1      -0.429  10.392  22.299  0.00  0.00    +0.000 A 
ATOM      6  C   UNL     1       0.467   9.423  22.760  0.00  0.00    +0.000 A 
ATOM      7  C   UNL     1       1.213   8.671  21.854  0.00  0.00    +0.000 A 
ATOM      8  C   UNL     1       1.078   8.896  20.481  0.00  0.00    +0.000 A 
ATOM      9  C   UNL     1       0.168   9.858  20.021  0.00  0.00    +0.000 A 
ATOM     10  C   UNL     1      -0.605  10.609  20.927  0.00  0.00    +0.000 A 
ATOM     11  N   UNL     1      -1.577  11.540  20.486  0.00  0.00    +0.000 N 
ATOM     12  C   UNL     1      -2.227  12.364  21.399  0.00  0.00    +0.000 C 
ATOM     13  O   UNL     1      -3.031  13.227  21.032  0.00  0.00    +0.000 OA
ENDROOT
BRANCH   8  14
ATOM     14  C   UNL     1       1.886   8.055  19.552  0.00  0.00    +0.000 C 
ATOM     15  O   UNL     1       2.372   8.563  18.546  0.00  0.00    +0.000 OA
ATOM     16  N   UNL     1       2.019   6.716  19.863  0.00  0.00    +0.000 N 
ATOM     17  H   UNL     1       1.617   6.339  20.712  0.00  0.00    +0.000 HD
BRANCH  16  18
ATOM     18  C   UNL     1       2.784   5.821  19.020  0.00  0.00    +0.000 C 
ATOM     19  C   UNL     1       4.212   5.618  19.515  0.00  0.00    +0.000 C 
ATOM     20  C   UNL     1       4.663   4.354  18.791  0.00  0.00    +0.000 C 
ATOM     21  C   UNL     1       3.399   3.526  18.568  0.00  0.00    +0.000 C 
ATOM     22  C   UNL     1       2.228   4.401  19.009  0.00  0.00    +0.000 C 
ENDBRANCH  16  18
ENDBRANCH   8  14
BRANCH  11  23
ATOM     23  C   UNL     1      -1.984  11.599  19.077  0.00  0.00    +0.000 C 
BRANCH  23  24
ATOM     24  C   UNL     1      -1.208  12.641  18.262  0.00  0.00    +0.000 C 
ATOM     25  O   UNL     1      -1.064  12.551  17.049  0.00  0.00    +0.000 OA
ATOM     26  N   UNL     1      -0.765  13.701  19.020  0.00  0.00    +0.000 N 
ATOM     27  H   UNL     1      -0.826  13.583  20.029  0.00  0.00    +0.000 HD
BRANCH  26  28
ATOM     28  C   UNL     1      -0.047  14.859  18.498  0.00  0.00    +0.000 C 
ATOM     29  C   UNL     1      -0.589  16.148  19.131  0.00  0.00    +0.000 C 
ATOM     30  C   UNL     1      -0.355  16.172  20.642  0.00  0.00    +0.000 C 
ATOM     31  C   UNL     1       1.121  15.985  20.986  0.00  0.00    +0.000 C 
ATOM     32  C   UNL     1       1.764  14.793  20.274  0.00  0.00    +0.000 C 
ATOM     33  C   UNL     1       1.457  14.756  18.775  0.00  0.00    +0.000 C 
ENDBRANCH  26  28
ENDBRANCH  23  24
ENDBRANCH  11  23
TORSDOF 5
ENDMDL
MODEL 8
REMARK VINA RESULT:      -6.7      3.144      5.026
REMARK  Name = 
REMARK  7 active torsions:
REMARK  status: ('A' for Active; 'I' for Inactive)
REMARK    1  A    between atoms: C_1  and  C_2
REMARK    2  A    between atoms: C_2  and  C_3
REMARK    3  A    between atoms: C_8  and  C_9
REMARK    4  A    between atoms: N_11  and  C_12
REMARK    5  A    between atoms: N_19  and  C_20
REMARK    6  A    between atoms: C_20  and  C_21
REMARK    7  A    between atoms: N_23  and  C_24
REMARK                            x       y       z     vdW  Elec       q    Type
REMARK                         _______ _______ _______ _____ _____    ______ ____
ROOT
ATOM      1  C   UNL     1      -0.568  13.886  22.992  0.00  0.00    +0.000 C 
ATOM      2  C   UNL     1      -1.531  13.156  22.046  0.00  0.00    +0.000 C 
ATOM      3  C   UNL     1      -2.935  13.755  22.222  0.00  0.00    +0.000 C 
ATOM      4  O   UNL     1      -1.630  11.805  22.478  0.00  0.00    +0.000 OA
ATOM      5  C   UNL     1      -0.783  10.925  21.869  0.00  0.00    +0.000 A 
ATOM      6  C   UNL     1      -0.641   9.696  22.519  0.00  0.00    +0.000 A 
ATOM      7  C   UNL     1       0.161   8.700  21.966  0.00  0.00    +0.000 A 
ATOM      8  C   UNL     1       0.840   8.935  20.767  0.00  0.00    +0.000 A 
ATOM      9  C   UNL     1       0.684  10.162  20.110  0.00  0.00    +0.000 A 
ATOM     10  C   UNL     1      -0.140  11.168  20.649  0.00  0.00    +0.000 A 
ATOM     11  N   UNL     1      -0.364  12.393  19.972  0.00  0.00    +0.000 N 
ATOM     12  C   UNL     1      -1.070  13.419  20.591  0.00  0.00    +0.000 C 
ATOM     13  O   UNL     1      -1.225  14.516  20.046  0.00  0.00    +0.000 OA
ENDROOT
BRANCH   8  14
ATOM     14  C   UNL     1       1.674   7.831  20.208  0.00  0.00    +0.000 C 
ATOM     15  O   UNL     1       2.338   8.030  19.196  0.00  0.00    +0.000 OA
ATOM     16  N   UNL     1       1.625   6.612  20.854  0.00  0.00    +0.000 N 
ATOM     17  H   UNL     1       1.078   6.493  21.697  0.00  0.00    +0.000 HD
BRANCH  16  18
ATOM     18  C   UNL     1       2.400   5.481  20.384  0.00  0.00    +0.000 C 
ATOM     19  C   UNL     1       2.327   4.282  21.323  0.00  0.00    +0.000 C 
ATOM     20  C   UNL     1       2.801   3.122  20.457  0.00  0.00    +0.000 C 
ATOM     21  C   UNL     1       2.407   3.481  19.025  0.00  0.00    +0.000 C 
ATOM     22  C   UNL     1       1.873   4.911  19.071  0.00  0.00    +0.000 C 
ENDBRANCH  16  18
ENDBRANCH   8  14
BRANCH  11  23
ATOM     23  C   UNL     1       0.063  12.577  18.580  0.00  0.00    +0.000 C 
BRANCH  23  24
ATOM     24  C   UNL     1       1.478  13.152  18.449  0.00  0.00    +0.000 C 
ATOM     25  O   UNL     1       2.447  12.457  18.172  0.00  0.00    +0.000 OA
ATOM     26  N   UNL     1       1.523  14.520  18.601  0.00  0.00    +0.000 N 
ATOM     27  H   UNL     1       0.679  14.955  18.968  0.00  0.00    +0.000 HD
BRANCH  26  28
ATOM     28  C   UNL     1       2.726  15.336  18.476  0.00  0.00    +0.000 C 
ATOM     29  C   UNL     1       2.384  16.690  17.839  0.00  0.00    +0.000 C 
ATOM     30  C   UNL     1       1.433  17.500  18.721  0.00  0.00    +0.000 C 
ATOM     31  C   UNL     1       2.000  17.697  20.126  0.00  0.00    +0.000 C 
ATOM     32  C   UNL     1       2.493  16.398  20.768  0.00  0.00    +0.000 C 
ATOM     33  C   UNL     1       3.386  15.574  19.838  0.00  0.00    +0.000 C 
ENDBRANCH  26  28
ENDBRANCH  23  24
ENDBRANCH  11  23
TORSDOF 5
ENDMDL
MODEL 9
REMARK VINA RESULT:      -6.5      3.266      5.326
REMARK  Name = 
REMARK  7 active torsions:
REMARK  status: ('A' for Active; 'I' for Inactive)
REMARK    1  A    between atoms: C_1  and  C_2
REMARK    2  A    between atoms: C_2  and  C_3
REMARK    3  A    between atoms: C_8  and  C_9
REMARK    4  A    between atoms: N_11  and  C_12
REMARK    5  A    between atoms: N_19  and  C_20
REMARK    6  A    between atoms: C_20  and  C_21
REMARK    7  A    between atoms: N_23  and  C_24
REMARK                            x       y       z     vdW  Elec       q    Type
REMARK                         _______ _______ _______ _____ _____    ______ ____
ROOT
ATOM      1  C   UNL     1       0.087  14.316  22.495  0.00  0.00    +0.000 C 
ATOM      2  C   UNL     1      -0.963  13.609  21.628  0.00  0.00    +0.000 C 
ATOM      3  C   UNL     1      -2.269  14.417  21.688  0.00  0.00    +0.000 C 
ATOM      4  O   UNL     1      -1.258  12.355  22.229  0.00  0.00    +0.000 OA
ATOM      5  C   UNL     1      -0.540  11.292  21.763  0.00  0.00    +0.000 A 
ATOM      6  C   UNL     1      -0.580  10.152  22.571  0.00  0.00    +0.000 A 
ATOM      7  C   UNL     1       0.076   8.989  22.174  0.00  0.00    +0.000 A 
ATOM      8  C   UNL     1       0.790   8.964  20.972  0.00  0.00    +0.000 A 
ATOM      9  C   UNL     1       0.816  10.103  20.157  0.00  0.00    +0.000 A 
ATOM     10  C   UNL     1       0.140  11.278  20.539  0.00  0.00    +0.000 A 
ATOM     11  N   UNL     1       0.097  12.421  19.702  0.00  0.00    +0.000 N 
ATOM     12  C   UNL     1      -0.460  13.609  20.163  0.00  0.00    +0.000 C 
ATOM     13  O   UNL     1      -0.452  14.635  19.476  0.00  0.00    +0.000 OA
ENDROOT
BRANCH   8  14
ATOM     14  C   UNL     1       1.462   7.691  20.584  0.00  0.00    +0.000 C 
ATOM     15  O   UNL     1       1.338   6.701  21.299  0.00  0.00    +0.000 OA
ATOM     16  N   UNL     1       2.230   7.704  19.436  0.00  0.00    +0.000 N 
ATOM     17  H   UNL     1       2.292   8.536  18.864  0.00  0.00    +0.000 HD
BRANCH  16  18
ATOM     18  C   UNL     1       2.920   6.515  18.981  0.00  0.00    +0.000 C 
ATOM     19  C   UNL     1       1.990   5.510  18.309  0.00  0.00    +0.000 C 
ATOM     20  C   UNL     1       2.942   4.604  17.538  0.00  0.00    +0.000 C 
ATOM     21  C   UNL     1       4.144   5.474  17.172  0.00  0.00    +0.000 C 
ATOM     22  C   UNL     1       3.942   6.808  17.887  0.00  0.00    +0.000 C 
ENDBRANCH  16  18
ENDBRANCH   8  14
BRANCH  11  23
ATOM     23  C   UNL     1       0.556  12.357  18.310  0.00  0.00    +0.000 C 
BRANCH  23  24
ATOM     24  C   UNL     1       2.012  12.802  18.127  0.00  0.00    +0.000 C 
ATOM     25  O   UNL     1       2.913  12.013  17.869  0.00  0.00    +0.000 OA
ATOM     26  N   UNL     1       2.176  14.166  18.212  0.00  0.00    +0.000 N 
ATOM     27  H   UNL     1       1.379  14.688  18.570  0.00  0.00    +0.000 HD
BRANCH  26  28
ATOM     28  C   UNL     1       3.441  14.869  18.027  0.00  0.00    +0.000 C 
ATOM     29  C   UNL     1       3.185  16.303  17.544  0.00  0.00    +0.000 C 
ATOM     30  C   UNL     1       2.416  17.117  18.587  0.00  0.00    +0.000 C 
ATOM     31  C   UNL     1       3.134  17.125  19.934  0.00  0.00    +0.000 C 
ATOM     32  C   UNL     1       3.547  15.731  20.411  0.00  0.00    +0.000 C 
ATOM     33  C   UNL     1       4.252  14.913  19.327  0.00  0.00    +0.000 C 
ENDBRANCH  26  28
ENDBRANCH  23  24
ENDBRANCH  11  23
TORSDOF 5
ENDMDL
