MODEL 1
REMARK VINA RESULT:      -8.0      0.000      0.000
REMARK  Name = 
REMARK  3 active torsions:
REMARK  status: ('A' for Active; 'I' for Inactive)
REMARK    1  A    between atoms: C_8  and  C_9
REMARK    2  A    between atoms: C_9  and  N_10
REMARK    3  A    between atoms: N_10  and  C_11
REMARK                            x       y       z     vdW  Elec       q    Type
REMARK                         _______ _______ _______ _____ _____    ______ ____
ROOT
ATOM      1  N   UNL     1       8.597   9.397  17.816  0.00  0.00    +0.000 N 
ATOM      2  C   UNL     1       7.972   8.172  17.881  0.00  0.00    +0.000 A 
ATOM      3  N   UNL     1       8.339   7.341  18.854  0.00  0.00    +0.000 NA
ATOM      4  C   UNL     1       7.724   6.143  18.887  0.00  0.00    +0.000 A 
ATOM      5  N   UNL     1       8.190   5.253  19.869  0.00  0.00    +0.000 N 
ATOM      6  C   UNL     1       6.738   5.738  17.987  0.00  0.00    +0.000 A 
ATOM      7  N   UNL     1       6.105   4.529  18.055  0.00  0.00    +0.000 NA
ATOM      8  C   UNL     1       5.148   4.255  17.138  0.00  0.00    +0.000 A 
ATOM      9  C   UNL     1       4.815   5.156  16.136  0.00  0.00    +0.000 A 
ATOM     10  C   UNL     1       5.459   6.392  16.107  0.00  0.00    +0.000 A 
ATOM     11  C   UNL     1       6.435   6.715  17.036  0.00  0.00    +0.000 A 
ATOM     12  N   UNL     1       7.024   7.920  16.980  0.00  0.00    +0.000 NA
ATOM     13  H   UNL     1       8.986   9.650  18.713  0.00  0.00    +0.000 HD
ATOM     14  H   UNL     1       8.014  10.072  17.343  0.00  0.00    +0.000 HD
ATOM     15  H   UNL     1       8.798   5.745  20.514  0.00  0.00    +0.000 HD
ATOM     16  H   UNL     1       7.426   4.738  20.295  0.00  0.00    +0.000 HD
ENDROOT
BRANCH   8  17
ATOM     17  C   UNL     1       4.398   2.945  17.271  0.00  0.00    +0.000 C 
BRANCH  17  18
ATOM     18  N   UNL     1       2.971   3.153  17.513  0.00  0.00    +0.000 N 
ATOM     19  H   UNL     1       2.416   2.387  17.124  0.00  0.00    +0.000 HD
BRANCH  18  20
ATOM     20  C   UNL     1       2.599   3.382  18.862  0.00  0.00    +0.000 A 
ATOM     21  C   UNL     1       2.690   2.368  19.828  0.00  0.00    +0.000 A 
ATOM     22  C   UNL     1       2.367   2.604  21.166  0.00  0.00    +0.000 A 
ATOM     23  C   UNL     1       1.980   3.870  21.583  0.00  0.00    +0.000 A 
ATOM     24  C   UNL     1       1.931   4.911  20.659  0.00  0.00    +0.000 A 
ATOM     25  C   UNL     1       2.249   4.672  19.316  0.00  0.00    +0.000 A 
ATOM     26 CL   UNL     1       2.166   6.006  18.215  0.00  0.00    +0.000 Cl
ENDBRANCH  18  20
ENDBRANCH  17  18
ENDBRANCH   8  17
TORSDOF 3
ENDMDL
MODEL 2
REMARK VINA RESULT:      -7.7      1.492      1.734
REMARK  Name = 
REMARK  3 active torsions:
REMARK  status: ('A' for Active; 'I' for Inactive)
REMARK    1  A    between atoms: C_8  and  C_9
REMARK    2  A    between atoms: C_9  and  N_10
REMARK    3  A    between atoms: N_10  and  C_11
REMARK                            x       y       z     vdW  Elec       q    Type
REMARK                         _______ _______ _______ _____ _____    ______ ____
ROOT
ATOM      1  N   UNL     1       8.651   9.550  17.955  0.00  0.00    +0.000 N 
ATOM      2  C   UNL     1       8.014   8.330  17.951  0.00  0.00    +0.000 A 
ATOM      3  N   UNL     1       8.402   7.426  18.848  0.00  0.00    +0.000 NA
ATOM      4  C   UNL     1       7.773   6.235  18.814  0.00  0.00    +0.000 A 
ATOM      5  N   UNL     1       8.261   5.270  19.712  0.00  0.00    +0.000 N 
ATOM      6  C   UNL     1       6.754   5.907  17.921  0.00  0.00    +0.000 A 
ATOM      7  N   UNL     1       6.108   4.703  17.921  0.00  0.00    +0.000 NA
ATOM      8  C   UNL     1       5.118   4.506  17.019  0.00  0.00    +0.000 A 
ATOM      9  C   UNL     1       4.764   5.481  16.097  0.00  0.00    +0.000 A 
ATOM     10  C   UNL     1       5.421   6.710  16.138  0.00  0.00    +0.000 A 
ATOM     11  C   UNL     1       6.431   6.954  17.055  0.00  0.00    +0.000 A 
ATOM     12  N   UNL     1       7.033   8.154  17.067  0.00  0.00    +0.000 NA
ATOM     13  H   UNL     1       9.072   9.733  18.855  0.00  0.00    +0.000 HD
ATOM     14  H   UNL     1       8.061  10.264  17.553  0.00  0.00    +0.000 HD
ATOM     15  H   UNL     1       8.895   5.708  20.370  0.00  0.00    +0.000 HD
ATOM     16  H   UNL     1       7.505   4.734  20.125  0.00  0.00    +0.000 HD
ENDROOT
BRANCH   8  17
ATOM     17  C   UNL     1       4.357   3.197  17.081  0.00  0.00    +0.000 C 
BRANCH  17  18
ATOM     18  N   UNL     1       4.448   2.573  18.400  0.00  0.00    +0.000 N 
ATOM     19  H   UNL     1       5.346   2.781  18.845  0.00  0.00    +0.000 HD
BRANCH  18  20
ATOM     20  C   UNL     1       3.387   2.859  19.295  0.00  0.00    +0.000 A 
ATOM     21  C   UNL     1       2.198   3.459  18.853  0.00  0.00    +0.000 A 
ATOM     22  C   UNL     1       1.134   3.700  19.725  0.00  0.00    +0.000 A 
ATOM     23  C   UNL     1       1.215   3.314  21.056  0.00  0.00    +0.000 A 
ATOM     24  C   UNL     1       2.361   2.668  21.514  0.00  0.00    +0.000 A 
ATOM     25  C   UNL     1       3.430   2.432  20.640  0.00  0.00    +0.000 A 
ATOM     26 CL   UNL     1       4.827   1.627  21.271  0.00  0.00    +0.000 Cl
ENDBRANCH  18  20
ENDBRANCH  17  18
ENDBRANCH   8  17
TORSDOF 3
ENDMDL
MODEL 3
REMARK VINA RESULT:      -7.6      3.211      6.767
REMARK  Name = 
REMARK  3 active torsions:
REMARK  status: ('A' for Active; 'I' for Inactive)
REMARK    1  A    between atoms: C_8  and  C_9
REMARK    2  A    between atoms: C_9  and  N_10
REMARK    3  A    between atoms: N_10  and  C_11
REMARK                            x       y       z     vdW  Elec       q    Type
REMARK                         _______ _______ _______ _____ _____    ______ ____
ROOT
ATOM      1  N   UNL     1       0.287   3.001  19.845  0.00  0.00    +0.000 N 
ATOM      2  C   UNL     1       1.541   3.106  19.286  0.00  0.00    +0.000 A 
ATOM      3  N   UNL     1       2.191   1.978  19.006  0.00  0.00    +0.000 NA
ATOM      4  C   UNL     1       3.421   2.108  18.473  0.00  0.00    +0.000 A 
ATOM      5  N   UNL     1       4.119   0.906  18.269  0.00  0.00    +0.000 N 
ATOM      6  C   UNL     1       4.034   3.330  18.195  0.00  0.00    +0.000 A 
ATOM      7  N   UNL     1       5.272   3.441  17.627  0.00  0.00    +0.000 NA
ATOM      8  C   UNL     1       5.756   4.681  17.383  0.00  0.00    +0.000 A 
ATOM      9  C   UNL     1       5.039   5.824  17.708  0.00  0.00    +0.000 A 
ATOM     10  C   UNL     1       3.768   5.680  18.262  0.00  0.00    +0.000 A 
ATOM     11  C   UNL     1       3.232   4.427  18.515  0.00  0.00    +0.000 A 
ATOM     12  N   UNL     1       2.000   4.332  19.039  0.00  0.00    +0.000 NA
ATOM     13  H   UNL     1      -0.123   2.101  19.639  0.00  0.00    +0.000 HD
ATOM     14  H   UNL     1      -0.260   3.827  19.656  0.00  0.00    +0.000 HD
ATOM     15  H   UNL     1       3.490   0.122  18.391  0.00  0.00    +0.000 HD
ATOM     16  H   UNL     1       4.633   0.922  17.394  0.00  0.00    +0.000 HD
ENDROOT
BRANCH   8  17
ATOM     17  C   UNL     1       7.095   4.790  16.682  0.00  0.00    +0.000 C 
BRANCH  17  18
ATOM     18  N   UNL     1       7.005   5.568  15.447  0.00  0.00    +0.000 N 
ATOM     19  H   UNL     1       7.842   6.141  15.311  0.00  0.00    +0.000 HD
BRANCH  18  20
ATOM     20  C   UNL     1       6.729   4.830  14.269  0.00  0.00    +0.000 A 
ATOM     21  C   UNL     1       5.558   4.066  14.141  0.00  0.00    +0.000 A 
ATOM     22  C   UNL     1       5.262   3.375  12.965  0.00  0.00    +0.000 A 
ATOM     23  C   UNL     1       6.110   3.458  11.868  0.00  0.00    +0.000 A 
ATOM     24  C   UNL     1       7.252   4.251  11.944  0.00  0.00    +0.000 A 
ATOM     25  C   UNL     1       7.551   4.939  13.127  0.00  0.00    +0.000 A 
ATOM     26 CL   UNL     1       8.988   5.906  13.159  0.00  0.00    +0.000 Cl
ENDBRANCH  18  20
ENDBRANCH  17  18
ENDBRANCH   8  17
TORSDOF 3
ENDMDL
MODEL 4
REMARK VINA RESULT:      -7.5      1.096      1.171
REMARK  Name = 
REMARK  3 active torsions:
REMARK  status: ('A' for Active; 'I' for Inactive)
REMARK    1  A    between atoms: C_8  and  C_9
REMARK    2  A    between atoms: C_9  and  N_10
REMARK    3  A    between atoms: N_10  and  C_11
REMARK                            x       y       z     vdW  Elec       q    Type
REMARK                         _______ _______ _______ _____ _____    ______ ____
ROOT
ATOM      1  N   UNL     1       8.696   9.630  18.106  0.00  0.00    +0.000 N 
ATOM      2  C   UNL     1       8.102   8.389  18.064  0.00  0.00    +0.000 A 
ATOM      3  N   UNL     1       8.480   7.490  18.970  0.00  0.00    +0.000 NA
ATOM      4  C   UNL     1       7.895   6.280  18.898  0.00  0.00    +0.000 A 
ATOM      5  N   UNL     1       8.375   5.323  19.810  0.00  0.00    +0.000 N 
ATOM      6  C   UNL     1       6.929   5.926  17.957  0.00  0.00    +0.000 A 
ATOM      7  N   UNL     1       6.326   4.700  17.918  0.00  0.00    +0.000 NA
ATOM      8  C   UNL     1       5.385   4.478  16.970  0.00  0.00    +0.000 A 
ATOM      9  C   UNL     1       5.040   5.449  16.041  0.00  0.00    +0.000 A 
ATOM     10  C   UNL     1       5.652   6.699  16.121  0.00  0.00    +0.000 A 
ATOM     11  C   UNL     1       6.610   6.969  17.085  0.00  0.00    +0.000 A 
ATOM     12  N   UNL     1       7.169   8.188  17.134  0.00  0.00    +0.000 NA
ATOM     13  H   UNL     1       9.069   9.819  19.026  0.00  0.00    +0.000 HD
ATOM     14  H   UNL     1       8.101  10.327  17.683  0.00  0.00    +0.000 HD
ATOM     15  H   UNL     1       8.963   5.776  20.500  0.00  0.00    +0.000 HD
ATOM     16  H   UNL     1       7.620   4.757  20.184  0.00  0.00    +0.000 HD
ENDROOT
BRANCH   8  17
ATOM     17  C   UNL     1       4.668   3.144  16.987  0.00  0.00    +0.000 C 
BRANCH  17  18
ATOM     18  N   UNL     1       4.358   2.705  18.347  0.00  0.00    +0.000 N 
ATOM     19  H   UNL     1       5.014   3.108  19.022  0.00  0.00    +0.000 HD
BRANCH  18  20
ATOM     20  C   UNL     1       3.026   2.923  18.780  0.00  0.00    +0.000 A 
ATOM     21  C   UNL     1       2.020   1.970  18.558  0.00  0.00    +0.000 A 
ATOM     22  C   UNL     1       0.717   2.162  19.023  0.00  0.00    +0.000 A 
ATOM     23  C   UNL     1       0.393   3.295  19.758  0.00  0.00    +0.000 A 
ATOM     24  C   UNL     1       1.382   4.233  20.042  0.00  0.00    +0.000 A 
ATOM     25  C   UNL     1       2.687   4.043  19.569  0.00  0.00    +0.000 A 
ATOM     26 CL   UNL     1       3.870   5.248  19.953  0.00  0.00    +0.000 Cl
ENDBRANCH  18  20
ENDBRANCH  17  18
ENDBRANCH   8  17
TORSDOF 3
ENDMDL
MODEL 5
REMARK VINA RESULT:      -7.5      3.235      3.951
REMARK  Name = 
REMARK  3 active torsions:
REMARK  status: ('A' for Active; 'I' for Inactive)
REMARK    1  A    between atoms: C_8  and  C_9
REMARK    2  A    between atoms: C_9  and  N_10
REMARK    3  A    between atoms: N_10  and  C_11
REMARK                            x       y       z     vdW  Elec       q    Type
REMARK                         _______ _______ _______ _____ _____    ______ ____
ROOT
ATOM      1  N   UNL     1       0.981  10.431  17.866  0.00  0.00    +0.000 N 
ATOM      2  C   UNL     1       1.670   9.302  18.249  0.00  0.00    +0.000 A 
ATOM      3  N   UNL     1       1.386   8.778  19.439  0.00  0.00    +0.000 NA
ATOM      4  C   UNL     1       2.084   7.683  19.796  0.00  0.00    +0.000 A 
ATOM      5  N   UNL     1       1.829   7.201  21.092  0.00  0.00    +0.000 N 
ATOM      6  C   UNL     1       3.057   7.075  19.003  0.00  0.00    +0.000 A 
ATOM      7  N   UNL     1       3.735   5.947  19.372  0.00  0.00    +0.000 NA
ATOM      8  C   UNL     1       4.643   5.434  18.509  0.00  0.00    +0.000 A 
ATOM      9  C   UNL     1       4.907   6.031  17.285  0.00  0.00    +0.000 A 
ATOM     10  C   UNL     1       4.182   7.165  16.924  0.00  0.00    +0.000 A 
ATOM     11  C   UNL     1       3.235   7.713  17.774  0.00  0.00    +0.000 A 
ATOM     12  N   UNL     1       2.551   8.800  17.385  0.00  0.00    +0.000 NA
ATOM     13  H   UNL     1       0.107  10.506  18.367  0.00  0.00    +0.000 HD
ATOM     14  H   UNL     1       0.959  10.514  16.860  0.00  0.00    +0.000 HD
ATOM     15  H   UNL     1       1.011   7.664  21.472  0.00  0.00    +0.000 HD
ATOM     16  H   UNL     1       1.804   6.187  21.111  0.00  0.00    +0.000 HD
ENDROOT
BRANCH   8  17
ATOM     17  C   UNL     1       5.330   4.139  18.895  0.00  0.00    +0.000 C 
BRANCH  17  18
ATOM     18  N   UNL     1       4.479   2.975  18.654  0.00  0.00    +0.000 N 
ATOM     19  H   UNL     1       5.026   2.110  18.669  0.00  0.00    +0.000 HD
BRANCH  18  20
ATOM     20  C   UNL     1       3.350   2.846  19.502  0.00  0.00    +0.000 A 
ATOM     21  C   UNL     1       3.491   2.590  20.874  0.00  0.00    +0.000 A 
ATOM     22  C   UNL     1       2.383   2.508  21.720  0.00  0.00    +0.000 A 
ATOM     23  C   UNL     1       1.103   2.719  21.223  0.00  0.00    +0.000 A 
ATOM     24  C   UNL     1       0.934   3.028  19.876  0.00  0.00    +0.000 A 
ATOM     25  C   UNL     1       2.046   3.104  19.028  0.00  0.00    +0.000 A 
ATOM     26 CL   UNL     1       1.768   3.489  17.363  0.00  0.00    +0.000 Cl
ENDBRANCH  18  20
ENDBRANCH  17  18
ENDBRANCH   8  17
TORSDOF 3
ENDMDL
MODEL 6
REMARK VINA RESULT:      -7.5      2.805      6.407
REMARK  Name = 
REMARK  3 active torsions:
REMARK  status: ('A' for Active; 'I' for Inactive)
REMARK    1  A    between atoms: C_8  and  C_9
REMARK    2  A    between atoms: C_9  and  N_10
REMARK    3  A    between atoms: N_10  and  C_11
REMARK                            x       y       z     vdW  Elec       q    Type
REMARK                         _______ _______ _______ _____ _____    ______ ____
ROOT
ATOM      1  N   UNL     1       0.630   3.258  20.488  0.00  0.00    +0.000 N 
ATOM      2  C   UNL     1       1.835   3.620  19.930  0.00  0.00    +0.000 A 
ATOM      3  N   UNL     1       2.871   2.803  20.108  0.00  0.00    +0.000 NA
ATOM      4  C   UNL     1       4.041   3.187  19.564  0.00  0.00    +0.000 A 
ATOM      5  N   UNL     1       5.137   2.352  19.840  0.00  0.00    +0.000 N 
ATOM      6  C   UNL     1       4.224   4.361  18.833  0.00  0.00    +0.000 A 
ATOM      7  N   UNL     1       5.414   4.720  18.266  0.00  0.00    +0.000 NA
ATOM      8  C   UNL     1       5.465   5.873  17.559  0.00  0.00    +0.000 A 
ATOM      9  C   UNL     1       4.355   6.695  17.418  0.00  0.00    +0.000 A 
ATOM     10  C   UNL     1       3.148   6.290  17.985  0.00  0.00    +0.000 A 
ATOM     11  C   UNL     1       3.052   5.110  18.705  0.00  0.00    +0.000 A 
ATOM     12  N   UNL     1       1.869   4.752  19.227  0.00  0.00    +0.000 NA
ATOM     13  H   UNL     1       0.594   2.261  20.648  0.00  0.00    +0.000 HD
ATOM     14  H   UNL     1      -0.138   3.688  19.994  0.00  0.00    +0.000 HD
ATOM     15  H   UNL     1       4.810   1.488  20.257  0.00  0.00    +0.000 HD
ATOM     16  H   UNL     1       5.735   2.244  19.027  0.00  0.00    +0.000 HD
ENDROOT
BRANCH   8  17
ATOM     17  C   UNL     1       6.768   6.221  16.868  0.00  0.00    +0.000 C 
BRANCH  17  18
ATOM     18  N   UNL     1       7.412   5.042  16.289  0.00  0.00    +0.000 N 
ATOM     19  H   UNL     1       7.183   4.199  16.822  0.00  0.00    +0.000 HD
BRANCH  18  20
ATOM     20  C   UNL     1       7.174   4.821  14.910  0.00  0.00    +0.000 A 
ATOM     21  C   UNL     1       7.956   5.443  13.924  0.00  0.00    +0.000 A 
ATOM     22  C   UNL     1       7.753   5.192  12.565  0.00  0.00    +0.000 A 
ATOM     23  C   UNL     1       6.788   4.282  12.155  0.00  0.00    +0.000 A 
ATOM     24  C   UNL     1       6.032   3.608  13.111  0.00  0.00    +0.000 A 
ATOM     25  C   UNL     1       6.232   3.866  14.473  0.00  0.00    +0.000 A 
ATOM     26 CL   UNL     1       5.258   2.998  15.612  0.00  0.00    +0.000 Cl
ENDBRANCH  18  20
ENDBRANCH  17  18
ENDBRANCH   8  17
TORSDOF 3
ENDMDL
MODEL 7
REMARK VINA RESULT:      -7.4      1.959      2.367
REMARK  Name = 
REMARK  3 active torsions:
REMARK  status: ('A' for Active; 'I' for Inactive)
REMARK    1  A    between atoms: C_8  and  C_9
REMARK    2  A    between atoms: C_9  and  N_10
REMARK    3  A    between atoms: N_10  and  C_11
REMARK                            x       y       z     vdW  Elec       q    Type
REMARK                         _______ _______ _______ _____ _____    ______ ____
ROOT
ATOM      1  N   UNL     1       7.823   8.606  17.559  0.00  0.00    +0.000 N 
ATOM      2  C   UNL     1       7.090   7.471  17.297  0.00  0.00    +0.000 A 
ATOM      3  N   UNL     1       7.681   6.496  16.610  0.00  0.00    +0.000 NA
ATOM      4  C   UNL     1       6.938   5.402  16.355  0.00  0.00    +0.000 A 
ATOM      5  N   UNL     1       7.556   4.427  15.555  0.00  0.00    +0.000 N 
ATOM      6  C   UNL     1       5.617   5.232  16.770  0.00  0.00    +0.000 A 
ATOM      7  N   UNL     1       4.889   4.102  16.526  0.00  0.00    +0.000 NA
ATOM      8  C   UNL     1       3.622   4.042  16.997  0.00  0.00    +0.000 A 
ATOM      9  C   UNL     1       3.050   5.096  17.697  0.00  0.00    +0.000 A 
ATOM     10  C   UNL     1       3.826   6.225  17.955  0.00  0.00    +0.000 A 
ATOM     11  C   UNL     1       5.132   6.319  17.500  0.00  0.00    +0.000 A 
ATOM     12  N   UNL     1       5.848   7.420  17.778  0.00  0.00    +0.000 NA
ATOM     13  H   UNL     1       8.813   8.412  17.514  0.00  0.00    +0.000 HD
ATOM     14  H   UNL     1       7.468   9.082  18.375  0.00  0.00    +0.000 HD
ATOM     15  H   UNL     1       8.543   4.640  15.459  0.00  0.00    +0.000 HD
ATOM     16  H   UNL     1       7.343   3.490  15.882  0.00  0.00    +0.000 HD
ENDROOT
BRANCH   8  17
ATOM     17  C   UNL     1       2.851   2.754  16.789  0.00  0.00    +0.000 C 
BRANCH  17  18
ATOM     18  N   UNL     1       2.988   1.844  17.925  0.00  0.00    +0.000 N 
ATOM     19  H   UNL     1       3.962   1.555  18.050  0.00  0.00    +0.000 HD
BRANCH  18  20
ATOM     20  C   UNL     1       2.461   2.307  19.156  0.00  0.00    +0.000 A 
ATOM     21  C   UNL     1       1.102   2.631  19.295  0.00  0.00    +0.000 A 
ATOM     22  C   UNL     1       0.571   3.044  20.519  0.00  0.00    +0.000 A 
ATOM     23  C   UNL     1       1.376   3.107  21.649  0.00  0.00    +0.000 A 
ATOM     24  C   UNL     1       2.716   2.739  21.557  0.00  0.00    +0.000 A 
ATOM     25  C   UNL     1       3.249   2.332  20.327  0.00  0.00    +0.000 A 
ATOM     26 CL   UNL     1       4.923   1.891  20.278  0.00  0.00    +0.000 Cl
ENDBRANCH  18  20
ENDBRANCH  17  18
ENDBRANCH   8  17
TORSDOF 3
ENDMDL
MODEL 8
REMARK VINA RESULT:      -7.4      3.600      8.057
REMARK  Name = 
REMARK  3 active torsions:
REMARK  status: ('A' for Active; 'I' for Inactive)
REMARK    1  A    between atoms: C_8  and  C_9
REMARK    2  A    between atoms: C_9  and  N_10
REMARK    3  A    between atoms: N_10  and  C_11
REMARK                            x       y       z     vdW  Elec       q    Type
REMARK                         _______ _______ _______ _____ _____    ______ ____
ROOT
ATOM      1  N   UNL     1       4.503   2.811  17.497  0.00  0.00    +0.000 N 
ATOM      2  C   UNL     1       5.131   4.031  17.397  0.00  0.00    +0.000 A 
ATOM      3  N   UNL     1       4.760   4.839  16.405  0.00  0.00    +0.000 NA
ATOM      4  C   UNL     1       5.400   6.021  16.321  0.00  0.00    +0.000 A 
ATOM      5  N   UNL     1       5.052   6.817  15.216  0.00  0.00    +0.000 N 
ATOM      6  C   UNL     1       6.398   6.442  17.199  0.00  0.00    +0.000 A 
ATOM      7  N   UNL     1       7.015   7.658  17.113  0.00  0.00    +0.000 NA
ATOM      8  C   UNL     1       7.956   7.966  18.037  0.00  0.00    +0.000 A 
ATOM      9  C   UNL     1       8.312   7.078  19.043  0.00  0.00    +0.000 A 
ATOM     10  C   UNL     1       7.646   5.856  19.121  0.00  0.00    +0.000 A 
ATOM     11  C   UNL     1       6.669   5.510  18.202  0.00  0.00    +0.000 A 
ATOM     12  N   UNL     1       6.045   4.327  18.319  0.00  0.00    +0.000 NA
ATOM     13  H   UNL     1       3.604   2.830  17.036  0.00  0.00    +0.000 HD
ATOM     14  H   UNL     1       4.544   2.462  18.443  0.00  0.00    +0.000 HD
ATOM     15  H   UNL     1       4.229   6.434  14.765  0.00  0.00    +0.000 HD
ATOM     16  H   UNL     1       4.993   7.798  15.470  0.00  0.00    +0.000 HD
ENDROOT
BRANCH   8  17
ATOM     17  C   UNL     1       8.576   9.347  17.979  0.00  0.00    +0.000 C 
BRANCH  17  18
ATOM     18  N   UNL     1       9.006   9.811  19.298  0.00  0.00    +0.000 N 
ATOM     19  H   UNL     1       9.392   9.041  19.850  0.00  0.00    +0.000 HD
BRANCH  18  20
ATOM     20  C   UNL     1       9.902  10.909  19.307  0.00  0.00    +0.000 A 
ATOM     21  C   UNL     1      10.684  11.224  18.185  0.00  0.00    +0.000 A 
ATOM     22  C   UNL     1      11.534  12.332  18.176  0.00  0.00    +0.000 A 
ATOM     23  C   UNL     1      11.597  13.179  19.275  0.00  0.00    +0.000 A 
ATOM     24  C   UNL     1      10.793  12.924  20.383  0.00  0.00    +0.000 A 
ATOM     25  C   UNL     1       9.946  11.808  20.394  0.00  0.00    +0.000 A 
ATOM     26 CL   UNL     1       8.974  11.545  21.802  0.00  0.00    +0.000 Cl
ENDBRANCH  18  20
ENDBRANCH  17  18
ENDBRANCH   8  17
TORSDOF 3
ENDMDL
MODEL 9
REMARK VINA RESULT:      -7.4      1.201      1.591
REMARK  Name = 
REMARK  3 active torsions:
REMARK  status: ('A' for Active; 'I' for Inactive)
REMARK    1  A    between atoms: C_8  and  C_9
REMARK    2  A    between atoms: C_9  and  N_10
REMARK    3  A    between atoms: N_10  and  C_11
REMARK                            x       y       z     vdW  Elec       q    Type
REMARK                         _______ _______ _______ _____ _____    ______ ____
ROOT
ATOM      1  N   UNL     1       8.813   9.496  18.030  0.00  0.00    +0.000 N 
ATOM      2  C   UNL     1       8.134   8.298  18.035  0.00  0.00    +0.000 A 
ATOM      3  N   UNL     1       8.445   7.413  18.980  0.00  0.00    +0.000 NA
ATOM      4  C   UNL     1       7.777   6.244  18.953  0.00  0.00    +0.000 A 
ATOM      5  N   UNL     1       8.185   5.295  19.906  0.00  0.00    +0.000 N 
ATOM      6  C   UNL     1       6.792   5.920  18.020  0.00  0.00    +0.000 A 
ATOM      7  N   UNL     1       6.106   4.738  18.027  0.00  0.00    +0.000 NA
ATOM      8  C   UNL     1       5.156   4.544  17.083  0.00  0.00    +0.000 A 
ATOM      9  C   UNL     1       4.882   5.497  16.112  0.00  0.00    +0.000 A 
ATOM     10  C   UNL     1       5.580   6.704  16.146  0.00  0.00    +0.000 A 
ATOM     11  C   UNL     1       6.551   6.946  17.104  0.00  0.00    +0.000 A 
ATOM     12  N   UNL     1       7.193   8.124  17.108  0.00  0.00    +0.000 NA
ATOM     13  H   UNL     1       9.195   9.695  18.944  0.00  0.00    +0.000 HD
ATOM     14  H   UNL     1       8.270  10.214  17.575  0.00  0.00    +0.000 HD
ATOM     15  H   UNL     1       8.801   5.734  20.581  0.00  0.00    +0.000 HD
ATOM     16  H   UNL     1       7.391   4.799  20.297  0.00  0.00    +0.000 HD
ENDROOT
BRANCH   8  17
ATOM     17  C   UNL     1       4.346   3.264  17.149  0.00  0.00    +0.000 C 
BRANCH  17  18
ATOM     18  N   UNL     1       2.911   3.528  17.247  0.00  0.00    +0.000 N 
ATOM     19  H   UNL     1       2.368   2.685  17.045  0.00  0.00    +0.000 HD
BRANCH  18  20
ATOM     20  C   UNL     1       2.469   4.108  18.462  0.00  0.00    +0.000 A 
ATOM     21  C   UNL     1       2.581   5.487  18.698  0.00  0.00    +0.000 A 
ATOM     22  C   UNL     1       2.106   6.067  19.876  0.00  0.00    +0.000 A 
ATOM     23  C   UNL     1       1.469   5.291  20.835  0.00  0.00    +0.000 A 
ATOM     24  C   UNL     1       1.294   3.928  20.607  0.00  0.00    +0.000 A 
ATOM     25  C   UNL     1       1.777   3.346  19.428  0.00  0.00    +0.000 A 
ATOM     26 CL   UNL     1       1.531   1.647  19.205  0.00  0.00    +0.000 Cl
ENDBRANCH  18  20
ENDBRANCH  17  18
ENDBRANCH   8  17
TORSDOF 3
ENDMDL
