MODEL 1
REMARK VINA RESULT:      -8.3      0.000      0.000
REMARK  Name = 
REMARK  3 active torsions:
REMARK  status: ('A' for Active; 'I' for Inactive)
REMARK    1  A    between atoms: N_3  and  C_4
REMARK    2  A    between atoms: C_9  and  O_10
REMARK    3  A    between atoms: N_11  and  C_12
REMARK                            x       y       z     vdW  Elec       q    Type
REMARK                         _______ _______ _______ _____ _____    ______ ____
ROOT
ATOM      1  O   UNL     1       4.447   4.991  16.165  0.00  0.00    +0.000 OA
ATOM      2  C   UNL     1       4.916   3.870  16.331  0.00  0.00    +0.000 C 
ATOM      3  N   UNL     1       5.933   3.320  15.580  0.00  0.00    +0.000 N 
ATOM      4  N   UNL     1       4.481   3.000  17.304  0.00  0.00    +0.000 N 
ATOM      5  H   UNL     1       6.592   2.736  16.078  0.00  0.00    +0.000 HD
ATOM      6  H   UNL     1       4.902   2.082  17.301  0.00  0.00    +0.000 HD
ENDROOT
BRANCH   4   7
ATOM      7  C   UNL     1       3.479   3.299  18.339  0.00  0.00    +0.000 C 
ATOM      8  C   UNL     1       2.219   4.008  17.775  0.00  0.00    +0.000 C 
ATOM      9  C   UNL     1       1.192   4.269  18.892  0.00  0.00    +0.000 C 
ATOM     10  C   UNL     1       0.759   2.931  19.510  0.00  0.00    +0.000 C 
ATOM     11  C   UNL     1       1.981   2.207  20.093  0.00  0.00    +0.000 C 
ATOM     12  C   UNL     1       2.617   3.085  21.180  0.00  0.00    +0.000 C 
ATOM     13  C   UNL     1       3.062   4.428  20.577  0.00  0.00    +0.000 C 
ATOM     14  C   UNL     1       1.839   5.144  19.980  0.00  0.00    +0.000 C 
ATOM     15  C   UNL     1       4.092   4.171  19.462  0.00  0.00    +0.000 C 
ATOM     16  C   UNL     1       3.010   1.961  18.976  0.00  0.00    +0.000 C 
ENDBRANCH   4   7
BRANCH   3  17
ATOM     17  C   UNL     1       6.455   3.879  14.389  0.00  0.00    +0.000 A 
ATOM     18  C   UNL     1       6.171   3.358  13.126  0.00  0.00    +0.000 A 
ATOM     19  C   UNL     1       6.729   3.947  11.986  0.00  0.00    +0.000 A 
ATOM     20  C   UNL     1       7.558   5.064  12.103  0.00  0.00    +0.000 A 
ATOM     21  C   UNL     1       7.855   5.585  13.362  0.00  0.00    +0.000 A 
ATOM     22  C   UNL     1       7.319   4.978  14.498  0.00  0.00    +0.000 A 
BRANCH  22  23
ATOM     23  O   UNL     1       7.599   5.465  15.748  0.00  0.00    +0.000 OA
ATOM     24  H   UNL     1       8.551   5.351  15.908  0.00  0.00    +0.000 HD
ENDBRANCH  22  23
ENDBRANCH   3  17
TORSDOF 3
ENDMDL
MODEL 2
REMARK VINA RESULT:      -8.2      0.115      1.630
REMARK  Name = 
REMARK  3 active torsions:
REMARK  status: ('A' for Active; 'I' for Inactive)
REMARK    1  A    between atoms: N_3  and  C_4
REMARK    2  A    between atoms: C_9  and  O_10
REMARK    3  A    between atoms: N_11  and  C_12
REMARK                            x       y       z     vdW  Elec       q    Type
REMARK                         _______ _______ _______ _____ _____    ______ ____
ROOT
ATOM      1  O   UNL     1       4.498   4.949  16.312  0.00  0.00    +0.000 OA
ATOM      2  C   UNL     1       4.918   3.802  16.420  0.00  0.00    +0.000 C 
ATOM      3  N   UNL     1       5.898   3.242  15.628  0.00  0.00    +0.000 N 
ATOM      4  N   UNL     1       4.459   2.908  17.360  0.00  0.00    +0.000 N 
ATOM      5  H   UNL     1       6.537   2.607  16.088  0.00  0.00    +0.000 HD
ATOM      6  H   UNL     1       4.838   1.974  17.309  0.00  0.00    +0.000 HD
ENDROOT
BRANCH   4   7
ATOM      7  C   UNL     1       3.486   3.204  18.424  0.00  0.00    +0.000 C 
ATOM      8  C   UNL     1       4.045   4.167  19.504  0.00  0.00    +0.000 C 
ATOM      9  C   UNL     1       2.980   4.468  20.574  0.00  0.00    +0.000 C 
ATOM     10  C   UNL     1       1.766   5.136  19.912  0.00  0.00    +0.000 C 
ATOM     11  C   UNL     1       1.176   4.202  18.844  0.00  0.00    +0.000 C 
ATOM     12  C   UNL     1       0.733   2.891  19.511  0.00  0.00    +0.000 C 
ATOM     13  C   UNL     1       1.939   2.206  20.175  0.00  0.00    +0.000 C 
ATOM     14  C   UNL     1       2.538   3.149  21.232  0.00  0.00    +0.000 C 
ATOM     15  C   UNL     1       3.005   1.900  19.106  0.00  0.00    +0.000 C 
ATOM     16  C   UNL     1       2.248   3.894  17.786  0.00  0.00    +0.000 C 
ENDBRANCH   4   7
BRANCH   3  17
ATOM     17  C   UNL     1       6.427   3.831  14.455  0.00  0.00    +0.000 A 
ATOM     18  C   UNL     1       6.106   3.378  13.175  0.00  0.00    +0.000 A 
ATOM     19  C   UNL     1       6.673   3.993  12.053  0.00  0.00    +0.000 A 
ATOM     20  C   UNL     1       7.549   5.069  12.206  0.00  0.00    +0.000 A 
ATOM     21  C   UNL     1       7.884   5.521  13.483  0.00  0.00    +0.000 A 
ATOM     22  C   UNL     1       7.337   4.887  14.599  0.00  0.00    +0.000 A 
BRANCH  22  23
ATOM     23  O   UNL     1       7.654   5.307  15.864  0.00  0.00    +0.000 OA
ATOM     24  H   UNL     1       7.190   6.146  16.027  0.00  0.00    +0.000 HD
ENDBRANCH  22  23
ENDBRANCH   3  17
TORSDOF 3
ENDMDL
MODEL 3
REMARK VINA RESULT:      -8.1      0.125      1.684
REMARK  Name = 
REMARK  3 active torsions:
REMARK  status: ('A' for Active; 'I' for Inactive)
REMARK    1  A    between atoms: N_3  and  C_4
REMARK    2  A    between atoms: C_9  and  O_10
REMARK    3  A    between atoms: N_11  and  C_12
REMARK                            x       y       z     vdW  Elec       q    Type
REMARK                         _______ _______ _______ _____ _____    ______ ____
ROOT
ATOM      1  O   UNL     1       4.432   4.952  16.252  0.00  0.00    +0.000 OA
ATOM      2  C   UNL     1       4.901   3.829  16.400  0.00  0.00    +0.000 C 
ATOM      3  N   UNL     1       5.922   3.294  15.644  0.00  0.00    +0.000 N 
ATOM      4  N   UNL     1       4.462   2.940  17.354  0.00  0.00    +0.000 N 
ATOM      5  H   UNL     1       6.579   2.701  16.134  0.00  0.00    +0.000 HD
ATOM      6  H   UNL     1       4.884   2.024  17.337  0.00  0.00    +0.000 HD
ENDROOT
BRANCH   4   7
ATOM      7  C   UNL     1       3.455   3.219  18.390  0.00  0.00    +0.000 C 
ATOM      8  C   UNL     1       3.031   1.953  19.180  0.00  0.00    +0.000 C 
ATOM      9  C   UNL     1       2.001   2.306  20.269  0.00  0.00    +0.000 C 
ATOM     10  C   UNL     1       2.624   3.305  21.255  0.00  0.00    +0.000 C 
ATOM     11  C   UNL     1       3.042   4.581  20.508  0.00  0.00    +0.000 C 
ATOM     12  C   UNL     1       1.803   5.214  19.858  0.00  0.00    +0.000 C 
ATOM     13  C   UNL     1       1.170   4.227  18.863  0.00  0.00    +0.000 C 
ATOM     14  C   UNL     1       0.767   2.945  19.610  0.00  0.00    +0.000 C 
ATOM     15  C   UNL     1       2.197   3.875  17.770  0.00  0.00    +0.000 C 
ATOM     16  C   UNL     1       4.060   4.221  19.413  0.00  0.00    +0.000 C 
ENDBRANCH   4   7
BRANCH   3  17
ATOM     17  C   UNL     1       6.449   3.875  14.466  0.00  0.00    +0.000 A 
ATOM     18  C   UNL     1       6.173   3.376  13.193  0.00  0.00    +0.000 A 
ATOM     19  C   UNL     1       6.736   3.986  12.066  0.00  0.00    +0.000 A 
ATOM     20  C   UNL     1       7.563   5.102  12.208  0.00  0.00    +0.000 A 
ATOM     21  C   UNL     1       7.853   5.601  13.478  0.00  0.00    +0.000 A 
ATOM     22  C   UNL     1       7.311   4.972  14.600  0.00  0.00    +0.000 A 
BRANCH  22  23
ATOM     23  O   UNL     1       7.584   5.437  15.860  0.00  0.00    +0.000 OA
ATOM     24  H   UNL     1       6.814   5.944  16.166  0.00  0.00    +0.000 HD
ENDBRANCH  22  23
ENDBRANCH   3  17
TORSDOF 3
ENDMDL
MODEL 4
REMARK VINA RESULT:      -7.7      4.419      7.968
REMARK  Name = 
REMARK  3 active torsions:
REMARK  status: ('A' for Active; 'I' for Inactive)
REMARK    1  A    between atoms: N_3  and  C_4
REMARK    2  A    between atoms: C_9  and  O_10
REMARK    3  A    between atoms: N_11  and  C_12
REMARK                            x       y       z     vdW  Elec       q    Type
REMARK                         _______ _______ _______ _____ _____    ______ ____
ROOT
ATOM      1  O   UNL     1       0.468   6.695  20.772  0.00  0.00    +0.000 OA
ATOM      2  C   UNL     1       1.566   7.241  20.755  0.00  0.00    +0.000 C 
ATOM      3  N   UNL     1       1.830   8.499  21.252  0.00  0.00    +0.000 N 
ATOM      4  N   UNL     1       2.697   6.661  20.228  0.00  0.00    +0.000 N 
ATOM      5  H   UNL     1       2.728   8.624  21.701  0.00  0.00    +0.000 HD
ATOM      6  H   UNL     1       3.527   7.234  20.216  0.00  0.00    +0.000 HD
ENDROOT
BRANCH   4   7
ATOM      7  C   UNL     1       2.794   5.290  19.703  0.00  0.00    +0.000 C 
ATOM      8  C   UNL     1       2.008   5.091  18.380  0.00  0.00    +0.000 C 
ATOM      9  C   UNL     1       2.169   3.651  17.859  0.00  0.00    +0.000 C 
ATOM     10  C   UNL     1       3.654   3.369  17.587  0.00  0.00    +0.000 C 
ATOM     11  C   UNL     1       4.463   3.543  18.881  0.00  0.00    +0.000 C 
ATOM     12  C   UNL     1       3.944   2.554  19.936  0.00  0.00    +0.000 C 
ATOM     13  C   UNL     1       2.458   2.825  20.224  0.00  0.00    +0.000 C 
ATOM     14  C   UNL     1       1.653   2.667  18.924  0.00  0.00    +0.000 C 
ATOM     15  C   UNL     1       2.294   4.264  20.749  0.00  0.00    +0.000 C 
ATOM     16  C   UNL     1       4.287   4.978  19.405  0.00  0.00    +0.000 C 
ENDBRANCH   4   7
BRANCH   3  17
ATOM     17  C   UNL     1       0.848   9.426  21.677  0.00  0.00    +0.000 A 
ATOM     18  C   UNL     1       0.200   9.323  22.909  0.00  0.00    +0.000 A 
ATOM     19  C   UNL     1      -0.773  10.263  23.267  0.00  0.00    +0.000 A 
ATOM     20  C   UNL     1      -1.090  11.314  22.404  0.00  0.00    +0.000 A 
ATOM     21  C   UNL     1      -0.454  11.418  21.166  0.00  0.00    +0.000 A 
ATOM     22  C   UNL     1       0.495  10.462  20.802  0.00  0.00    +0.000 A 
BRANCH  22  23
ATOM     23  O   UNL     1       1.130  10.537  19.590  0.00  0.00    +0.000 OA
ATOM     24  H   UNL     1       0.453  10.656  18.903  0.00  0.00    +0.000 HD
ENDBRANCH  22  23
ENDBRANCH   3  17
TORSDOF 3
ENDMDL
MODEL 5
REMARK VINA RESULT:      -7.6      4.386      7.966
REMARK  Name = 
REMARK  3 active torsions:
REMARK  status: ('A' for Active; 'I' for Inactive)
REMARK    1  A    between atoms: N_3  and  C_4
REMARK    2  A    between atoms: C_9  and  O_10
REMARK    3  A    between atoms: N_11  and  C_12
REMARK                            x       y       z     vdW  Elec       q    Type
REMARK                         _______ _______ _______ _____ _____    ______ ____
ROOT
ATOM      1  O   UNL     1       0.534   6.633  20.839  0.00  0.00    +0.000 OA
ATOM      2  C   UNL     1       1.608   7.213  20.722  0.00  0.00    +0.000 C 
ATOM      3  N   UNL     1       1.862   8.498  21.150  0.00  0.00    +0.000 N 
ATOM      4  N   UNL     1       2.718   6.649  20.137  0.00  0.00    +0.000 N 
ATOM      5  H   UNL     1       2.784   8.671  21.527  0.00  0.00    +0.000 HD
ATOM      6  H   UNL     1       3.525   7.248  20.043  0.00  0.00    +0.000 HD
ENDROOT
BRANCH   4   7
ATOM      7  C   UNL     1       2.826   5.261  19.660  0.00  0.00    +0.000 C 
ATOM      8  C   UNL     1       2.233   4.230  20.656  0.00  0.00    +0.000 C 
ATOM      9  C   UNL     1       2.343   2.801  20.095  0.00  0.00    +0.000 C 
ATOM     10  C   UNL     1       1.559   2.708  18.777  0.00  0.00    +0.000 C 
ATOM     11  C   UNL     1       2.130   3.706  17.760  0.00  0.00    +0.000 C 
ATOM     12  C   UNL     1       3.606   3.370  17.497  0.00  0.00    +0.000 C 
ATOM     13  C   UNL     1       4.407   3.464  18.807  0.00  0.00    +0.000 C 
ATOM     14  C   UNL     1       3.823   2.474  19.829  0.00  0.00    +0.000 C 
ATOM     15  C   UNL     1       4.302   4.894  19.368  0.00  0.00    +0.000 C 
ATOM     16  C   UNL     1       2.031   5.131  18.331  0.00  0.00    +0.000 C 
ENDBRANCH   4   7
BRANCH   3  17
ATOM     17  C   UNL     1       0.880   9.409  21.609  0.00  0.00    +0.000 A 
ATOM     18  C   UNL     1       0.281   9.300  22.865  0.00  0.00    +0.000 A 
ATOM     19  C   UNL     1      -0.694  10.224  23.257  0.00  0.00    +0.000 A 
ATOM     20  C   UNL     1      -1.062  11.265  22.403  0.00  0.00    +0.000 A 
ATOM     21  C   UNL     1      -0.477  11.375  21.141  0.00  0.00    +0.000 A 
ATOM     22  C   UNL     1       0.475  10.435  20.745  0.00  0.00    +0.000 A 
BRANCH  22  23
ATOM     23  O   UNL     1       1.062  10.516  19.508  0.00  0.00    +0.000 OA
ATOM     24  H   UNL     1       0.498  11.071  18.944  0.00  0.00    +0.000 HD
ENDBRANCH  22  23
ENDBRANCH   3  17
TORSDOF 3
ENDMDL
MODEL 6
REMARK VINA RESULT:      -7.6      4.447      8.040
REMARK  Name = 
REMARK  3 active torsions:
REMARK  status: ('A' for Active; 'I' for Inactive)
REMARK    1  A    between atoms: N_3  and  C_4
REMARK    2  A    between atoms: C_9  and  O_10
REMARK    3  A    between atoms: N_11  and  C_12
REMARK                            x       y       z     vdW  Elec       q    Type
REMARK                         _______ _______ _______ _____ _____    ______ ____
ROOT
ATOM      1  O   UNL     1       0.449   6.743  20.767  0.00  0.00    +0.000 OA
ATOM      2  C   UNL     1       1.546   7.290  20.744  0.00  0.00    +0.000 C 
ATOM      3  N   UNL     1       1.813   8.546  21.246  0.00  0.00    +0.000 N 
ATOM      4  N   UNL     1       2.673   6.714  20.204  0.00  0.00    +0.000 N 
ATOM      5  H   UNL     1       2.714   8.670  21.688  0.00  0.00    +0.000 HD
ATOM      6  H   UNL     1       3.503   7.289  20.189  0.00  0.00    +0.000 HD
ENDROOT
BRANCH   4   7
ATOM      7  C   UNL     1       2.767   5.346  19.670  0.00  0.00    +0.000 C 
ATOM      8  C   UNL     1       4.230   4.893  19.422  0.00  0.00    +0.000 C 
ATOM      9  C   UNL     1       4.273   3.447  18.895  0.00  0.00    +0.000 C 
ATOM     10  C   UNL     1       3.644   2.506  19.934  0.00  0.00    +0.000 C 
ATOM     11  C   UNL     1       2.187   2.917  20.194  0.00  0.00    +0.000 C 
ATOM     12  C   UNL     1       1.395   2.825  18.881  0.00  0.00    +0.000 C 
ATOM     13  C   UNL     1       2.009   3.766  17.831  0.00  0.00    +0.000 C 
ATOM     14  C   UNL     1       3.472   3.362  17.584  0.00  0.00    +0.000 C 
ATOM     15  C   UNL     1       1.964   5.214  18.353  0.00  0.00    +0.000 C 
ATOM     16  C   UNL     1       2.149   4.367  20.707  0.00  0.00    +0.000 C 
ENDBRANCH   4   7
BRANCH   3  17
ATOM     17  C   UNL     1       0.833   9.469  21.685  0.00  0.00    +0.000 A 
ATOM     18  C   UNL     1       0.174   9.342  22.908  0.00  0.00    +0.000 A 
ATOM     19  C   UNL     1      -0.796  10.280  23.280  0.00  0.00    +0.000 A 
ATOM     20  C   UNL     1      -1.098  11.353  22.440  0.00  0.00    +0.000 A 
ATOM     21  C   UNL     1      -0.452  11.481  21.210  0.00  0.00    +0.000 A 
ATOM     22  C   UNL     1       0.495  10.528  20.832  0.00  0.00    +0.000 A 
BRANCH  22  23
ATOM     23  O   UNL     1       1.140  10.627  19.627  0.00  0.00    +0.000 OA
ATOM     24  H   UNL     1       2.077  10.411  19.770  0.00  0.00    +0.000 HD
ENDBRANCH  22  23
ENDBRANCH   3  17
TORSDOF 3
ENDMDL
MODEL 7
REMARK VINA RESULT:      -7.4      0.962      1.478
REMARK  Name = 
REMARK  3 active torsions:
REMARK  status: ('A' for Active; 'I' for Inactive)
REMARK    1  A    between atoms: N_3  and  C_4
REMARK    2  A    between atoms: C_9  and  O_10
REMARK    3  A    between atoms: N_11  and  C_12
REMARK                            x       y       z     vdW  Elec       q    Type
REMARK                         _______ _______ _______ _____ _____    ______ ____
ROOT
ATOM      1  O   UNL     1       4.774   5.096  16.308  0.00  0.00    +0.000 OA
ATOM      2  C   UNL     1       5.061   3.905  16.261  0.00  0.00    +0.000 C 
ATOM      3  N   UNL     1       6.002   3.352  15.419  0.00  0.00    +0.000 N 
ATOM      4  N   UNL     1       4.470   2.948  17.053  0.00  0.00    +0.000 N 
ATOM      5  H   UNL     1       6.549   2.590  15.797  0.00  0.00    +0.000 HD
ATOM      6  H   UNL     1       4.746   1.993  16.878  0.00  0.00    +0.000 HD
ENDROOT
BRANCH   4   7
ATOM      7  C   UNL     1       3.497   3.202  18.127  0.00  0.00    +0.000 C 
ATOM      8  C   UNL     1       2.242   3.971  17.637  0.00  0.00    +0.000 C 
ATOM      9  C   UNL     1       1.244   4.183  18.791  0.00  0.00    +0.000 C 
ATOM     10  C   UNL     1       0.795   2.818  19.334  0.00  0.00    +0.000 C 
ATOM     11  C   UNL     1       2.013   2.034  19.843  0.00  0.00    +0.000 C 
ATOM     12  C   UNL     1       2.691   2.830  20.969  0.00  0.00    +0.000 C 
ATOM     13  C   UNL     1       3.153   4.199  20.440  0.00  0.00    +0.000 C 
ATOM     14  C   UNL     1       1.933   4.975  19.916  0.00  0.00    +0.000 C 
ATOM     15  C   UNL     1       4.153   3.990  19.288  0.00  0.00    +0.000 C 
ATOM     16  C   UNL     1       3.013   1.837  18.691  0.00  0.00    +0.000 C 
ENDBRANCH   4   7
BRANCH   3  17
ATOM     17  C   UNL     1       6.637   4.034  14.353  0.00  0.00    +0.000 A 
ATOM     18  C   UNL     1       7.488   5.121  14.556  0.00  0.00    +0.000 A 
ATOM     19  C   UNL     1       8.076   5.763  13.460  0.00  0.00    +0.000 A 
ATOM     20  C   UNL     1       7.827   5.312  12.163  0.00  0.00    +0.000 A 
ATOM     21  C   UNL     1       6.969   4.232  11.950  0.00  0.00    +0.000 A 
ATOM     22  C   UNL     1       6.364   3.613  13.044  0.00  0.00    +0.000 A 
BRANCH  22  23
ATOM     23  O   UNL     1       5.512   2.555  12.864  0.00  0.00    +0.000 OA
ATOM     24  H   UNL     1       5.879   1.790  13.338  0.00  0.00    +0.000 HD
ENDBRANCH  22  23
ENDBRANCH   3  17
TORSDOF 3
ENDMDL
MODEL 8
REMARK VINA RESULT:      -7.4      0.988      2.212
REMARK  Name = 
REMARK  3 active torsions:
REMARK  status: ('A' for Active; 'I' for Inactive)
REMARK    1  A    between atoms: N_3  and  C_4
REMARK    2  A    between atoms: C_9  and  O_10
REMARK    3  A    between atoms: N_11  and  C_12
REMARK                            x       y       z     vdW  Elec       q    Type
REMARK                         _______ _______ _______ _____ _____    ______ ____
ROOT
ATOM      1  O   UNL     1       4.800   5.063  16.231  0.00  0.00    +0.000 OA
ATOM      2  C   UNL     1       5.125   3.881  16.201  0.00  0.00    +0.000 C 
ATOM      3  N   UNL     1       6.077   3.345  15.360  0.00  0.00    +0.000 N 
ATOM      4  N   UNL     1       4.571   2.918  17.013  0.00  0.00    +0.000 N 
ATOM      5  H   UNL     1       6.651   2.607  15.746  0.00  0.00    +0.000 HD
ATOM      6  H   UNL     1       4.876   1.970  16.851  0.00  0.00    +0.000 HD
ENDROOT
BRANCH   4   7
ATOM      7  C   UNL     1       3.599   3.159  18.091  0.00  0.00    +0.000 C 
ATOM      8  C   UNL     1       4.146   4.092  19.203  0.00  0.00    +0.000 C 
ATOM      9  C   UNL     1       3.080   4.336  20.287  0.00  0.00    +0.000 C 
ATOM     10  C   UNL     1       1.852   5.006  19.653  0.00  0.00    +0.000 C 
ATOM     11  C   UNL     1       1.273   4.101  18.556  0.00  0.00    +0.000 C 
ATOM     12  C   UNL     1       0.856   2.759  19.176  0.00  0.00    +0.000 C 
ATOM     13  C   UNL     1       2.077   2.071  19.811  0.00  0.00    +0.000 C 
ATOM     14  C   UNL     1       2.664   2.987  20.899  0.00  0.00    +0.000 C 
ATOM     15  C   UNL     1       3.143   1.823  18.728  0.00  0.00    +0.000 C 
ATOM     16  C   UNL     1       2.346   3.849  17.482  0.00  0.00    +0.000 C 
ENDBRANCH   4   7
BRANCH   3  17
ATOM     17  C   UNL     1       6.681   4.029  14.278  0.00  0.00    +0.000 A 
ATOM     18  C   UNL     1       7.531   5.121  14.459  0.00  0.00    +0.000 A 
ATOM     19  C   UNL     1       8.088   5.765  13.349  0.00  0.00    +0.000 A 
ATOM     20  C   UNL     1       7.810   5.312  12.058  0.00  0.00    +0.000 A 
ATOM     21  C   UNL     1       6.953   4.227  11.868  0.00  0.00    +0.000 A 
ATOM     22  C   UNL     1       6.379   3.605  12.977  0.00  0.00    +0.000 A 
BRANCH  22  23
ATOM     23  O   UNL     1       5.529   2.542  12.818  0.00  0.00    +0.000 OA
ATOM     24  H   UNL     1       4.950   2.731  12.061  0.00  0.00    +0.000 HD
ENDBRANCH  22  23
ENDBRANCH   3  17
TORSDOF 3
ENDMDL
MODEL 9
REMARK VINA RESULT:      -7.4      1.111      1.655
REMARK  Name = 
REMARK  3 active torsions:
REMARK  status: ('A' for Active; 'I' for Inactive)
REMARK    1  A    between atoms: N_3  and  C_4
REMARK    2  A    between atoms: C_9  and  O_10
REMARK    3  A    between atoms: N_11  and  C_12
REMARK                            x       y       z     vdW  Elec       q    Type
REMARK                         _______ _______ _______ _____ _____    ______ ____
ROOT
ATOM      1  O   UNL     1       4.044   3.149  16.245  0.00  0.00    +0.000 OA
ATOM      2  C   UNL     1       4.408   4.286  16.526  0.00  0.00    +0.000 C 
ATOM      3  N   UNL     1       5.154   5.102  15.702  0.00  0.00    +0.000 N 
ATOM      4  N   UNL     1       4.118   4.906  17.719  0.00  0.00    +0.000 N 
ATOM      5  H   UNL     1       4.931   6.088  15.727  0.00  0.00    +0.000 HD
ATOM      6  H   UNL     1       4.527   5.819  17.858  0.00  0.00    +0.000 HD
ENDROOT
BRANCH   4   7
ATOM      7  C   UNL     1       3.262   4.361  18.785  0.00  0.00    +0.000 C 
ATOM      8  C   UNL     1       2.929   5.402  19.886  0.00  0.00    +0.000 C 
ATOM      9  C   UNL     1       2.008   4.791  20.957  0.00  0.00    +0.000 C 
ATOM     10  C   UNL     1       0.693   4.341  20.302  0.00  0.00    +0.000 C 
ATOM     11  C   UNL     1       0.983   3.297  19.214  0.00  0.00    +0.000 C 
ATOM     12  C   UNL     1       1.673   2.082  19.853  0.00  0.00    +0.000 C 
ATOM     13  C   UNL     1       2.996   2.514  20.509  0.00  0.00    +0.000 C 
ATOM     14  C   UNL     1       2.703   3.572  21.587  0.00  0.00    +0.000 C 
ATOM     15  C   UNL     1       3.921   3.123  19.440  0.00  0.00    +0.000 C 
ATOM     16  C   UNL     1       1.916   3.908  18.155  0.00  0.00    +0.000 C 
ENDBRANCH   4   7
BRANCH   3  17
ATOM     17  C   UNL     1       5.775   4.689  14.499  0.00  0.00    +0.000 A 
ATOM     18  C   UNL     1       5.126   3.899  13.549  0.00  0.00    +0.000 A 
ATOM     19  C   UNL     1       5.798   3.512  12.384  0.00  0.00    +0.000 A 
ATOM     20  C   UNL     1       7.112   3.924  12.159  0.00  0.00    +0.000 A 
ATOM     21  C   UNL     1       7.773   4.705  13.107  0.00  0.00    +0.000 A 
ATOM     22  C   UNL     1       7.107   5.066  14.280  0.00  0.00    +0.000 A 
BRANCH  22  23
ATOM     23  O   UNL     1       7.734   5.827  15.232  0.00  0.00    +0.000 OA
ATOM     24  H   UNL     1       8.409   6.367  14.787  0.00  0.00    +0.000 HD
ENDBRANCH  22  23
ENDBRANCH   3  17
TORSDOF 3
ENDMDL
