MODEL 1
REMARK VINA RESULT:      -8.4      0.000      0.000
REMARK  Name = 
REMARK  7 active torsions:
REMARK  status: ('A' for Active; 'I' for Inactive)
REMARK    1  A    between atoms: C_1  and  C_2
REMARK    2  A    between atoms: C_2  and  C_3
REMARK    3  A    between atoms: N_7  and  C_8
REMARK    4  A    between atoms: C_8  and  C_9
REMARK    5  A    between atoms: C_9  and  C_10
REMARK    6  A    between atoms: C_16  and  N_17
REMARK    7  A    between atoms: N_20  and  C_21
REMARK                            x       y       z     vdW  Elec       q    Type
REMARK                         _______ _______ _______ _____ _____    ______ ____
ROOT
ATOM      1  C   UNL     1       3.216   2.893  18.178  0.00  0.00    +0.000 C 
ATOM      2  O   UNL     1       2.729   1.763  18.109  0.00  0.00    +0.000 OA
ATOM      3  N   UNL     1       3.098   3.687  19.308  0.00  0.00    +0.000 N 
ATOM      4  C   UNL     1       2.441   3.160  20.497  0.00  0.00    +0.000 C 
ATOM      5  C   UNL     1       1.107   3.859  20.694  0.00  0.00    +0.000 C 
ATOM      6  C   UNL     1       1.290   5.376  20.791  0.00  0.00    +0.000 C 
ATOM      7  C   UNL     1       2.142   5.971  19.649  0.00  0.00    +0.000 C 
ATOM      8  C   UNL     1       3.415   5.115  19.384  0.00  0.00    +0.000 C 
ENDROOT
BRANCH   7   9
ATOM      9  N   UNL     1       2.462   7.409  19.744  0.00  0.00    +0.000 NA
ATOM     10  C   UNL     1       2.440   8.146  18.464  0.00  0.00    +0.000 C 
ATOM     11  C   UNL     1       1.072   8.721  18.019  0.00  0.00    +0.000 C 
ATOM     12  N   UNL     1       0.436   9.474  19.112  0.00  0.00    +0.000 N 
ATOM     13  C   UNL     1       0.382   8.773  20.408  0.00  0.00    +0.000 C 
ATOM     14  C   UNL     1       1.772   8.208  20.774  0.00  0.00    +0.000 C 
BRANCH  12  15
ATOM     15  C   UNL     1      -0.599  10.360  18.820  0.00  0.00    +0.000 A 
ATOM     16  C   UNL     1      -1.095  11.296  19.739  0.00  0.00    +0.000 A 
ATOM     17  C   UNL     1      -2.200  12.103  19.443  0.00  0.00    +0.000 A 
ATOM     18  C   UNL     1      -2.836  11.987  18.211  0.00  0.00    +0.000 A 
ATOM     19  C   UNL     1      -2.355  11.075  17.282  0.00  0.00    +0.000 A 
ATOM     20 CL   UNL     1      -3.145  10.900  15.761  0.00  0.00    +0.000 Cl
ATOM     21  C   UNL     1      -1.251  10.278  17.578  0.00  0.00    +0.000 A 
ENDBRANCH  12  15
ENDBRANCH   7   9
BRANCH   1  22
ATOM     22  C   UNL     1       4.012   3.466  17.028  0.00  0.00    +0.000 C 
BRANCH  22  23
ATOM     23  C   UNL     1       5.488   3.634  17.376  0.00  0.00    +0.000 C 
BRANCH  23  28
ATOM     24  C   UNL     1       7.069   5.387  16.414  0.00  0.00    +0.000 A 
ATOM     25  N   UNL     1       7.553   5.696  15.226  0.00  0.00    +0.000 NA
ATOM     26  C   UNL     1       6.975   4.831  14.339  0.00  0.00    +0.000 A 
ATOM     27  C   UNL     1       6.128   3.970  14.989  0.00  0.00    +0.000 A 
ATOM     28  N   UNL     1       6.201   4.322  16.313  0.00  0.00    +0.000 N 
BRANCH  24  30
ATOM     29  C   UNL     1       7.548   7.600  17.442  0.00  0.00    +0.000 C 
ATOM     30  C   UNL     1       7.415   6.102  17.676  0.00  0.00    +0.000 C 
ENDBRANCH  24  30
ENDBRANCH  23  28
ENDBRANCH  22  23
ENDBRANCH   1  22
TORSDOF 6
ENDMDL
MODEL 2
REMARK VINA RESULT:      -7.9      0.576      1.502
REMARK  Name = 
REMARK  7 active torsions:
REMARK  status: ('A' for Active; 'I' for Inactive)
REMARK    1  A    between atoms: C_1  and  C_2
REMARK    2  A    between atoms: C_2  and  C_3
REMARK    3  A    between atoms: N_7  and  C_8
REMARK    4  A    between atoms: C_8  and  C_9
REMARK    5  A    between atoms: C_9  and  C_10
REMARK    6  A    between atoms: C_16  and  N_17
REMARK    7  A    between atoms: N_20  and  C_21
REMARK                            x       y       z     vdW  Elec       q    Type
REMARK                         _______ _______ _______ _____ _____    ______ ____
ROOT
ATOM      1  C   UNL     1       3.177   3.193  18.036  0.00  0.00    +0.000 C 
ATOM      2  O   UNL     1       2.743   2.043  17.968  0.00  0.00    +0.000 OA
ATOM      3  N   UNL     1       3.131   3.939  19.204  0.00  0.00    +0.000 N 
ATOM      4  C   UNL     1       2.620   3.335  20.428  0.00  0.00    +0.000 C 
ATOM      5  C   UNL     1       1.279   3.955  20.780  0.00  0.00    +0.000 C 
ATOM      6  C   UNL     1       1.395   5.475  20.922  0.00  0.00    +0.000 C 
ATOM      7  C   UNL     1       2.101   6.155  19.728  0.00  0.00    +0.000 C 
ATOM      8  C   UNL     1       3.383   5.378  19.307  0.00  0.00    +0.000 C 
ENDROOT
BRANCH   7   9
ATOM      9  N   UNL     1       2.357   7.604  19.851  0.00  0.00    +0.000 NA
ATOM     10  C   UNL     1       2.362   8.353  18.578  0.00  0.00    +0.000 C 
ATOM     11  C   UNL     1       0.993   8.877  18.077  0.00  0.00    +0.000 C 
ATOM     12  N   UNL     1       0.278   9.592  19.147  0.00  0.00    +0.000 N 
ATOM     13  C   UNL     1       0.194   8.874  20.432  0.00  0.00    +0.000 C 
ATOM     14  C   UNL     1       1.589   8.363  20.856  0.00  0.00    +0.000 C 
BRANCH  12  15
ATOM     15  C   UNL     1      -0.778  10.437  18.816  0.00  0.00    +0.000 A 
ATOM     16  C   UNL     1      -1.303  11.396  19.695  0.00  0.00    +0.000 A 
ATOM     17  C   UNL     1      -2.427  12.162  19.364  0.00  0.00    +0.000 A 
ATOM     18  C   UNL     1      -3.055  11.980  18.135  0.00  0.00    +0.000 A 
ATOM     19  C   UNL     1      -2.545  11.045  17.245  0.00  0.00    +0.000 A 
ATOM     20 CL   UNL     1      -3.324  10.789  15.730  0.00  0.00    +0.000 Cl
ATOM     21  C   UNL     1      -1.422  10.289  17.577  0.00  0.00    +0.000 A 
ENDBRANCH  12  15
ENDBRANCH   7   9
BRANCH   1  22
ATOM     22  C   UNL     1       3.828   3.849  16.840  0.00  0.00    +0.000 C 
BRANCH  22  23
ATOM     23  C   UNL     1       5.267   3.387  16.642  0.00  0.00    +0.000 C 
BRANCH  23  28
ATOM     24  C   UNL     1       6.657   5.401  15.926  0.00  0.00    +0.000 A 
ATOM     25  N   UNL     1       7.458   6.273  16.509  0.00  0.00    +0.000 NA
ATOM     26  C   UNL     1       7.539   5.901  17.822  0.00  0.00    +0.000 A 
ATOM     27  C   UNL     1       6.770   4.788  18.056  0.00  0.00    +0.000 A 
ATOM     28  N   UNL     1       6.201   4.482  16.846  0.00  0.00    +0.000 N 
BRANCH  24  30
ATOM     29  C   UNL     1       6.352   4.017  13.884  0.00  0.00    +0.000 C 
ATOM     30  C   UNL     1       6.308   5.418  14.476  0.00  0.00    +0.000 C 
ENDBRANCH  24  30
ENDBRANCH  23  28
ENDBRANCH  22  23
ENDBRANCH   1  22
TORSDOF 6
ENDMDL
MODEL 3
REMARK VINA RESULT:      -7.9      3.088      8.737
REMARK  Name = 
REMARK  7 active torsions:
REMARK  status: ('A' for Active; 'I' for Inactive)
REMARK    1  A    between atoms: C_1  and  C_2
REMARK    2  A    between atoms: C_2  and  C_3
REMARK    3  A    between atoms: N_7  and  C_8
REMARK    4  A    between atoms: C_8  and  C_9
REMARK    5  A    between atoms: C_9  and  C_10
REMARK    6  A    between atoms: C_16  and  N_17
REMARK    7  A    between atoms: N_20  and  C_21
REMARK                            x       y       z     vdW  Elec       q    Type
REMARK                         _______ _______ _______ _____ _____    ______ ____
ROOT
ATOM      1  C   UNL     1       1.740   5.964  20.448  0.00  0.00    +0.000 C 
ATOM      2  O   UNL     1       0.947   5.313  21.130  0.00  0.00    +0.000 OA
ATOM      3  N   UNL     1       2.522   5.384  19.461  0.00  0.00    +0.000 N 
ATOM      4  C   UNL     1       2.367   3.968  19.152  0.00  0.00    +0.000 C 
ATOM      5  C   UNL     1       3.593   3.207  19.625  0.00  0.00    +0.000 C 
ATOM      6  C   UNL     1       4.868   3.771  18.994  0.00  0.00    +0.000 C 
ATOM      7  C   UNL     1       4.998   5.305  19.128  0.00  0.00    +0.000 C 
ATOM      8  C   UNL     1       3.657   6.020  18.789  0.00  0.00    +0.000 C 
ENDROOT
BRANCH   7   9
ATOM      9  N   UNL     1       6.141   5.933  18.437  0.00  0.00    +0.000 NA
ATOM     10  C   UNL     1       7.239   5.016  18.070  0.00  0.00    +0.000 C 
ATOM     11  C   UNL     1       7.112   4.295  16.704  0.00  0.00    +0.000 C 
ATOM     12  N   UNL     1       6.797   5.252  15.631  0.00  0.00    +0.000 N 
ATOM     13  C   UNL     1       5.676   6.166  15.915  0.00  0.00    +0.000 C 
ATOM     14  C   UNL     1       5.858   6.829  17.299  0.00  0.00    +0.000 C 
BRANCH  12  15
ATOM     15  C   UNL     1       6.999   4.879  14.303  0.00  0.00    +0.000 A 
ATOM     16  C   UNL     1       7.877   5.551  13.440  0.00  0.00    +0.000 A 
ATOM     17  C   UNL     1       7.982   5.209  12.086  0.00  0.00    +0.000 A 
ATOM     18  C   UNL     1       7.201   4.181  11.566  0.00  0.00    +0.000 A 
ATOM     19  C   UNL     1       6.334   3.496  12.405  0.00  0.00    +0.000 A 
ATOM     20 CL   UNL     1       5.343   2.237  11.773  0.00  0.00    +0.000 Cl
ATOM     21  C   UNL     1       6.237   3.835  13.753  0.00  0.00    +0.000 A 
ENDBRANCH  12  15
ENDBRANCH   7   9
BRANCH   1  22
ATOM     22  C   UNL     1       1.875   7.458  20.627  0.00  0.00    +0.000 C 
BRANCH  22  23
ATOM     23  C   UNL     1       0.645   8.073  21.285  0.00  0.00    +0.000 C 
BRANCH  23  28
ATOM     24  C   UNL     1      -0.132  10.494  21.475  0.00  0.00    +0.000 A 
ATOM     25  N   UNL     1      -0.132  11.567  20.706  0.00  0.00    +0.000 NA
ATOM     26  C   UNL     1       0.401  11.180  19.508  0.00  0.00    +0.000 A 
ATOM     27  C   UNL     1       0.742   9.851  19.539  0.00  0.00    +0.000 A 
ATOM     28  N   UNL     1       0.411   9.423  20.799  0.00  0.00    +0.000 N 
BRANCH  24  30
ATOM     29  C   UNL     1      -1.719  11.526  23.087  0.00  0.00    +0.000 C 
ATOM     30  C   UNL     1      -0.655  10.460  22.871  0.00  0.00    +0.000 C 
ENDBRANCH  24  30
ENDBRANCH  23  28
ENDBRANCH  22  23
ENDBRANCH   1  22
TORSDOF 6
ENDMDL
MODEL 4
REMARK VINA RESULT:      -7.8      1.215      2.010
REMARK  Name = 
REMARK  7 active torsions:
REMARK  status: ('A' for Active; 'I' for Inactive)
REMARK    1  A    between atoms: C_1  and  C_2
REMARK    2  A    between atoms: C_2  and  C_3
REMARK    3  A    between atoms: N_7  and  C_8
REMARK    4  A    between atoms: C_8  and  C_9
REMARK    5  A    between atoms: C_9  and  C_10
REMARK    6  A    between atoms: C_16  and  N_17
REMARK    7  A    between atoms: N_20  and  C_21
REMARK                            x       y       z     vdW  Elec       q    Type
REMARK                         _______ _______ _______ _____ _____    ______ ____
ROOT
ATOM      1  C   UNL     1       3.172   3.174  17.946  0.00  0.00    +0.000 C 
ATOM      2  O   UNL     1       2.736   2.025  17.863  0.00  0.00    +0.000 OA
ATOM      3  N   UNL     1       3.131   3.902  19.125  0.00  0.00    +0.000 N 
ATOM      4  C   UNL     1       2.625   3.281  20.342  0.00  0.00    +0.000 C 
ATOM      5  C   UNL     1       1.286   3.896  20.709  0.00  0.00    +0.000 C 
ATOM      6  C   UNL     1       1.404   5.414  20.873  0.00  0.00    +0.000 C 
ATOM      7  C   UNL     1       2.105   6.111  19.687  0.00  0.00    +0.000 C 
ATOM      8  C   UNL     1       3.384   5.339  19.249  0.00  0.00    +0.000 C 
ENDROOT
BRANCH   7   9
ATOM      9  N   UNL     1       2.363   7.558  19.830  0.00  0.00    +0.000 NA
ATOM     10  C   UNL     1       2.265   8.342  18.582  0.00  0.00    +0.000 C 
ATOM     11  C   UNL     1       0.857   8.870  18.205  0.00  0.00    +0.000 C 
ATOM     12  N   UNL     1       0.225   9.549  19.347  0.00  0.00    +0.000 N 
ATOM     13  C   UNL     1       0.246   8.796  20.614  0.00  0.00    +0.000 C 
ATOM     14  C   UNL     1       1.672   8.283  20.913  0.00  0.00    +0.000 C 
BRANCH  12  15
ATOM     15  C   UNL     1      -0.858  10.396  19.123  0.00  0.00    +0.000 A 
ATOM     16  C   UNL     1      -1.628  10.370  17.950  0.00  0.00    +0.000 A 
ATOM     17  C   UNL     1      -2.648  11.300  17.719  0.00  0.00    +0.000 A 
ATOM     18  C   UNL     1      -2.919  12.285  18.665  0.00  0.00    +0.000 A 
ATOM     19  C   UNL     1      -2.178  12.322  19.838  0.00  0.00    +0.000 A 
ATOM     20 CL   UNL     1      -2.483  13.548  21.008  0.00  0.00    +0.000 Cl
ATOM     21  C   UNL     1      -1.167  11.390  20.066  0.00  0.00    +0.000 A 
ENDBRANCH  12  15
ENDBRANCH   7   9
BRANCH   1  22
ATOM     22  C   UNL     1       3.818   3.847  16.757  0.00  0.00    +0.000 C 
BRANCH  22  23
ATOM     23  C   UNL     1       5.252   3.378  16.538  0.00  0.00    +0.000 C 
BRANCH  23  28
ATOM     24  C   UNL     1       6.819   5.097  15.495  0.00  0.00    +0.000 A 
ATOM     25  N   UNL     1       7.542   6.119  15.915  0.00  0.00    +0.000 NA
ATOM     26  C   UNL     1       7.382   6.169  17.272  0.00  0.00    +0.000 A 
ATOM     27  C   UNL     1       6.543   5.170  17.696  0.00  0.00    +0.000 A 
ATOM     28  N   UNL     1       6.178   4.498  16.557  0.00  0.00    +0.000 N 
BRANCH  24  30
ATOM     29  C   UNL     1       7.834   5.279  13.233  0.00  0.00    +0.000 C 
ATOM     30  C   UNL     1       6.725   4.661  14.072  0.00  0.00    +0.000 C 
ENDBRANCH  24  30
ENDBRANCH  23  28
ENDBRANCH  22  23
ENDBRANCH   1  22
TORSDOF 6
ENDMDL
MODEL 5
REMARK VINA RESULT:      -7.8      1.116      1.430
REMARK  Name = 
REMARK  7 active torsions:
REMARK  status: ('A' for Active; 'I' for Inactive)
REMARK    1  A    between atoms: C_1  and  C_2
REMARK    2  A    between atoms: C_2  and  C_3
REMARK    3  A    between atoms: N_7  and  C_8
REMARK    4  A    between atoms: C_8  and  C_9
REMARK    5  A    between atoms: C_9  and  C_10
REMARK    6  A    between atoms: C_16  and  N_17
REMARK    7  A    between atoms: N_20  and  C_21
REMARK                            x       y       z     vdW  Elec       q    Type
REMARK                         _______ _______ _______ _____ _____    ______ ____
ROOT
ATOM      1  C   UNL     1       3.764   2.718  18.648  0.00  0.00    +0.000 C 
ATOM      2  O   UNL     1       3.309   1.594  18.436  0.00  0.00    +0.000 OA
ATOM      3  N   UNL     1       3.283   3.536  19.659  0.00  0.00    +0.000 N 
ATOM      4  C   UNL     1       2.252   3.042  20.562  0.00  0.00    +0.000 C 
ATOM      5  C   UNL     1       0.944   3.761  20.283  0.00  0.00    +0.000 C 
ATOM      6  C   UNL     1       1.110   5.277  20.414  0.00  0.00    +0.000 C 
ATOM      7  C   UNL     1       2.310   5.838  19.620  0.00  0.00    +0.000 C 
ATOM      8  C   UNL     1       3.582   4.962  19.817  0.00  0.00    +0.000 C 
ENDROOT
BRANCH   7   9
ATOM      9  N   UNL     1       2.605   7.274  19.797  0.00  0.00    +0.000 NA
ATOM     10  C   UNL     1       2.631   8.070  18.553  0.00  0.00    +0.000 C 
ATOM     11  C   UNL     1       1.276   8.649  18.073  0.00  0.00    +0.000 C 
ATOM     12  N   UNL     1       0.581   9.342  19.169  0.00  0.00    +0.000 N 
ATOM     13  C   UNL     1       0.477   8.579  20.427  0.00  0.00    +0.000 C 
ATOM     14  C   UNL     1       1.858   8.015  20.831  0.00  0.00    +0.000 C 
BRANCH  12  15
ATOM     15  C   UNL     1      -0.453  10.228  18.871  0.00  0.00    +0.000 A 
ATOM     16  C   UNL     1      -1.308  10.071  17.770  0.00  0.00    +0.000 A 
ATOM     17  C   UNL     1      -2.274  11.031  17.446  0.00  0.00    +0.000 A 
ATOM     18  C   UNL     1      -2.401  12.179  18.222  0.00  0.00    +0.000 A 
ATOM     19  C   UNL     1      -1.572  12.349  19.323  0.00  0.00    +0.000 A 
ATOM     20 CL   UNL     1      -1.699  13.775  20.280  0.00  0.00    +0.000 Cl
ATOM     21  C   UNL     1      -0.617  11.387  19.645  0.00  0.00    +0.000 A 
ENDBRANCH  12  15
ENDBRANCH   7   9
BRANCH   1  22
ATOM     22  C   UNL     1       4.913   3.258  17.830  0.00  0.00    +0.000 C 
BRANCH  22  23
ATOM     23  C   UNL     1       4.439   4.140  16.680  0.00  0.00    +0.000 C 
BRANCH  23  28
ATOM     24  C   UNL     1       6.622   5.377  16.231  0.00  0.00    +0.000 A 
ATOM     25  N   UNL     1       7.459   5.516  15.220  0.00  0.00    +0.000 NA
ATOM     26  C   UNL     1       6.917   4.818  14.177  0.00  0.00    +0.000 A 
ATOM     27  C   UNL     1       5.733   4.234  14.550  0.00  0.00    +0.000 A 
ATOM     28  N   UNL     1       5.557   4.584  15.865  0.00  0.00    +0.000 N 
BRANCH  24  30
ATOM     29  C   UNL     1       7.471   7.368  17.455  0.00  0.00    +0.000 C 
ATOM     30  C   UNL     1       6.813   6.002  17.573  0.00  0.00    +0.000 C 
ENDBRANCH  24  30
ENDBRANCH  23  28
ENDBRANCH  22  23
ENDBRANCH   1  22
TORSDOF 6
ENDMDL
MODEL 6
REMARK VINA RESULT:      -7.7      2.850      5.248
REMARK  Name = 
REMARK  7 active torsions:
REMARK  status: ('A' for Active; 'I' for Inactive)
REMARK    1  A    between atoms: C_1  and  C_2
REMARK    2  A    between atoms: C_2  and  C_3
REMARK    3  A    between atoms: N_7  and  C_8
REMARK    4  A    between atoms: C_8  and  C_9
REMARK    5  A    between atoms: C_9  and  C_10
REMARK    6  A    between atoms: C_16  and  N_17
REMARK    7  A    between atoms: N_20  and  C_21
REMARK                            x       y       z     vdW  Elec       q    Type
REMARK                         _______ _______ _______ _____ _____    ______ ____
ROOT
ATOM      1  C   UNL     1       2.060   7.123  19.988  0.00  0.00    +0.000 C 
ATOM      2  O   UNL     1       2.193   6.248  20.845  0.00  0.00    +0.000 OA
ATOM      3  N   UNL     1       1.616   8.400  20.291  0.00  0.00    +0.000 N 
ATOM      4  C   UNL     1       1.359   8.767  21.678  0.00  0.00    +0.000 C 
ATOM      5  C   UNL     1      -0.135   8.928  21.893  0.00  0.00    +0.000 C 
ATOM      6  C   UNL     1      -0.722   9.965  20.932  0.00  0.00    +0.000 C 
ATOM      7  C   UNL     1      -0.328   9.732  19.457  0.00  0.00    +0.000 C 
ATOM      8  C   UNL     1       1.189   9.408  19.318  0.00  0.00    +0.000 C 
ENDROOT
BRANCH   7   9
ATOM      9  N   UNL     1      -0.756  10.762  18.488  0.00  0.00    +0.000 NA
ATOM     10  C   UNL     1      -1.661  10.287  17.422  0.00  0.00    +0.000 C 
ATOM     11  C   UNL     1      -3.177  10.296  17.745  0.00  0.00    +0.000 C 
ATOM     12  N   UNL     1      -3.590  11.597  18.295  0.00  0.00    +0.000 N 
ATOM     13  C   UNL     1      -2.755  12.105  19.399  0.00  0.00    +0.000 C 
ATOM     14  C   UNL     1      -1.260  12.044  19.015  0.00  0.00    +0.000 C 
BRANCH  12  15
ATOM     15  C   UNL     1      -4.942  11.934  18.308  0.00  0.00    +0.000 A 
ATOM     16  C   UNL     1      -5.653  12.314  17.159  0.00  0.00    +0.000 A 
ATOM     17  C   UNL     1      -6.985  12.739  17.225  0.00  0.00    +0.000 A 
ATOM     18  C   UNL     1      -7.637  12.795  18.453  0.00  0.00    +0.000 A 
ATOM     19  C   UNL     1      -6.957  12.413  19.601  0.00  0.00    +0.000 A 
ATOM     20 CL   UNL     1      -7.740  12.499  21.132  0.00  0.00    +0.000 Cl
ATOM     21  C   UNL     1      -5.632  11.984  19.530  0.00  0.00    +0.000 A 
ENDBRANCH  12  15
ENDBRANCH   7   9
BRANCH   1  22
ATOM     22  C   UNL     1       2.416   6.855  18.544  0.00  0.00    +0.000 C 
BRANCH  22  23
ATOM     23  C   UNL     1       2.109   5.420  18.130  0.00  0.00    +0.000 C 
BRANCH  23  28
ATOM     24  C   UNL     1       3.021   3.247  19.102  0.00  0.00    +0.000 A 
ATOM     25  N   UNL     1       4.209   2.722  19.334  0.00  0.00    +0.000 NA
ATOM     26  C   UNL     1       5.125   3.669  18.969  0.00  0.00    +0.000 A 
ATOM     27  C   UNL     1       4.494   4.792  18.496  0.00  0.00    +0.000 A 
ATOM     28  N   UNL     1       3.154   4.512  18.573  0.00  0.00    +0.000 N 
BRANCH  24  30
ATOM     29  C   UNL     1       1.164   2.979  20.733  0.00  0.00    +0.000 C 
ATOM     30  C   UNL     1       1.727   2.560  19.383  0.00  0.00    +0.000 C 
ENDBRANCH  24  30
ENDBRANCH  23  28
ENDBRANCH  22  23
ENDBRANCH   1  22
TORSDOF 6
ENDMDL
MODEL 7
REMARK VINA RESULT:      -7.6      1.074      1.754
REMARK  Name = 
REMARK  7 active torsions:
REMARK  status: ('A' for Active; 'I' for Inactive)
REMARK    1  A    between atoms: C_1  and  C_2
REMARK    2  A    between atoms: C_2  and  C_3
REMARK    3  A    between atoms: N_7  and  C_8
REMARK    4  A    between atoms: C_8  and  C_9
REMARK    5  A    between atoms: C_9  and  C_10
REMARK    6  A    between atoms: C_16  and  N_17
REMARK    7  A    between atoms: N_20  and  C_21
REMARK                            x       y       z     vdW  Elec       q    Type
REMARK                         _______ _______ _______ _____ _____    ______ ____
ROOT
ATOM      1  C   UNL     1       3.650   2.841  19.126  0.00  0.00    +0.000 C 
ATOM      2  O   UNL     1       3.205   1.702  18.979  0.00  0.00    +0.000 OA
ATOM      3  N   UNL     1       3.111   3.738  20.035  0.00  0.00    +0.000 N 
ATOM      4  C   UNL     1       2.024   3.318  20.911  0.00  0.00    +0.000 C 
ATOM      5  C   UNL     1       0.738   4.010  20.494  0.00  0.00    +0.000 C 
ATOM      6  C   UNL     1       0.901   5.532  20.510  0.00  0.00    +0.000 C 
ATOM      7  C   UNL     1       2.150   6.028  19.748  0.00  0.00    +0.000 C 
ATOM      8  C   UNL     1       3.404   5.172  20.093  0.00  0.00    +0.000 C 
ENDROOT
BRANCH   7   9
ATOM      9  N   UNL     1       2.439   7.474  19.824  0.00  0.00    +0.000 NA
ATOM     10  C   UNL     1       2.439   8.186  18.530  0.00  0.00    +0.000 C 
ATOM     11  C   UNL     1       1.073   8.724  18.035  0.00  0.00    +0.000 C 
ATOM     12  N   UNL     1       0.391   9.485  19.094  0.00  0.00    +0.000 N 
ATOM     13  C   UNL     1       0.312   8.807  20.401  0.00  0.00    +0.000 C 
ATOM     14  C   UNL     1       1.703   8.278  20.818  0.00  0.00    +0.000 C 
BRANCH  12  15
ATOM     15  C   UNL     1      -0.653  10.343  18.754  0.00  0.00    +0.000 A 
ATOM     16  C   UNL     1      -1.240  11.239  19.660  0.00  0.00    +0.000 A 
ATOM     17  C   UNL     1      -2.350  12.017  19.311  0.00  0.00    +0.000 A 
ATOM     18  C   UNL     1      -2.901  11.911  18.038  0.00  0.00    +0.000 A 
ATOM     19  C   UNL     1      -2.329  11.039  17.122  0.00  0.00    +0.000 A 
ATOM     20 CL   UNL     1      -3.012  10.876  15.549  0.00  0.00    +0.000 Cl
ATOM     21  C   UNL     1      -1.220  10.270  17.472  0.00  0.00    +0.000 A 
ENDBRANCH  12  15
ENDBRANCH   7   9
BRANCH   1  22
ATOM     22  C   UNL     1       4.849   3.314  18.339  0.00  0.00    +0.000 C 
BRANCH  22  23
ATOM     23  C   UNL     1       4.568   3.376  16.841  0.00  0.00    +0.000 C 
BRANCH  23  28
ATOM     24  C   UNL     1       5.681   4.955  15.178  0.00  0.00    +0.000 A 
ATOM     25  N   UNL     1       5.738   6.259  14.980  0.00  0.00    +0.000 NA
ATOM     26  C   UNL     1       5.026   6.832  15.997  0.00  0.00    +0.000 A 
ATOM     27  C   UNL     1       4.514   5.869  16.829  0.00  0.00    +0.000 A 
ATOM     28  N   UNL     1       4.925   4.675  16.295  0.00  0.00    +0.000 N 
BRANCH  24  30
ATOM     29  C   UNL     1       5.621   3.788  12.983  0.00  0.00    +0.000 C 
ATOM     30  C   UNL     1       6.349   3.942  14.310  0.00  0.00    +0.000 C 
ENDBRANCH  24  30
ENDBRANCH  23  28
ENDBRANCH  22  23
ENDBRANCH   1  22
TORSDOF 6
ENDMDL
MODEL 8
REMARK VINA RESULT:      -7.5      0.976      1.915
REMARK  Name = 
REMARK  7 active torsions:
REMARK  status: ('A' for Active; 'I' for Inactive)
REMARK    1  A    between atoms: C_1  and  C_2
REMARK    2  A    between atoms: C_2  and  C_3
REMARK    3  A    between atoms: N_7  and  C_8
REMARK    4  A    between atoms: C_8  and  C_9
REMARK    5  A    between atoms: C_9  and  C_10
REMARK    6  A    between atoms: C_16  and  N_17
REMARK    7  A    between atoms: N_20  and  C_21
REMARK                            x       y       z     vdW  Elec       q    Type
REMARK                         _______ _______ _______ _____ _____    ______ ____
ROOT
ATOM      1  C   UNL     1       3.995   3.348  18.707  0.00  0.00    +0.000 C 
ATOM      2  O   UNL     1       3.668   2.173  18.536  0.00  0.00    +0.000 OA
ATOM      3  N   UNL     1       3.466   4.127  19.724  0.00  0.00    +0.000 N 
ATOM      4  C   UNL     1       2.541   3.536  20.683  0.00  0.00    +0.000 C 
ATOM      5  C   UNL     1       1.146   4.090  20.451  0.00  0.00    +0.000 C 
ATOM      6  C   UNL     1       1.137   5.618  20.547  0.00  0.00    +0.000 C 
ATOM      7  C   UNL     1       2.226   6.297  19.689  0.00  0.00    +0.000 C 
ATOM      8  C   UNL     1       3.600   5.581  19.842  0.00  0.00    +0.000 C 
ENDROOT
BRANCH   7   9
ATOM      9  N   UNL     1       2.357   7.761  19.826  0.00  0.00    +0.000 NA
ATOM     10  C   UNL     1       2.369   8.515  18.556  0.00  0.00    +0.000 C 
ATOM     11  C   UNL     1       0.990   8.928  17.983  0.00  0.00    +0.000 C 
ATOM     12  N   UNL     1       0.163   9.577  19.013  0.00  0.00    +0.000 N 
ATOM     13  C   UNL     1       0.069   8.849  20.292  0.00  0.00    +0.000 C 
ATOM     14  C   UNL     1       1.477   8.451  20.790  0.00  0.00    +0.000 C 
BRANCH  12  15
ATOM     15  C   UNL     1      -0.940  10.335  18.626  0.00  0.00    +0.000 A 
ATOM     16  C   UNL     1      -1.542  11.296  19.452  0.00  0.00    +0.000 A 
ATOM     17  C   UNL     1      -2.707  11.971  19.067  0.00  0.00    +0.000 A 
ATOM     18  C   UNL     1      -3.298  11.692  17.838  0.00  0.00    +0.000 A 
ATOM     19  C   UNL     1      -2.712  10.754  17.000  0.00  0.00    +0.000 A 
ATOM     20 CL   UNL     1      -3.443  10.379  15.487  0.00  0.00    +0.000 Cl
ATOM     21  C   UNL     1      -1.549  10.089  17.385  0.00  0.00    +0.000 A 
ENDBRANCH  12  15
ENDBRANCH   7   9
BRANCH   1  22
ATOM     22  C   UNL     1       5.036   4.000  17.827  0.00  0.00    +0.000 C 
BRANCH  22  23
ATOM     23  C   UNL     1       4.868   3.624  16.359  0.00  0.00    +0.000 C 
BRANCH  23  28
ATOM     24  C   UNL     1       6.015   4.245  14.169  0.00  0.00    +0.000 A 
ATOM     25  N   UNL     1       7.079   4.934  13.802  0.00  0.00    +0.000 NA
ATOM     26  C   UNL     1       7.682   5.350  14.956  0.00  0.00    +0.000 A 
ATOM     27  C   UNL     1       6.977   4.919  16.051  0.00  0.00    +0.000 A 
ATOM     28  N   UNL     1       5.909   4.225  15.542  0.00  0.00    +0.000 N 
BRANCH  24  30
ATOM     29  C   UNL     1       5.806   3.067  11.989  0.00  0.00    +0.000 C 
ATOM     30  C   UNL     1       5.074   3.581  13.220  0.00  0.00    +0.000 C 
ENDBRANCH  24  30
ENDBRANCH  23  28
ENDBRANCH  22  23
ENDBRANCH   1  22
TORSDOF 6
ENDMDL
MODEL 9
REMARK VINA RESULT:      -7.5      2.726      4.866
REMARK  Name = 
REMARK  7 active torsions:
REMARK  status: ('A' for Active; 'I' for Inactive)
REMARK    1  A    between atoms: C_1  and  C_2
REMARK    2  A    between atoms: C_2  and  C_3
REMARK    3  A    between atoms: N_7  and  C_8
REMARK    4  A    between atoms: C_8  and  C_9
REMARK    5  A    between atoms: C_9  and  C_10
REMARK    6  A    between atoms: C_16  and  N_17
REMARK    7  A    between atoms: N_20  and  C_21
REMARK                            x       y       z     vdW  Elec       q    Type
REMARK                         _______ _______ _______ _____ _____    ______ ____
ROOT
ATOM      1  C   UNL     1       2.049   7.092  19.823  0.00  0.00    +0.000 C 
ATOM      2  O   UNL     1       2.201   6.219  20.678  0.00  0.00    +0.000 OA
ATOM      3  N   UNL     1       1.646   8.380  20.139  0.00  0.00    +0.000 N 
ATOM      4  C   UNL     1       1.458   8.759  21.534  0.00  0.00    +0.000 C 
ATOM      5  C   UNL     1      -0.022   8.953  21.814  0.00  0.00    +0.000 C 
ATOM      6  C   UNL     1      -0.628   9.997  20.873  0.00  0.00    +0.000 C 
ATOM      7  C   UNL     1      -0.304   9.750  19.384  0.00  0.00    +0.000 C 
ATOM      8  C   UNL     1       1.198   9.393  19.180  0.00  0.00    +0.000 C 
ENDROOT
BRANCH   7   9
ATOM      9  N   UNL     1      -0.753  10.784  18.430  0.00  0.00    +0.000 NA
ATOM     10  C   UNL     1      -1.684  10.316  17.384  0.00  0.00    +0.000 C 
ATOM     11  C   UNL     1      -3.192  10.328  17.743  0.00  0.00    +0.000 C 
ATOM     12  N   UNL     1      -3.589  11.628  18.308  0.00  0.00    +0.000 N 
ATOM     13  C   UNL     1      -2.726  12.129  19.393  0.00  0.00    +0.000 C 
ATOM     14  C   UNL     1      -1.240  12.066  18.973  0.00  0.00    +0.000 C 
BRANCH  12  15
ATOM     15  C   UNL     1      -4.939  11.968  18.354  0.00  0.00    +0.000 A 
ATOM     16  C   UNL     1      -5.676  12.353  17.224  0.00  0.00    +0.000 A 
ATOM     17  C   UNL     1      -7.005  12.781  17.323  0.00  0.00    +0.000 A 
ATOM     18  C   UNL     1      -7.627  12.836  18.567  0.00  0.00    +0.000 A 
ATOM     19  C   UNL     1      -6.920  12.449  19.697  0.00  0.00    +0.000 A 
ATOM     20 CL   UNL     1      -7.666  12.534  21.247  0.00  0.00    +0.000 Cl
ATOM     21  C   UNL     1      -5.599  12.017  19.593  0.00  0.00    +0.000 A 
ENDBRANCH  12  15
ENDBRANCH   7   9
BRANCH   1  22
ATOM     22  C   UNL     1       2.336   6.812  18.366  0.00  0.00    +0.000 C 
BRANCH  22  23
ATOM     23  C   UNL     1       3.677   6.113  18.167  0.00  0.00    +0.000 C 
BRANCH  23  28
ATOM     24  C   UNL     1       4.358   3.863  17.180  0.00  0.00    +0.000 A 
ATOM     25  N   UNL     1       3.848   2.648  17.115  0.00  0.00    +0.000 NA
ATOM     26  C   UNL     1       2.624   2.713  17.720  0.00  0.00    +0.000 A 
ATOM     27  C   UNL     1       2.377   3.984  18.173  0.00  0.00    +0.000 A 
ATOM     28  N   UNL     1       3.491   4.710  17.836  0.00  0.00    +0.000 N 
BRANCH  24  30
ATOM     29  C   UNL     1       5.629   4.332  15.095  0.00  0.00    +0.000 C 
ATOM     30  C   UNL     1       5.682   4.252  16.614  0.00  0.00    +0.000 C 
ENDBRANCH  24  30
ENDBRANCH  23  28
ENDBRANCH  22  23
ENDBRANCH   1  22
TORSDOF 6
ENDMDL
