MODEL 1
REMARK VINA RESULT:      -7.5      0.000      0.000
REMARK  Name = 
REMARK  6 active torsions:
REMARK  status: ('A' for Active; 'I' for Inactive)
REMARK    1  A    between atoms: C_1  and  C_2
REMARK    2  A    between atoms: C_2  and  N_3
REMARK    3  A    between atoms: C_5  and  C_6
REMARK    4  A    between atoms: N_7  and  N_8
REMARK    5  A    between atoms: C_9  and  C_11
REMARK    6  A    between atoms: C_20  and  C_21
REMARK                            x       y       z     vdW  Elec       q    Type
REMARK                         _______ _______ _______ _____ _____    ______ ____
ROOT
ATOM      1  N   UNL     1       3.626   5.429  19.459  0.00  0.00    +0.000 N 
ATOM      2  C   UNL     1       2.443   5.950  19.978  0.00  0.00    +0.000 C 
ATOM      3  O   UNL     1       1.649   5.342  20.684  0.00  0.00    +0.000 OA
ATOM      4  H   UNL     1       4.183   5.991  18.830  0.00  0.00    +0.000 HD
ENDROOT
BRANCH   2   5
ATOM      5  C   UNL     1       2.179   7.310  19.484  0.00  0.00    +0.000 A 
ATOM      6  C   UNL     1       2.502   7.730  18.206  0.00  0.00    +0.000 A 
ATOM      7  S   UNL     1       1.903   9.278  17.842  0.00  0.00    +0.000 S 
ATOM      8  C   UNL     1       1.217   9.456  19.407  0.00  0.00    +0.000 A 
ATOM      9  C   UNL     1       0.437  10.538  19.860  0.00  0.00    +0.000 A 
ATOM     10  C   UNL     1      -0.021  10.538  21.178  0.00  0.00    +0.000 A 
ATOM     11  C   UNL     1       0.321   9.507  22.039  0.00  0.00    +0.000 A 
ATOM     12  C   UNL     1       1.082   8.427  21.579  0.00  0.00    +0.000 A 
ATOM     13  C   UNL     1       1.520   8.366  20.231  0.00  0.00    +0.000 A 
ENDBRANCH   2   5
BRANCH   1  15
ATOM     14  C   UNL     1       5.064   3.679  19.069  0.00  0.00    +0.000 C 
ATOM     15  N   UNL     1       4.026   4.150  19.700  0.00  0.00    +0.000 NA
BRANCH  14  18
ATOM     16  N   UNL     1       6.542   4.878  15.980  0.00  0.00    +0.000 N 
ATOM     17  C   UNL     1       5.632   4.082  16.609  0.00  0.00    +0.000 A 
ATOM     18  C   UNL     1       5.789   4.293  17.968  0.00  0.00    +0.000 A 
ATOM     19  C   UNL     1       6.900   5.188  18.041  0.00  0.00    +0.000 A 
ATOM     20  C   UNL     1       7.585   5.747  19.235  0.00  0.00    +0.000 C 
ATOM     21  N   UNL     1       7.334   5.548  16.827  0.00  0.00    +0.000 NA
BRANCH  16  23
ATOM     22  C   UNL     1       6.074   3.925  13.768  0.00  0.00    +0.000 C 
ATOM     23  C   UNL     1       6.682   5.077  14.549  0.00  0.00    +0.000 C 
ENDBRANCH  16  23
ENDBRANCH  14  18
ENDBRANCH   1  15
TORSDOF 4
ENDMDL
MODEL 2
REMARK VINA RESULT:      -7.4      1.267      2.323
REMARK  Name = 
REMARK  6 active torsions:
REMARK  status: ('A' for Active; 'I' for Inactive)
REMARK    1  A    between atoms: C_1  and  C_2
REMARK    2  A    between atoms: C_2  and  N_3
REMARK    3  A    between atoms: C_5  and  C_6
REMARK    4  A    between atoms: N_7  and  N_8
REMARK    5  A    between atoms: C_9  and  C_11
REMARK    6  A    between atoms: C_20  and  C_21
REMARK                            x       y       z     vdW  Elec       q    Type
REMARK                         _______ _______ _______ _____ _____    ______ ____
ROOT
ATOM      1  N   UNL     1       2.829   5.723  17.846  0.00  0.00    +0.000 N 
ATOM      2  C   UNL     1       2.591   6.282  19.099  0.00  0.00    +0.000 C 
ATOM      3  O   UNL     1       2.617   5.678  20.162  0.00  0.00    +0.000 OA
ATOM      4  H   UNL     1       2.718   6.292  17.017  0.00  0.00    +0.000 HD
ENDROOT
BRANCH   2   5
ATOM      5  C   UNL     1       2.183   7.692  19.002  0.00  0.00    +0.000 A 
ATOM      6  C   UNL     1       2.438   8.483  17.895  0.00  0.00    +0.000 A 
ATOM      7  S   UNL     1       1.681  10.002  17.972  0.00  0.00    +0.000 S 
ATOM      8  C   UNL     1       1.011   9.667  19.517  0.00  0.00    +0.000 A 
ATOM      9  C   UNL     1       0.136  10.495  20.247  0.00  0.00    +0.000 A 
ATOM     10  C   UNL     1      -0.295  10.082  21.508  0.00  0.00    +0.000 A 
ATOM     11  C   UNL     1       0.165   8.891  22.051  0.00  0.00    +0.000 A 
ATOM     12  C   UNL     1       1.022   8.065  21.315  0.00  0.00    +0.000 A 
ATOM     13  C   UNL     1       1.437   8.427  20.007  0.00  0.00    +0.000 A 
ENDBRANCH   2   5
BRANCH   1  15
ATOM     14  C   UNL     1       4.370   4.042  17.558  0.00  0.00    +0.000 C 
ATOM     15  N   UNL     1       3.125   4.404  17.681  0.00  0.00    +0.000 NA
BRANCH  14  18
ATOM     16  N   UNL     1       7.171   6.344  17.695  0.00  0.00    +0.000 N 
ATOM     17  C   UNL     1       6.115   5.749  18.318  0.00  0.00    +0.000 A 
ATOM     18  C   UNL     1       5.533   4.900  17.393  0.00  0.00    +0.000 A 
ATOM     19  C   UNL     1       6.287   5.135  16.203  0.00  0.00    +0.000 A 
ATOM     20  C   UNL     1       6.111   4.558  14.845  0.00  0.00    +0.000 C 
ATOM     21  N   UNL     1       7.288   5.999  16.406  0.00  0.00    +0.000 NA
BRANCH  16  23
ATOM     22  C   UNL     1       7.977   8.659  17.802  0.00  0.00    +0.000 C 
ATOM     23  C   UNL     1       8.147   7.233  18.297  0.00  0.00    +0.000 C 
ENDBRANCH  16  23
ENDBRANCH  14  18
ENDBRANCH   1  15
TORSDOF 4
ENDMDL
MODEL 3
REMARK VINA RESULT:      -7.1      2.612      4.105
REMARK  Name = 
REMARK  6 active torsions:
REMARK  status: ('A' for Active; 'I' for Inactive)
REMARK    1  A    between atoms: C_1  and  C_2
REMARK    2  A    between atoms: C_2  and  N_3
REMARK    3  A    between atoms: C_5  and  C_6
REMARK    4  A    between atoms: N_7  and  N_8
REMARK    5  A    between atoms: C_9  and  C_11
REMARK    6  A    between atoms: C_20  and  C_21
REMARK                            x       y       z     vdW  Elec       q    Type
REMARK                         _______ _______ _______ _____ _____    ______ ____
ROOT
ATOM      1  N   UNL     1       4.572   3.381  17.429  0.00  0.00    +0.000 N 
ATOM      2  C   UNL     1       3.182   3.430  17.354  0.00  0.00    +0.000 C 
ATOM      3  O   UNL     1       2.517   3.219  16.349  0.00  0.00    +0.000 OA
ATOM      4  H   UNL     1       5.034   3.637  18.291  0.00  0.00    +0.000 HD
ENDROOT
BRANCH   2   5
ATOM      5  C   UNL     1       2.581   3.884  18.617  0.00  0.00    +0.000 A 
ATOM      6  C   UNL     1       2.262   3.029  19.658  0.00  0.00    +0.000 A 
ATOM      7  S   UNL     1       1.770   3.845  21.065  0.00  0.00    +0.000 S 
ATOM      8  C   UNL     1       1.933   5.381  20.313  0.00  0.00    +0.000 A 
ATOM      9  C   UNL     1       1.754   6.636  20.928  0.00  0.00    +0.000 A 
ATOM     10  C   UNL     1       1.897   7.793  20.162  0.00  0.00    +0.000 A 
ATOM     11  C   UNL     1       2.173   7.706  18.805  0.00  0.00    +0.000 A 
ATOM     12  C   UNL     1       2.366   6.458  18.203  0.00  0.00    +0.000 A 
ATOM     13  C   UNL     1       2.282   5.262  18.963  0.00  0.00    +0.000 A 
ENDBRANCH   2   5
BRANCH   1  15
ATOM     14  C   UNL     1       6.332   3.875  16.034  0.00  0.00    +0.000 C 
ATOM     15  N   UNL     1       5.349   3.081  16.351  0.00  0.00    +0.000 NA
BRANCH  14  18
ATOM     16  N   UNL     1       7.461   6.869  17.746  0.00  0.00    +0.000 N 
ATOM     17  C   UNL     1       7.561   5.523  17.554  0.00  0.00    +0.000 A 
ATOM     18  C   UNL     1       6.628   5.187  16.588  0.00  0.00    +0.000 A 
ATOM     19  C   UNL     1       5.955   6.420  16.330  0.00  0.00    +0.000 A 
ATOM     20  C   UNL     1       4.812   6.700  15.424  0.00  0.00    +0.000 C 
ATOM     21  N   UNL     1       6.483   7.434  17.026  0.00  0.00    +0.000 NA
BRANCH  16  23
ATOM     22  C   UNL     1       8.328   9.135  18.109  0.00  0.00    +0.000 C 
ATOM     23  C   UNL     1       8.309   7.693  18.586  0.00  0.00    +0.000 C 
ENDBRANCH  16  23
ENDBRANCH  14  18
ENDBRANCH   1  15
TORSDOF 4
ENDMDL
MODEL 4
REMARK VINA RESULT:      -7.1      0.952      1.638
REMARK  Name = 
REMARK  6 active torsions:
REMARK  status: ('A' for Active; 'I' for Inactive)
REMARK    1  A    between atoms: C_1  and  C_2
REMARK    2  A    between atoms: C_2  and  N_3
REMARK    3  A    between atoms: C_5  and  C_6
REMARK    4  A    between atoms: N_7  and  N_8
REMARK    5  A    between atoms: C_9  and  C_11
REMARK    6  A    between atoms: C_20  and  C_21
REMARK                            x       y       z     vdW  Elec       q    Type
REMARK                         _______ _______ _______ _____ _____    ______ ____
ROOT
ATOM      1  N   UNL     1       3.771   5.614  19.946  0.00  0.00    +0.000 N 
ATOM      2  C   UNL     1       2.421   5.943  20.040  0.00  0.00    +0.000 C 
ATOM      3  O   UNL     1       1.532   5.191  20.417  0.00  0.00    +0.000 OA
ATOM      4  H   UNL     1       4.421   6.284  19.560  0.00  0.00    +0.000 HD
ENDROOT
BRANCH   2   5
ATOM      5  C   UNL     1       2.147   7.290  19.520  0.00  0.00    +0.000 A 
ATOM      6  C   UNL     1       2.465   7.687  18.232  0.00  0.00    +0.000 A 
ATOM      7  S   UNL     1       1.856   9.223  17.837  0.00  0.00    +0.000 S 
ATOM      8  C   UNL     1       1.171   9.429  19.399  0.00  0.00    +0.000 A 
ATOM      9  C   UNL     1       0.384  10.515  19.831  0.00  0.00    +0.000 A 
ATOM     10  C   UNL     1      -0.071  10.539  21.150  0.00  0.00    +0.000 A 
ATOM     11  C   UNL     1       0.279   9.528  22.032  0.00  0.00    +0.000 A 
ATOM     12  C   UNL     1       1.047   8.444  21.593  0.00  0.00    +0.000 A 
ATOM     13  C   UNL     1       1.483   8.358  20.245  0.00  0.00    +0.000 A 
ENDBRANCH   2   5
BRANCH   1  15
ATOM     14  C   UNL     1       4.894   3.687  19.386  0.00  0.00    +0.000 C 
ATOM     15  N   UNL     1       4.245   4.381  20.278  0.00  0.00    +0.000 NA
BRANCH  14  18
ATOM     16  N   UNL     1       5.817   4.565  15.989  0.00  0.00    +0.000 N 
ATOM     17  C   UNL     1       6.170   4.429  17.299  0.00  0.00    +0.000 A 
ATOM     18  C   UNL     1       5.045   3.981  17.970  0.00  0.00    +0.000 A 
ATOM     19  C   UNL     1       4.036   3.964  16.959  0.00  0.00    +0.000 A 
ATOM     20  C   UNL     1       2.595   3.622  17.069  0.00  0.00    +0.000 C 
ATOM     21  N   UNL     1       4.524   4.304  15.759  0.00  0.00    +0.000 NA
BRANCH  16  23
ATOM     22  C   UNL     1       6.424   4.033  13.673  0.00  0.00    +0.000 C 
ATOM     23  C   UNL     1       6.693   4.908  14.884  0.00  0.00    +0.000 C 
ENDBRANCH  16  23
ENDBRANCH  14  18
ENDBRANCH   1  15
TORSDOF 4
ENDMDL
MODEL 5
REMARK VINA RESULT:      -7.0      2.725      6.406
REMARK  Name = 
REMARK  6 active torsions:
REMARK  status: ('A' for Active; 'I' for Inactive)
REMARK    1  A    between atoms: C_1  and  C_2
REMARK    2  A    between atoms: C_2  and  N_3
REMARK    3  A    between atoms: C_5  and  C_6
REMARK    4  A    between atoms: N_7  and  N_8
REMARK    5  A    between atoms: C_9  and  C_11
REMARK    6  A    between atoms: C_20  and  C_21
REMARK                            x       y       z     vdW  Elec       q    Type
REMARK                         _______ _______ _______ _____ _____    ______ ____
ROOT
ATOM      1  N   UNL     1       2.835   3.004  17.109  0.00  0.00    +0.000 N 
ATOM      2  C   UNL     1       4.116   2.958  17.653  0.00  0.00    +0.000 C 
ATOM      3  O   UNL     1       4.444   2.318  18.644  0.00  0.00    +0.000 OA
ATOM      4  H   UNL     1       2.648   3.615  16.326  0.00  0.00    +0.000 HD
ENDROOT
BRANCH   2   5
ATOM      5  C   UNL     1       5.039   3.872  16.963  0.00  0.00    +0.000 A 
ATOM      6  C   UNL     1       5.027   4.072  15.593  0.00  0.00    +0.000 A 
ATOM      7  S   UNL     1       6.060   5.326  15.094  0.00  0.00    +0.000 S 
ATOM      8  C   UNL     1       6.590   5.622  16.701  0.00  0.00    +0.000 A 
ATOM      9  C   UNL     1       7.465   6.645  17.118  0.00  0.00    +0.000 A 
ATOM     10  C   UNL     1       7.817   6.727  18.465  0.00  0.00    +0.000 A 
ATOM     11  C   UNL     1       7.344   5.791  19.373  0.00  0.00    +0.000 A 
ATOM     12  C   UNL     1       6.462   4.788  18.956  0.00  0.00    +0.000 A 
ATOM     13  C   UNL     1       6.039   4.705  17.604  0.00  0.00    +0.000 A 
ENDBRANCH   2   5
BRANCH   1  15
ATOM     14  C   UNL     1       1.132   2.832  18.643  0.00  0.00    +0.000 C 
ATOM     15  N   UNL     1       1.790   2.314  17.646  0.00  0.00    +0.000 NA
BRANCH  14  18
ATOM     16  N   UNL     1       1.940   6.074  20.059  0.00  0.00    +0.000 N 
ATOM     17  C   UNL     1       1.598   5.325  18.973  0.00  0.00    +0.000 A 
ATOM     18  C   UNL     1       1.474   4.018  19.413  0.00  0.00    +0.000 A 
ATOM     19  C   UNL     1       1.854   4.091  20.788  0.00  0.00    +0.000 A 
ATOM     20  C   UNL     1       1.974   3.004  21.793  0.00  0.00    +0.000 C 
ATOM     21  N   UNL     1       2.116   5.347  21.170  0.00  0.00    +0.000 NA
BRANCH  16  23
ATOM     22  C   UNL     1       1.143   8.125  21.144  0.00  0.00    +0.000 C 
ATOM     23  C   UNL     1       2.076   7.518  20.111  0.00  0.00    +0.000 C 
ENDBRANCH  16  23
ENDBRANCH  14  18
ENDBRANCH   1  15
TORSDOF 4
ENDMDL
MODEL 6
REMARK VINA RESULT:      -6.9      3.377      7.880
REMARK  Name = 
REMARK  6 active torsions:
REMARK  status: ('A' for Active; 'I' for Inactive)
REMARK    1  A    between atoms: C_1  and  C_2
REMARK    2  A    between atoms: C_2  and  N_3
REMARK    3  A    between atoms: C_5  and  C_6
REMARK    4  A    between atoms: N_7  and  N_8
REMARK    5  A    between atoms: C_9  and  C_11
REMARK    6  A    between atoms: C_20  and  C_21
REMARK                            x       y       z     vdW  Elec       q    Type
REMARK                         _______ _______ _______ _____ _____    ______ ____
ROOT
ATOM      1  N   UNL     1       2.158   8.047  18.212  0.00  0.00    +0.000 N 
ATOM      2  C   UNL     1       3.145   7.066  18.238  0.00  0.00    +0.000 C 
ATOM      3  O   UNL     1       4.208   7.112  17.633  0.00  0.00    +0.000 OA
ATOM      4  H   UNL     1       1.283   7.886  18.694  0.00  0.00    +0.000 HD
ENDROOT
BRANCH   2   5
ATOM      5  C   UNL     1       2.722   5.881  18.999  0.00  0.00    +0.000 A 
ATOM      6  C   UNL     1       1.922   5.948  20.127  0.00  0.00    +0.000 A 
ATOM      7  S   UNL     1       1.425   4.421  20.684  0.00  0.00    +0.000 S 
ATOM      8  C   UNL     1       2.300   3.609  19.448  0.00  0.00    +0.000 A 
ATOM      9  C   UNL     1       2.310   2.222  19.204  0.00  0.00    +0.000 A 
ATOM     10  C   UNL     1       3.102   1.721  18.171  0.00  0.00    +0.000 A 
ATOM     11  C   UNL     1       3.899   2.574  17.422  0.00  0.00    +0.000 A 
ATOM     12  C   UNL     1       3.872   3.953  17.657  0.00  0.00    +0.000 A 
ATOM     13  C   UNL     1       3.038   4.504  18.664  0.00  0.00    +0.000 A 
ENDBRANCH   2   5
BRANCH   1  15
ATOM     14  C   UNL     1       1.689  10.275  17.894  0.00  0.00    +0.000 C 
ATOM     15  N   UNL     1       2.288   9.192  17.487  0.00  0.00    +0.000 NA
BRANCH  14  18
ATOM     16  N   UNL     1      -0.272  10.588  20.931  0.00  0.00    +0.000 N 
ATOM     17  C   UNL     1       0.949  10.493  20.332  0.00  0.00    +0.000 A 
ATOM     18  C   UNL     1       0.718  10.402  18.969  0.00  0.00    +0.000 A 
ATOM     19  C   UNL     1      -0.706  10.367  18.873  0.00  0.00    +0.000 A 
ATOM     20  C   UNL     1      -1.568  10.223  17.671  0.00  0.00    +0.000 C 
ATOM     21  N   UNL     1      -1.293  10.499  20.069  0.00  0.00    +0.000 NA
BRANCH  16  23
ATOM     22  C   UNL     1      -0.129   9.606  23.175  0.00  0.00    +0.000 C 
ATOM     23  C   UNL     1      -0.533  10.809  22.341  0.00  0.00    +0.000 C 
ENDBRANCH  16  23
ENDBRANCH  14  18
ENDBRANCH   1  15
TORSDOF 4
ENDMDL
MODEL 7
REMARK VINA RESULT:      -6.7      1.333      2.267
REMARK  Name = 
REMARK  6 active torsions:
REMARK  status: ('A' for Active; 'I' for Inactive)
REMARK    1  A    between atoms: C_1  and  C_2
REMARK    2  A    between atoms: C_2  and  N_3
REMARK    3  A    between atoms: C_5  and  C_6
REMARK    4  A    between atoms: N_7  and  N_8
REMARK    5  A    between atoms: C_9  and  C_11
REMARK    6  A    between atoms: C_20  and  C_21
REMARK                            x       y       z     vdW  Elec       q    Type
REMARK                         _______ _______ _______ _____ _____    ______ ____
ROOT
ATOM      1  N   UNL     1       2.911   5.597  19.916  0.00  0.00    +0.000 N 
ATOM      2  C   UNL     1       2.265   6.086  18.784  0.00  0.00    +0.000 C 
ATOM      3  O   UNL     1       1.952   5.424  17.803  0.00  0.00    +0.000 OA
ATOM      4  H   UNL     1       3.188   6.237  20.648  0.00  0.00    +0.000 HD
ENDROOT
BRANCH   2   5
ATOM      5  C   UNL     1       2.091   7.545  18.839  0.00  0.00    +0.000 A 
ATOM      6  C   UNL     1       2.444   8.393  17.802  0.00  0.00    +0.000 A 
ATOM      7  S   UNL     1       1.948   9.998  18.055  0.00  0.00    +0.000 S 
ATOM      8  C   UNL     1       1.271   9.620  19.588  0.00  0.00    +0.000 A 
ATOM      9  C   UNL     1       0.562  10.501  20.429  0.00  0.00    +0.000 A 
ATOM     10  C   UNL     1       0.101  10.037  21.662  0.00  0.00    +0.000 A 
ATOM     11  C   UNL     1       0.374   8.739  22.069  0.00  0.00    +0.000 A 
ATOM     12  C   UNL     1       1.064   7.865  21.223  0.00  0.00    +0.000 A 
ATOM     13  C   UNL     1       1.501   8.285  19.940  0.00  0.00    +0.000 A 
ENDBRANCH   2   5
BRANCH   1  15
ATOM     14  C   UNL     1       4.452   3.910  19.656  0.00  0.00    +0.000 C 
ATOM     15  N   UNL     1       3.267   4.288  20.043  0.00  0.00    +0.000 NA
BRANCH  14  18
ATOM     16  N   UNL     1       7.040   6.078  18.327  0.00  0.00    +0.000 N 
ATOM     17  C   UNL     1       6.341   5.614  19.401  0.00  0.00    +0.000 A 
ATOM     18  C   UNL     1       5.435   4.686  18.917  0.00  0.00    +0.000 A 
ATOM     19  C   UNL     1       5.626   4.739  17.502  0.00  0.00    +0.000 A 
ATOM     20  C   UNL     1       4.909   4.010  16.425  0.00  0.00    +0.000 C 
ATOM     21  N   UNL     1       6.615   5.574  17.161  0.00  0.00    +0.000 NA
BRANCH  16  23
ATOM     22  C   UNL     1       7.852   8.285  17.629  0.00  0.00    +0.000 C 
ATOM     23  C   UNL     1       8.170   6.988  18.352  0.00  0.00    +0.000 C 
ENDBRANCH  16  23
ENDBRANCH  14  18
ENDBRANCH   1  15
TORSDOF 4
ENDMDL
MODEL 8
REMARK VINA RESULT:      -6.6      1.179      2.235
REMARK  Name = 
REMARK  6 active torsions:
REMARK  status: ('A' for Active; 'I' for Inactive)
REMARK    1  A    between atoms: C_1  and  C_2
REMARK    2  A    between atoms: C_2  and  N_3
REMARK    3  A    between atoms: C_5  and  C_6
REMARK    4  A    between atoms: N_7  and  N_8
REMARK    5  A    between atoms: C_9  and  C_11
REMARK    6  A    between atoms: C_20  and  C_21
REMARK                            x       y       z     vdW  Elec       q    Type
REMARK                         _______ _______ _______ _____ _____    ______ ____
ROOT
ATOM      1  N   UNL     1       3.671   5.866  19.492  0.00  0.00    +0.000 N 
ATOM      2  C   UNL     1       2.374   6.167  19.900  0.00  0.00    +0.000 C 
ATOM      3  O   UNL     1       1.577   5.371  20.378  0.00  0.00    +0.000 OA
ATOM      4  H   UNL     1       4.232   6.580  19.047  0.00  0.00    +0.000 HD
ENDROOT
BRANCH   2   5
ATOM      5  C   UNL     1       2.009   7.557  19.586  0.00  0.00    +0.000 A 
ATOM      6  C   UNL     1       2.218   8.135  18.345  0.00  0.00    +0.000 A 
ATOM      7  S   UNL     1       1.520   9.678  18.203  0.00  0.00    +0.000 S 
ATOM      8  C   UNL     1       0.940   9.640  19.820  0.00  0.00    +0.000 A 
ATOM      9  C   UNL     1       0.143  10.619  20.445  0.00  0.00    +0.000 A 
ATOM     10  C   UNL     1      -0.218  10.446  21.782  0.00  0.00    +0.000 A 
ATOM     11  C   UNL     1       0.235   9.346  22.494  0.00  0.00    +0.000 A 
ATOM     12  C   UNL     1       1.013   8.369  21.863  0.00  0.00    +0.000 A 
ATOM     13  C   UNL     1       1.355   8.484  20.491  0.00  0.00    +0.000 A 
ENDBRANCH   2   5
BRANCH   1  15
ATOM     14  C   UNL     1       5.357   4.363  19.063  0.00  0.00    +0.000 C 
ATOM     15  N   UNL     1       4.193   4.612  19.592  0.00  0.00    +0.000 NA
BRANCH  14  18
ATOM     16  N   UNL     1       7.334   6.875  17.347  0.00  0.00    +0.000 N 
ATOM     17  C   UNL     1       6.709   6.454  18.483  0.00  0.00    +0.000 A 
ATOM     18  C   UNL     1       6.140   5.226  18.192  0.00  0.00    +0.000 A 
ATOM     19  C   UNL     1       6.421   5.047  16.804  0.00  0.00    +0.000 A 
ATOM     20  C   UNL     1       6.024   3.941  15.895  0.00  0.00    +0.000 C 
ATOM     21  N   UNL     1       7.162   6.046  16.309  0.00  0.00    +0.000 NA
BRANCH  16  23
ATOM     22  C   UNL     1       8.476   8.688  18.543  0.00  0.00    +0.000 C 
ATOM     23  C   UNL     1       8.160   8.059  17.197  0.00  0.00    +0.000 C 
ENDBRANCH  16  23
ENDBRANCH  14  18
ENDBRANCH   1  15
TORSDOF 4
ENDMDL
MODEL 9
REMARK VINA RESULT:      -6.6      2.132      3.620
REMARK  Name = 
REMARK  6 active torsions:
REMARK  status: ('A' for Active; 'I' for Inactive)
REMARK    1  A    between atoms: C_1  and  C_2
REMARK    2  A    between atoms: C_2  and  N_3
REMARK    3  A    between atoms: C_5  and  C_6
REMARK    4  A    between atoms: N_7  and  N_8
REMARK    5  A    between atoms: C_9  and  C_11
REMARK    6  A    between atoms: C_20  and  C_21
REMARK                            x       y       z     vdW  Elec       q    Type
REMARK                         _______ _______ _______ _____ _____    ______ ____
ROOT
ATOM      1  N   UNL     1       4.938   4.769  19.454  0.00  0.00    +0.000 N 
ATOM      2  C   UNL     1       3.656   4.678  18.919  0.00  0.00    +0.000 C 
ATOM      3  O   UNL     1       3.315   3.925  18.017  0.00  0.00    +0.000 OA
ATOM      4  H   UNL     1       5.137   5.470  20.155  0.00  0.00    +0.000 HD
ENDROOT
BRANCH   2   5
ATOM      5  C   UNL     1       2.750   5.686  19.490  0.00  0.00    +0.000 A 
ATOM      6  C   UNL     1       2.097   5.524  20.700  0.00  0.00    +0.000 A 
ATOM      7  S   UNL     1       1.278   6.924  21.208  0.00  0.00    +0.000 S 
ATOM      8  C   UNL     1       1.742   7.790  19.799  0.00  0.00    +0.000 A 
ATOM      9  C   UNL     1       1.474   9.146  19.525  0.00  0.00    +0.000 A 
ATOM     10  C   UNL     1       1.900   9.689  18.313  0.00  0.00    +0.000 A 
ATOM     11  C   UNL     1       2.542   8.894  17.375  0.00  0.00    +0.000 A 
ATOM     12  C   UNL     1       2.821   7.553  17.660  0.00  0.00    +0.000 A 
ATOM     13  C   UNL     1       2.451   6.980  18.904  0.00  0.00    +0.000 A 
ENDBRANCH   2   5
BRANCH   1  15
ATOM     14  C   UNL     1       6.964   4.568  18.386  0.00  0.00    +0.000 C 
ATOM     15  N   UNL     1       5.970   4.000  19.008  0.00  0.00    +0.000 NA
BRANCH  14  18
ATOM     16  N   UNL     1       7.539   8.084  17.702  0.00  0.00    +0.000 N 
ATOM     17  C   UNL     1       7.778   6.989  18.478  0.00  0.00    +0.000 A 
ATOM     18  C   UNL     1       7.055   5.945  17.928  0.00  0.00    +0.000 A 
ATOM     19  C   UNL     1       6.341   6.561  16.855  0.00  0.00    +0.000 A 
ATOM     20  C   UNL     1       5.353   5.970  15.917  0.00  0.00    +0.000 C 
ATOM     21  N   UNL     1       6.658   7.854  16.719  0.00  0.00    +0.000 NA
BRANCH  16  23
ATOM     22  C   UNL     1       9.037   9.471  19.062  0.00  0.00    +0.000 C 
ATOM     23  C   UNL     1       8.162   9.389  17.824  0.00  0.00    +0.000 C 
ENDBRANCH  16  23
ENDBRANCH  14  18
ENDBRANCH   1  15
TORSDOF 4
ENDMDL
