MODEL 1
REMARK VINA RESULT:      -8.5      0.000      0.000
REMARK  Name = 
REMARK  5 active torsions:
REMARK  status: ('A' for Active; 'I' for Inactive)
REMARK    1  A    between atoms: O_1  and  C_2
REMARK    2  A    between atoms: C_5  and  C_6
REMARK    3  A    between atoms: C_6  and  N_7
REMARK    4  A    between atoms: N_7  and  C_8
REMARK    5  A    between atoms: C_11  and  C_12
REMARK                            x       y       z     vdW  Elec       q    Type
REMARK                         _______ _______ _______ _____ _____    ______ ____
ROOT
ATOM      1  C   UNL     1       6.819   5.276  17.806  0.00  0.00    +0.000 A 
ATOM      2  C   UNL     1       7.725   5.583  18.824  0.00  0.00    +0.000 A 
ATOM      3  C   UNL     1       8.261   6.870  18.943  0.00  0.00    +0.000 A 
ATOM      4  C   UNL     1       7.924   7.881  18.034  0.00  0.00    +0.000 A 
ATOM      5  C   UNL     1       7.092   7.549  16.959  0.00  0.00    +0.000 A 
ATOM      6  C   UNL     1       6.563   6.257  16.840  0.00  0.00    +0.000 A 
ENDROOT
BRANCH   4   7
ATOM      7  C   UNL     1       8.394   9.245  18.272  0.00  0.00    +0.000 A 
ATOM      8  N   UNL     1       8.206  10.321  17.527  0.00  0.00    +0.000 NA
ATOM      9  C   UNL     1       9.009  11.267  18.110  0.00  0.00    +0.000 A 
ATOM     10  C   UNL     1       9.285  12.591  17.744  0.00  0.00    +0.000 A 
ATOM     11  C   UNL     1      10.199  13.316  18.524  0.00  0.00    +0.000 A 
ATOM     12  C   UNL     1      10.806  12.741  19.648  0.00  0.00    +0.000 A 
ATOM     13  C   UNL     1      10.528  11.423  20.034  0.00  0.00    +0.000 A 
ATOM     14  C   UNL     1       9.633  10.734  19.224  0.00  0.00    +0.000 A 
ATOM     15  O   UNL     1       9.229   9.437  19.348  0.00  0.00    +0.000 OA
ENDBRANCH   4   7
BRANCH   1  16
ATOM     16  N   UNL     1       6.213   4.021  17.651  0.00  0.00    +0.000 N 
ATOM     17  H   UNL     1       6.161   3.544  18.549  0.00  0.00    +0.000 HD
BRANCH  16  18
ATOM     18  C   UNL     1       4.923   3.989  16.963  0.00  0.00    +0.000 C 
BRANCH  18  22
ATOM     19  C   UNL     1       1.575   3.371  19.617  0.00  0.00    +0.000 A 
ATOM     20  C   UNL     1       1.355   3.699  18.284  0.00  0.00    +0.000 A 
ATOM     21  C   UNL     1       2.450   3.926  17.444  0.00  0.00    +0.000 A 
ATOM     22  C   UNL     1       3.766   3.832  17.929  0.00  0.00    +0.000 A 
ATOM     23  C   UNL     1       3.956   3.481  19.276  0.00  0.00    +0.000 A 
ATOM     24  C   UNL     1       2.865   3.261  20.118  0.00  0.00    +0.000 A 
BRANCH  19  25
ATOM     25  O   UNL     1       0.537   3.133  20.470  0.00  0.00    +0.000 OA
ATOM     26  H   UNL     1       0.522   3.835  21.140  0.00  0.00    +0.000 HD
ENDBRANCH  19  25
ENDBRANCH  18  22
ENDBRANCH  16  18
ENDBRANCH   1  16
TORSDOF 5
ENDMDL
MODEL 2
REMARK VINA RESULT:      -8.3      0.995      1.717
REMARK  Name = 
REMARK  5 active torsions:
REMARK  status: ('A' for Active; 'I' for Inactive)
REMARK    1  A    between atoms: O_1  and  C_2
REMARK    2  A    between atoms: C_5  and  C_6
REMARK    3  A    between atoms: C_6  and  N_7
REMARK    4  A    between atoms: N_7  and  C_8
REMARK    5  A    between atoms: C_11  and  C_12
REMARK                            x       y       z     vdW  Elec       q    Type
REMARK                         _______ _______ _______ _____ _____    ______ ____
ROOT
ATOM      1  C   UNL     1       6.693   5.274  17.451  0.00  0.00    +0.000 A 
ATOM      2  C   UNL     1       6.244   6.436  16.819  0.00  0.00    +0.000 A 
ATOM      3  C   UNL     1       6.798   7.682  17.134  0.00  0.00    +0.000 A 
ATOM      4  C   UNL     1       7.800   7.804  18.105  0.00  0.00    +0.000 A 
ATOM      5  C   UNL     1       8.182   6.655  18.805  0.00  0.00    +0.000 A 
ATOM      6  C   UNL     1       7.620   5.409  18.491  0.00  0.00    +0.000 A 
ENDROOT
BRANCH   4   7
ATOM      7  C   UNL     1       8.450   9.099  18.306  0.00  0.00    +0.000 A 
ATOM      8  N   UNL     1       9.312   9.449  19.245  0.00  0.00    +0.000 NA
ATOM      9  C   UNL     1       9.447  10.803  19.078  0.00  0.00    +0.000 A 
ATOM     10  C   UNL     1      10.176  11.752  19.806  0.00  0.00    +0.000 A 
ATOM     11  C   UNL     1      10.085  13.097  19.417  0.00  0.00    +0.000 A 
ATOM     12  C   UNL     1       9.302  13.481  18.320  0.00  0.00    +0.000 A 
ATOM     13  C   UNL     1       8.579  12.541  17.574  0.00  0.00    +0.000 A 
ATOM     14  C   UNL     1       8.681  11.223  18.004  0.00  0.00    +0.000 A 
ATOM     15  O   UNL     1       8.049  10.130  17.489  0.00  0.00    +0.000 OA
ENDBRANCH   4   7
BRANCH   1  16
ATOM     16  N   UNL     1       6.212   3.989  17.157  0.00  0.00    +0.000 N 
ATOM     17  H   UNL     1       6.203   3.418  18.000  0.00  0.00    +0.000 HD
BRANCH  16  18
ATOM     18  C   UNL     1       4.934   3.905  16.451  0.00  0.00    +0.000 C 
BRANCH  18  22
ATOM     19  C   UNL     1       1.513   3.199  18.986  0.00  0.00    +0.000 A 
ATOM     20  C   UNL     1       1.805   4.488  18.555  0.00  0.00    +0.000 A 
ATOM     21  C   UNL     1       2.934   4.705  17.759  0.00  0.00    +0.000 A 
ATOM     22  C   UNL     1       3.779   3.641  17.395  0.00  0.00    +0.000 A 
ATOM     23  C   UNL     1       3.446   2.349  17.831  0.00  0.00    +0.000 A 
ATOM     24  C   UNL     1       2.325   2.130  18.631  0.00  0.00    +0.000 A 
BRANCH  19  25
ATOM     25  O   UNL     1       0.417   2.940  19.757  0.00  0.00    +0.000 OA
ATOM     26  H   UNL     1       0.714   2.757  20.663  0.00  0.00    +0.000 HD
ENDBRANCH  19  25
ENDBRANCH  18  22
ENDBRANCH  16  18
ENDBRANCH   1  16
TORSDOF 5
ENDMDL
MODEL 3
REMARK VINA RESULT:      -8.2      0.711      1.367
REMARK  Name = 
REMARK  5 active torsions:
REMARK  status: ('A' for Active; 'I' for Inactive)
REMARK    1  A    between atoms: O_1  and  C_2
REMARK    2  A    between atoms: C_5  and  C_6
REMARK    3  A    between atoms: C_6  and  N_7
REMARK    4  A    between atoms: N_7  and  C_8
REMARK    5  A    between atoms: C_11  and  C_12
REMARK                            x       y       z     vdW  Elec       q    Type
REMARK                         _______ _______ _______ _____ _____    ______ ____
ROOT
ATOM      1  C   UNL     1       6.902   5.404  17.507  0.00  0.00    +0.000 A 
ATOM      2  C   UNL     1       6.449   6.521  16.801  0.00  0.00    +0.000 A 
ATOM      3  C   UNL     1       6.926   7.802  17.103  0.00  0.00    +0.000 A 
ATOM      4  C   UNL     1       7.853   8.005  18.134  0.00  0.00    +0.000 A 
ATOM      5  C   UNL     1       8.233   6.900  18.903  0.00  0.00    +0.000 A 
ATOM      6  C   UNL     1       7.748   5.620  18.601  0.00  0.00    +0.000 A 
ENDROOT
BRANCH   4   7
ATOM      7  C   UNL     1       8.431   9.334  18.327  0.00  0.00    +0.000 A 
ATOM      8  N   UNL     1       8.318  10.400  17.552  0.00  0.00    +0.000 NA
ATOM      9  C   UNL     1       9.200  11.296  18.099  0.00  0.00    +0.000 A 
ATOM     10  C   UNL     1       9.575  12.583  17.691  0.00  0.00    +0.000 A 
ATOM     11  C   UNL     1      10.552  13.256  18.440  0.00  0.00    +0.000 A 
ATOM     12  C   UNL     1      11.126  12.667  19.574  0.00  0.00    +0.000 A 
ATOM     13  C   UNL     1      10.751  11.387  20.002  0.00  0.00    +0.000 A 
ATOM     14  C   UNL     1       9.794  10.748  19.222  0.00  0.00    +0.000 A 
ATOM     15  O   UNL     1       9.292   9.490  19.388  0.00  0.00    +0.000 OA
ENDBRANCH   4   7
BRANCH   1  16
ATOM     16  N   UNL     1       6.499   4.090  17.232  0.00  0.00    +0.000 N 
ATOM     17  H   UNL     1       6.399   3.565  18.100  0.00  0.00    +0.000 HD
BRANCH  16  18
ATOM     18  C   UNL     1       5.323   3.922  16.379  0.00  0.00    +0.000 C 
BRANCH  18  22
ATOM     19  C   UNL     1       1.836   3.290  18.843  0.00  0.00    +0.000 A 
ATOM     20  C   UNL     1       2.650   2.217  18.502  0.00  0.00    +0.000 A 
ATOM     21  C   UNL     1       3.760   2.432  17.677  0.00  0.00    +0.000 A 
ATOM     22  C   UNL     1       4.058   3.716  17.187  0.00  0.00    +0.000 A 
ATOM     23  C   UNL     1       3.226   4.783  17.564  0.00  0.00    +0.000 A 
ATOM     24  C   UNL     1       2.115   4.569  18.380  0.00  0.00    +0.000 A 
BRANCH  19  25
ATOM     25  O   UNL     1       0.748   3.128  19.651  0.00  0.00    +0.000 OA
ATOM     26  H   UNL     1       0.846   2.292  20.135  0.00  0.00    +0.000 HD
ENDBRANCH  19  25
ENDBRANCH  18  22
ENDBRANCH  16  18
ENDBRANCH   1  16
TORSDOF 5
ENDMDL
MODEL 4
REMARK VINA RESULT:      -8.2      0.858      1.166
REMARK  Name = 
REMARK  5 active torsions:
REMARK  status: ('A' for Active; 'I' for Inactive)
REMARK    1  A    between atoms: O_1  and  C_2
REMARK    2  A    between atoms: C_5  and  C_6
REMARK    3  A    between atoms: C_6  and  N_7
REMARK    4  A    between atoms: N_7  and  C_8
REMARK    5  A    between atoms: C_11  and  C_12
REMARK                            x       y       z     vdW  Elec       q    Type
REMARK                         _______ _______ _______ _____ _____    ______ ____
ROOT
ATOM      1  C   UNL     1       6.759   5.345  17.754  0.00  0.00    +0.000 A 
ATOM      2  C   UNL     1       7.725   5.610  18.728  0.00  0.00    +0.000 A 
ATOM      3  C   UNL     1       8.278   6.889  18.861  0.00  0.00    +0.000 A 
ATOM      4  C   UNL     1       7.897   7.933  18.008  0.00  0.00    +0.000 A 
ATOM      5  C   UNL     1       7.002   7.645  16.973  0.00  0.00    +0.000 A 
ATOM      6  C   UNL     1       6.455   6.361  16.840  0.00  0.00    +0.000 A 
ENDROOT
BRANCH   4   7
ATOM      7  C   UNL     1       8.392   9.285  18.266  0.00  0.00    +0.000 A 
ATOM      8  N   UNL     1       8.278  10.361  17.506  0.00  0.00    +0.000 NA
ATOM      9  C   UNL     1       9.073  11.288  18.129  0.00  0.00    +0.000 A 
ATOM     10  C   UNL     1       9.408  12.601  17.773  0.00  0.00    +0.000 A 
ATOM     11  C   UNL     1      10.295  13.305  18.600  0.00  0.00    +0.000 A 
ATOM     12  C   UNL     1      10.820  12.720  19.761  0.00  0.00    +0.000 A 
ATOM     13  C   UNL     1      10.483  11.413  20.137  0.00  0.00    +0.000 A 
ATOM     14  C   UNL     1       9.616  10.745  19.280  0.00  0.00    +0.000 A 
ATOM     15  O   UNL     1       9.169   9.460  19.387  0.00  0.00    +0.000 OA
ENDBRANCH   4   7
BRANCH   1  16
ATOM     16  N   UNL     1       6.134   4.100  17.591  0.00  0.00    +0.000 N 
ATOM     17  H   UNL     1       6.364   3.488  18.372  0.00  0.00    +0.000 HD
BRANCH  16  18
ATOM     18  C   UNL     1       4.694   4.110  17.338  0.00  0.00    +0.000 C 
BRANCH  18  22
ATOM     19  C   UNL     1       2.586   3.351  21.027  0.00  0.00    +0.000 A 
ATOM     20  C   UNL     1       3.488   2.415  20.536  0.00  0.00    +0.000 A 
ATOM     21  C   UNL     1       4.141   2.661  19.324  0.00  0.00    +0.000 A 
ATOM     22  C   UNL     1       3.893   3.837  18.595  0.00  0.00    +0.000 A 
ATOM     23  C   UNL     1       2.989   4.772  19.126  0.00  0.00    +0.000 A 
ATOM     24  C   UNL     1       2.331   4.525  20.331  0.00  0.00    +0.000 A 
BRANCH  19  25
ATOM     25  O   UNL     1       1.933   3.155  22.209  0.00  0.00    +0.000 OA
ATOM     26  H   UNL     1       1.463   2.307  22.166  0.00  0.00    +0.000 HD
ENDBRANCH  19  25
ENDBRANCH  18  22
ENDBRANCH  16  18
ENDBRANCH   1  16
TORSDOF 5
ENDMDL
MODEL 5
REMARK VINA RESULT:      -8.1      0.851      1.310
REMARK  Name = 
REMARK  5 active torsions:
REMARK  status: ('A' for Active; 'I' for Inactive)
REMARK    1  A    between atoms: O_1  and  C_2
REMARK    2  A    between atoms: C_5  and  C_6
REMARK    3  A    between atoms: C_6  and  N_7
REMARK    4  A    between atoms: N_7  and  C_8
REMARK    5  A    between atoms: C_11  and  C_12
REMARK                            x       y       z     vdW  Elec       q    Type
REMARK                         _______ _______ _______ _____ _____    ______ ____
ROOT
ATOM      1  C   UNL     1       6.629   5.345  17.755  0.00  0.00    +0.000 A 
ATOM      2  C   UNL     1       7.651   5.525  18.691  0.00  0.00    +0.000 A 
ATOM      3  C   UNL     1       8.278   6.767  18.837  0.00  0.00    +0.000 A 
ATOM      4  C   UNL     1       7.917   7.859  18.037  0.00  0.00    +0.000 A 
ATOM      5  C   UNL     1       6.961   7.654  17.036  0.00  0.00    +0.000 A 
ATOM      6  C   UNL     1       6.339   6.406  16.889  0.00  0.00    +0.000 A 
ENDROOT
BRANCH   4   7
ATOM      7  C   UNL     1       8.495   9.173  18.313  0.00  0.00    +0.000 A 
ATOM      8  N   UNL     1       9.241   9.543  19.341  0.00  0.00    +0.000 NA
ATOM      9  C   UNL     1       9.345  10.902  19.198  0.00  0.00    +0.000 A 
ATOM     10  C   UNL     1       9.959  11.869  20.005  0.00  0.00    +0.000 A 
ATOM     11  C   UNL     1       9.861  13.214  19.618  0.00  0.00    +0.000 A 
ATOM     12  C   UNL     1       9.184  13.582  18.448  0.00  0.00    +0.000 A 
ATOM     13  C   UNL     1       8.577  12.625  17.624  0.00  0.00    +0.000 A 
ATOM     14  C   UNL     1       8.681  11.308  18.052  0.00  0.00    +0.000 A 
ATOM     15  O   UNL     1       8.146  10.198  17.466  0.00  0.00    +0.000 OA
ENDBRANCH   4   7
BRANCH   1  16
ATOM     16  N   UNL     1       5.930   4.141  17.583  0.00  0.00    +0.000 N 
ATOM     17  H   UNL     1       5.862   3.645  18.470  0.00  0.00    +0.000 HD
BRANCH  16  18
ATOM     18  C   UNL     1       4.627   4.220  16.924  0.00  0.00    +0.000 C 
BRANCH  18  22
ATOM     19  C   UNL     1       1.413   3.440  19.698  0.00  0.00    +0.000 A 
ATOM     20  C   UNL     1       1.326   2.987  18.387  0.00  0.00    +0.000 A 
ATOM     21  C   UNL     1       2.361   3.273  17.491  0.00  0.00    +0.000 A 
ATOM     22  C   UNL     1       3.483   4.017  17.898  0.00  0.00    +0.000 A 
ATOM     23  C   UNL     1       3.550   4.446  19.233  0.00  0.00    +0.000 A 
ATOM     24  C   UNL     1       2.515   4.167  20.126  0.00  0.00    +0.000 A 
BRANCH  19  25
ATOM     25  O   UNL     1       0.430   3.177  20.607  0.00  0.00    +0.000 OA
ATOM     26  H   UNL     1       0.836   3.092  21.484  0.00  0.00    +0.000 HD
ENDBRANCH  19  25
ENDBRANCH  18  22
ENDBRANCH  16  18
ENDBRANCH   1  16
TORSDOF 5
ENDMDL
MODEL 6
REMARK VINA RESULT:      -8.0      1.761      9.553
REMARK  Name = 
REMARK  5 active torsions:
REMARK  status: ('A' for Active; 'I' for Inactive)
REMARK    1  A    between atoms: O_1  and  C_2
REMARK    2  A    between atoms: C_5  and  C_6
REMARK    3  A    between atoms: C_6  and  N_7
REMARK    4  A    between atoms: N_7  and  C_8
REMARK    5  A    between atoms: C_11  and  C_12
REMARK                            x       y       z     vdW  Elec       q    Type
REMARK                         _______ _______ _______ _____ _____    ______ ____
ROOT
ATOM      1  C   UNL     1       7.661   7.795  17.862  0.00  0.00    +0.000 A 
ATOM      2  C   UNL     1       6.477   7.785  17.121  0.00  0.00    +0.000 A 
ATOM      3  C   UNL     1       5.525   6.775  17.305  0.00  0.00    +0.000 A 
ATOM      4  C   UNL     1       5.742   5.734  18.218  0.00  0.00    +0.000 A 
ATOM      5  C   UNL     1       6.969   5.692  18.889  0.00  0.00    +0.000 A 
ATOM      6  C   UNL     1       7.921   6.703  18.697  0.00  0.00    +0.000 A 
ENDROOT
BRANCH   4   7
ATOM      7  C   UNL     1       4.668   4.778  18.482  0.00  0.00    +0.000 A 
ATOM      8  N   UNL     1       4.233   3.796  17.710  0.00  0.00    +0.000 NA
ATOM      9  C   UNL     1       3.108   3.348  18.354  0.00  0.00    +0.000 A 
ATOM     10  C   UNL     1       2.176   2.364  17.999  0.00  0.00    +0.000 A 
ATOM     11  C   UNL     1       1.082   2.151  18.852  0.00  0.00    +0.000 A 
ATOM     12  C   UNL     1       0.933   2.888  20.034  0.00  0.00    +0.000 A 
ATOM     13  C   UNL     1       1.865   3.865  20.408  0.00  0.00    +0.000 A 
ATOM     14  C   UNL     1       2.922   4.057  19.527  0.00  0.00    +0.000 A 
ATOM     15  O   UNL     1       3.933   4.969  19.628  0.00  0.00    +0.000 OA
ENDBRANCH   4   7
BRANCH   1  16
ATOM     16  N   UNL     1       8.639   8.796  17.759  0.00  0.00    +0.000 N 
ATOM     17  H   UNL     1       8.421   9.419  16.983  0.00  0.00    +0.000 HD
BRANCH  16  18
ATOM     18  C   UNL     1       8.941   9.554  18.972  0.00  0.00    +0.000 C 
BRANCH  18  22
ATOM     19  C   UNL     1      10.561  13.479  18.197  0.00  0.00    +0.000 A 
ATOM     20  C   UNL     1       9.351  13.100  17.627  0.00  0.00    +0.000 A 
ATOM     21  C   UNL     1       8.854  11.815  17.862  0.00  0.00    +0.000 A 
ATOM     22  C   UNL     1       9.563  10.901  18.662  0.00  0.00    +0.000 A 
ATOM     23  C   UNL     1      10.773  11.319  19.239  0.00  0.00    +0.000 A 
ATOM     24  C   UNL     1      11.274  12.599  19.000  0.00  0.00    +0.000 A 
BRANCH  19  25
ATOM     25  O   UNL     1      11.079  14.726  18.001  0.00  0.00    +0.000 OA
ATOM     26  H   UNL     1      11.823  14.657  17.381  0.00  0.00    +0.000 HD
ENDBRANCH  19  25
ENDBRANCH  18  22
ENDBRANCH  16  18
ENDBRANCH   1  16
TORSDOF 5
ENDMDL
MODEL 7
REMARK VINA RESULT:      -8.0      5.630      7.644
REMARK  Name = 
REMARK  5 active torsions:
REMARK  status: ('A' for Active; 'I' for Inactive)
REMARK    1  A    between atoms: O_1  and  C_2
REMARK    2  A    between atoms: C_5  and  C_6
REMARK    3  A    between atoms: C_6  and  N_7
REMARK    4  A    between atoms: N_7  and  C_8
REMARK    5  A    between atoms: C_11  and  C_12
REMARK                            x       y       z     vdW  Elec       q    Type
REMARK                         _______ _______ _______ _____ _____    ______ ____
ROOT
ATOM      1  C   UNL     1       2.480   5.372  19.004  0.00  0.00    +0.000 A 
ATOM      2  C   UNL     1       1.955   5.281  20.295  0.00  0.00    +0.000 A 
ATOM      3  C   UNL     1       1.504   6.422  20.968  0.00  0.00    +0.000 A 
ATOM      4  C   UNL     1       1.585   7.690  20.377  0.00  0.00    +0.000 A 
ATOM      5  C   UNL     1       2.198   7.793  19.123  0.00  0.00    +0.000 A 
ATOM      6  C   UNL     1       2.654   6.648  18.456  0.00  0.00    +0.000 A 
ENDROOT
BRANCH   4   7
ATOM      7  C   UNL     1       0.977   8.835  21.052  0.00  0.00    +0.000 A 
ATOM      8  N   UNL     1       0.241   8.847  22.150  0.00  0.00    +0.000 NA
ATOM      9  C   UNL     1      -0.216  10.137  22.225  0.00  0.00    +0.000 A 
ATOM     10  C   UNL     1      -1.088  10.753  23.132  0.00  0.00    +0.000 A 
ATOM     11  C   UNL     1      -1.412  12.103  22.926  0.00  0.00    +0.000 A 
ATOM     12  C   UNL     1      -0.866  12.821  21.854  0.00  0.00    +0.000 A 
ATOM     13  C   UNL     1       0.018  12.222  20.947  0.00  0.00    +0.000 A 
ATOM     14  C   UNL     1       0.298  10.880  21.176  0.00  0.00    +0.000 A 
ATOM     15  O   UNL     1       1.082  10.055  20.425  0.00  0.00    +0.000 OA
ENDBRANCH   4   7
BRANCH   1  16
ATOM     16  N   UNL     1       2.913   4.267  18.256  0.00  0.00    +0.000 N 
ATOM     17  H   UNL     1       2.781   4.443  17.262  0.00  0.00    +0.000 HD
BRANCH  16  18
ATOM     18  C   UNL     1       4.263   3.772  18.527  0.00  0.00    +0.000 C 
BRANCH  18  22
ATOM     19  C   UNL     1       6.925   4.974  15.349  0.00  0.00    +0.000 A 
ATOM     20  C   UNL     1       5.606   4.642  15.064  0.00  0.00    +0.000 A 
ATOM     21  C   UNL     1       4.764   4.225  16.099  0.00  0.00    +0.000 A 
ATOM     22  C   UNL     1       5.234   4.132  17.421  0.00  0.00    +0.000 A 
ATOM     23  C   UNL     1       6.567   4.492  17.681  0.00  0.00    +0.000 A 
ATOM     24  C   UNL     1       7.411   4.901  16.648  0.00  0.00    +0.000 A 
BRANCH  19  25
ATOM     25  O   UNL     1       7.780   5.393  14.371  0.00  0.00    +0.000 OA
ATOM     26  H   UNL     1       8.654   5.006  14.539  0.00  0.00    +0.000 HD
ENDBRANCH  19  25
ENDBRANCH  18  22
ENDBRANCH  16  18
ENDBRANCH   1  16
TORSDOF 5
ENDMDL
MODEL 8
REMARK VINA RESULT:      -7.9      5.447      7.729
REMARK  Name = 
REMARK  5 active torsions:
REMARK  status: ('A' for Active; 'I' for Inactive)
REMARK    1  A    between atoms: O_1  and  C_2
REMARK    2  A    between atoms: C_5  and  C_6
REMARK    3  A    between atoms: C_6  and  N_7
REMARK    4  A    between atoms: N_7  and  C_8
REMARK    5  A    between atoms: C_11  and  C_12
REMARK                            x       y       z     vdW  Elec       q    Type
REMARK                         _______ _______ _______ _____ _____    ______ ____
ROOT
ATOM      1  C   UNL     1       2.564   5.127  18.958  0.00  0.00    +0.000 A 
ATOM      2  C   UNL     1       1.996   5.069  20.233  0.00  0.00    +0.000 A 
ATOM      3  C   UNL     1       1.534   6.230  20.865  0.00  0.00    +0.000 A 
ATOM      4  C   UNL     1       1.647   7.483  20.249  0.00  0.00    +0.000 A 
ATOM      5  C   UNL     1       2.301   7.553  19.014  0.00  0.00    +0.000 A 
ATOM      6  C   UNL     1       2.768   6.389  18.388  0.00  0.00    +0.000 A 
ENDROOT
BRANCH   4   7
ATOM      7  C   UNL     1       1.028   8.649  20.877  0.00  0.00    +0.000 A 
ATOM      8  N   UNL     1       0.586   8.777  22.117  0.00  0.00    +0.000 NA
ATOM      9  C   UNL     1      -0.058   9.987  22.112  0.00  0.00    +0.000 A 
ATOM     10  C   UNL     1      -0.781  10.649  23.114  0.00  0.00    +0.000 A 
ATOM     11  C   UNL     1      -1.375  11.880  22.797  0.00  0.00    +0.000 A 
ATOM     12  C   UNL     1      -1.236  12.442  21.521  0.00  0.00    +0.000 A 
ATOM     13  C   UNL     1      -0.504  11.799  20.514  0.00  0.00    +0.000 A 
ATOM     14  C   UNL     1       0.052  10.574  20.864  0.00  0.00    +0.000 A 
ATOM     15  O   UNL     1       0.765   9.728  20.066  0.00  0.00    +0.000 OA
ENDBRANCH   4   7
BRANCH   1  16
ATOM     16  N   UNL     1       3.011   4.001  18.251  0.00  0.00    +0.000 N 
ATOM     17  H   UNL     1       2.764   4.086  17.266  0.00  0.00    +0.000 HD
BRANCH  16  18
ATOM     18  C   UNL     1       4.418   3.635  18.409  0.00  0.00    +0.000 C 
BRANCH  18  22
ATOM     19  C   UNL     1       6.990   5.015  15.229  0.00  0.00    +0.000 A 
ATOM     20  C   UNL     1       7.451   5.000  16.540  0.00  0.00    +0.000 A 
ATOM     21  C   UNL     1       6.596   4.579  17.564  0.00  0.00    +0.000 A 
ATOM     22  C   UNL     1       5.278   4.177  17.285  0.00  0.00    +0.000 A 
ATOM     23  C   UNL     1       4.847   4.186  15.949  0.00  0.00    +0.000 A 
ATOM     24  C   UNL     1       5.696   4.613  14.927  0.00  0.00    +0.000 A 
BRANCH  19  25
ATOM     25  O   UNL     1       7.792   5.411  14.199  0.00  0.00    +0.000 OA
ATOM     26  H   UNL     1       7.886   4.670  13.579  0.00  0.00    +0.000 HD
ENDBRANCH  19  25
ENDBRANCH  18  22
ENDBRANCH  16  18
ENDBRANCH   1  16
TORSDOF 5
ENDMDL
MODEL 9
REMARK VINA RESULT:      -7.8      1.108      1.637
REMARK  Name = 
REMARK  5 active torsions:
REMARK  status: ('A' for Active; 'I' for Inactive)
REMARK    1  A    between atoms: O_1  and  C_2
REMARK    2  A    between atoms: C_5  and  C_6
REMARK    3  A    between atoms: C_6  and  N_7
REMARK    4  A    between atoms: N_7  and  C_8
REMARK    5  A    between atoms: C_11  and  C_12
REMARK                            x       y       z     vdW  Elec       q    Type
REMARK                         _______ _______ _______ _____ _____    ______ ____
ROOT
ATOM      1  C   UNL     1       6.607   6.088  17.828  0.00  0.00    +0.000 A 
ATOM      2  C   UNL     1       7.666   6.050  18.739  0.00  0.00    +0.000 A 
ATOM      3  C   UNL     1       8.446   7.187  18.980  0.00  0.00    +0.000 A 
ATOM      4  C   UNL     1       8.204   8.388  18.299  0.00  0.00    +0.000 A 
ATOM      5  C   UNL     1       7.206   8.399  17.319  0.00  0.00    +0.000 A 
ATOM      6  C   UNL     1       6.431   7.256  17.077  0.00  0.00    +0.000 A 
ENDROOT
BRANCH   4   7
ATOM      7  C   UNL     1       8.948   9.588  18.678  0.00  0.00    +0.000 A 
ATOM      8  N   UNL     1       9.285   9.998  19.889  0.00  0.00    +0.000 NA
ATOM      9  C   UNL     1       9.794  11.254  19.679  0.00  0.00    +0.000 A 
ATOM     10  C   UNL     1      10.263  12.219  20.581  0.00  0.00    +0.000 A 
ATOM     11  C   UNL     1      10.691  13.452  20.066  0.00  0.00    +0.000 A 
ATOM     12  C   UNL     1      10.668  13.708  18.688  0.00  0.00    +0.000 A 
ATOM     13  C   UNL     1      10.215  12.747  17.774  0.00  0.00    +0.000 A 
ATOM     14  C   UNL     1       9.783  11.547  18.327  0.00  0.00    +0.000 A 
ATOM     15  O   UNL     1       9.256  10.473  17.671  0.00  0.00    +0.000 OA
ENDBRANCH   4   7
BRANCH   1  16
ATOM     16  N   UNL     1       5.760   5.001  17.568  0.00  0.00    +0.000 N 
ATOM     17  H   UNL     1       5.738   4.375  18.371  0.00  0.00    +0.000 HD
BRANCH  16  18
ATOM     18  C   UNL     1       4.408   5.311  17.106  0.00  0.00    +0.000 C 
BRANCH  18  22
ATOM     19  C   UNL     1       1.274   3.678  19.585  0.00  0.00    +0.000 A 
ATOM     20  C   UNL     1       2.040   4.744  20.043  0.00  0.00    +0.000 A 
ATOM     21  C   UNL     1       3.072   5.242  19.241  0.00  0.00    +0.000 A 
ATOM     22  C   UNL     1       3.347   4.677  17.983  0.00  0.00    +0.000 A 
ATOM     23  C   UNL     1       2.544   3.614  17.541  0.00  0.00    +0.000 A 
ATOM     24  C   UNL     1       1.519   3.110  18.342  0.00  0.00    +0.000 A 
BRANCH  19  25
ATOM     25  O   UNL     1       0.253   3.166  20.331  0.00  0.00    +0.000 OA
ATOM     26  H   UNL     1       0.372   3.448  21.252  0.00  0.00    +0.000 HD
ENDBRANCH  19  25
ENDBRANCH  18  22
ENDBRANCH  16  18
ENDBRANCH   1  16
TORSDOF 5
ENDMDL
