MODEL 1
REMARK VINA RESULT:      -8.8      0.000      0.000
REMARK  Name = 
REMARK  10 active torsions:
REMARK  status: ('A' for Active; 'I' for Inactive)
REMARK    1  A    between atoms: C_1  and  C_2
REMARK    2  A    between atoms: C_2  and  C_3
REMARK    3  A    between atoms: C_3  and  C_4
REMARK    4  A    between atoms: C_4  and  N_5
REMARK    5  A    between atoms: C_6  and  N_7
REMARK    6  A    between atoms: C_8  and  C_9
REMARK    7  A    between atoms: C_14  and  N_15
REMARK    8  A    between atoms: N_15  and  S_16
REMARK    9  A    between atoms: S_16  and  C_19
REMARK   10  A    between atoms: C_22  and  C_23
REMARK                            x       y       z     vdW  Elec       q    Type
REMARK                         _______ _______ _______ _____ _____    ______ ____
ROOT
ATOM      1  C   UNL     1       2.989   3.622  18.922  0.00  0.00    +0.000 A 
ATOM      2  C   UNL     1       2.263   2.427  19.060  0.00  0.00    +0.000 A 
ATOM      3  C   UNL     1       1.477   2.205  20.192  0.00  0.00    +0.000 A 
ATOM      4  C   UNL     1       1.430   3.163  21.200  0.00  0.00    +0.000 A 
ATOM      5  C   UNL     1       2.116   4.373  21.050  0.00  0.00    +0.000 A 
ATOM      6  C   UNL     1       2.864   4.628  19.891  0.00  0.00    +0.000 A 
ENDROOT
BRANCH   1   8
ATOM      7  N   UNL     1       5.061   4.218  17.713  0.00  0.00    +0.000 NA
ATOM      8  C   UNL     1       3.865   3.707  17.727  0.00  0.00    +0.000 C 
BRANCH   7  10
ATOM      9  N   UNL     1       6.796   4.870  16.169  0.00  0.00    +0.000 N 
ATOM     10  C   UNL     1       5.647   4.158  16.478  0.00  0.00    +0.000 A 
ATOM     11  N   UNL     1       5.259   3.478  15.413  0.00  0.00    +0.000 NA
ATOM     12  C   UNL     1       6.048   3.890  14.374  0.00  0.00    +0.000 A 
ATOM     13  C   UNL     1       6.002   3.524  13.019  0.00  0.00    +0.000 A 
ATOM     14  C   UNL     1       6.867   4.158  12.119  0.00  0.00    +0.000 A 
ATOM     15  C   UNL     1       7.770   5.124  12.564  0.00  0.00    +0.000 A 
ATOM     16  C   UNL     1       7.862   5.465  13.920  0.00  0.00    +0.000 A 
ATOM     17  C   UNL     1       6.983   4.822  14.803  0.00  0.00    +0.000 A 
BRANCH   9  18
ATOM     18  C   UNL     1       7.629   5.598  17.100  0.00  0.00    +0.000 C 
BRANCH  18  19
ATOM     19  C   UNL     1       7.306   7.089  17.279  0.00  0.00    +0.000 C 
BRANCH  19  21
ATOM     20  C   UNL     1       8.297   9.372  18.022  0.00  0.00    +0.000 C 
ATOM     21  C   UNL     1       8.158   7.879  18.283  0.00  0.00    +0.000 C 
ENDBRANCH  19  21
ENDBRANCH  18  19
ENDBRANCH   9  18
ENDBRANCH   7  10
ENDBRANCH   1   8
BRANCH   6  22
ATOM     22  N   UNL     1       3.404   5.935  19.669  0.00  0.00    +0.000 N 
ATOM     23  H   UNL     1       4.420   5.958  19.526  0.00  0.00    +0.000 HD
BRANCH  22  24
ATOM     24  S   UNL     1       2.620   6.947  18.556  0.00  0.00    +0.000 S 
ATOM     25  O   UNL     1       3.624   7.613  17.750  0.00  0.00    +0.000 OA
ATOM     26  O   UNL     1       1.589   6.145  17.934  0.00  0.00    +0.000 OA
BRANCH  24  27
ATOM     27  C   UNL     1       1.829   8.191  19.560  0.00  0.00    +0.000 A 
ATOM     28  C   UNL     1       1.609   7.954  20.922  0.00  0.00    +0.000 A 
ATOM     29  C   UNL     1       0.829   8.845  21.659  0.00  0.00    +0.000 A 
ATOM     30  C   UNL     1       0.275   9.974  21.043  0.00  0.00    +0.000 A 
ATOM     31  C   UNL     1      -0.697  10.847  21.782  0.00  0.00    +0.000 C 
ATOM     32  C   UNL     1       0.621  10.270  19.717  0.00  0.00    +0.000 A 
ATOM     33  C   UNL     1       1.397   9.379  18.971  0.00  0.00    +0.000 A 
ENDBRANCH  24  27
ENDBRANCH  22  24
ENDBRANCH   6  22
TORSDOF 8
ENDMDL
MODEL 2
REMARK VINA RESULT:      -8.7      0.761      1.212
REMARK  Name = 
REMARK  10 active torsions:
REMARK  status: ('A' for Active; 'I' for Inactive)
REMARK    1  A    between atoms: C_1  and  C_2
REMARK    2  A    between atoms: C_2  and  C_3
REMARK    3  A    between atoms: C_3  and  C_4
REMARK    4  A    between atoms: C_4  and  N_5
REMARK    5  A    between atoms: C_6  and  N_7
REMARK    6  A    between atoms: C_8  and  C_9
REMARK    7  A    between atoms: C_14  and  N_15
REMARK    8  A    between atoms: N_15  and  S_16
REMARK    9  A    between atoms: S_16  and  C_19
REMARK   10  A    between atoms: C_22  and  C_23
REMARK                            x       y       z     vdW  Elec       q    Type
REMARK                         _______ _______ _______ _____ _____    ______ ____
ROOT
ATOM      1  C   UNL     1       2.602   3.384  18.333  0.00  0.00    +0.000 A 
ATOM      2  C   UNL     1       2.478   2.092  18.871  0.00  0.00    +0.000 A 
ATOM      3  C   UNL     1       1.654   1.862  19.973  0.00  0.00    +0.000 A 
ATOM      4  C   UNL     1       0.969   2.923  20.557  0.00  0.00    +0.000 A 
ATOM      5  C   UNL     1       1.053   4.204  20.001  0.00  0.00    +0.000 A 
ATOM      6  C   UNL     1       1.836   4.434  18.859  0.00  0.00    +0.000 A 
ENDROOT
BRANCH   1   8
ATOM      7  N   UNL     1       4.726   4.134  17.315  0.00  0.00    +0.000 NA
ATOM      8  C   UNL     1       3.579   3.527  17.224  0.00  0.00    +0.000 C 
BRANCH   7  10
ATOM      9  N   UNL     1       6.621   4.801  15.980  0.00  0.00    +0.000 N 
ATOM     10  C   UNL     1       5.432   4.108  16.142  0.00  0.00    +0.000 A 
ATOM     11  N   UNL     1       5.136   3.483  15.016  0.00  0.00    +0.000 NA
ATOM     12  C   UNL     1       6.035   3.915  14.079  0.00  0.00    +0.000 A 
ATOM     13  C   UNL     1       6.116   3.607  12.712  0.00  0.00    +0.000 A 
ATOM     14  C   UNL     1       7.080   4.253  11.930  0.00  0.00    +0.000 A 
ATOM     15  C   UNL     1       7.957   5.175  12.504  0.00  0.00    +0.000 A 
ATOM     16  C   UNL     1       7.920   5.458  13.875  0.00  0.00    +0.000 A 
ATOM     17  C   UNL     1       6.943   4.803  14.638  0.00  0.00    +0.000 A 
BRANCH   9  18
ATOM     18  C   UNL     1       7.374   5.466  17.019  0.00  0.00    +0.000 C 
BRANCH  18  19
ATOM     19  C   UNL     1       7.226   6.994  17.093  0.00  0.00    +0.000 C 
BRANCH  19  21
ATOM     20  C   UNL     1       8.206   9.236  17.963  0.00  0.00    +0.000 C 
ATOM     21  C   UNL     1       8.062   7.733  18.149  0.00  0.00    +0.000 C 
ENDBRANCH  19  21
ENDBRANCH  18  19
ENDBRANCH   9  18
ENDBRANCH   7  10
ENDBRANCH   1   8
BRANCH   6  22
ATOM     22  N   UNL     1       1.766   5.699  18.195  0.00  0.00    +0.000 N 
ATOM     23  H   UNL     1       0.813   6.060  18.065  0.00  0.00    +0.000 HD
BRANCH  22  24
ATOM     24  S   UNL     1       2.810   6.933  18.709  0.00  0.00    +0.000 S 
ATOM     25  O   UNL     1       3.746   6.377  19.665  0.00  0.00    +0.000 OA
ATOM     26  O   UNL     1       3.282   7.591  17.511  0.00  0.00    +0.000 OA
BRANCH  24  27
ATOM     27  C   UNL     1       1.758   8.071  19.592  0.00  0.00    +0.000 A 
ATOM     28  C   UNL     1       1.304   9.236  18.963  0.00  0.00    +0.000 A 
ATOM     29  C   UNL     1       0.640  10.209  19.710  0.00  0.00    +0.000 A 
ATOM     30  C   UNL     1       0.421  10.019  21.080  0.00  0.00    +0.000 A 
ATOM     31  C   UNL     1      -0.142  11.125  21.924  0.00  0.00    +0.000 C 
ATOM     32  C   UNL     1       0.757   8.789  21.663  0.00  0.00    +0.000 A 
ATOM     33  C   UNL     1       1.427   7.812  20.923  0.00  0.00    +0.000 A 
ENDBRANCH  24  27
ENDBRANCH  22  24
ENDBRANCH   6  22
TORSDOF 8
ENDMDL
MODEL 3
REMARK VINA RESULT:      -8.1      3.782      6.926
REMARK  Name = 
REMARK  10 active torsions:
REMARK  status: ('A' for Active; 'I' for Inactive)
REMARK    1  A    between atoms: C_1  and  C_2
REMARK    2  A    between atoms: C_2  and  C_3
REMARK    3  A    between atoms: C_3  and  C_4
REMARK    4  A    between atoms: C_4  and  N_5
REMARK    5  A    between atoms: C_6  and  N_7
REMARK    6  A    between atoms: C_8  and  C_9
REMARK    7  A    between atoms: C_14  and  N_15
REMARK    8  A    between atoms: N_15  and  S_16
REMARK    9  A    between atoms: S_16  and  C_19
REMARK   10  A    between atoms: C_22  and  C_23
REMARK                            x       y       z     vdW  Elec       q    Type
REMARK                         _______ _______ _______ _____ _____    ______ ____
ROOT
ATOM      1  C   UNL     1       0.326   9.941  21.151  0.00  0.00    +0.000 A 
ATOM      2  C   UNL     1      -0.212   9.377  22.319  0.00  0.00    +0.000 A 
ATOM      3  C   UNL     1      -0.943  10.164  23.212  0.00  0.00    +0.000 A 
ATOM      4  C   UNL     1      -1.118  11.520  22.953  0.00  0.00    +0.000 A 
ATOM      5  C   UNL     1      -0.623  12.079  21.770  0.00  0.00    +0.000 A 
ATOM      6  C   UNL     1       0.065  11.284  20.841  0.00  0.00    +0.000 A 
ENDROOT
BRANCH   1   8
ATOM      7  N   UNL     1       1.407   7.787  20.602  0.00  0.00    +0.000 NA
ATOM      8  C   UNL     1       1.164   9.034  20.327  0.00  0.00    +0.000 C 
BRANCH   7  10
ATOM      9  N   UNL     1       2.647   5.878  19.805  0.00  0.00    +0.000 N 
ATOM     10  C   UNL     1       2.203   7.184  19.666  0.00  0.00    +0.000 A 
ATOM     11  N   UNL     1       2.681   7.689  18.542  0.00  0.00    +0.000 NA
ATOM     12  C   UNL     1       3.574   6.776  18.050  0.00  0.00    +0.000 A 
ATOM     13  C   UNL     1       4.400   6.857  16.918  0.00  0.00    +0.000 A 
ATOM     14  C   UNL     1       5.306   5.821  16.668  0.00  0.00    +0.000 A 
ATOM     15  C   UNL     1       5.376   4.718  17.520  0.00  0.00    +0.000 A 
ATOM     16  C   UNL     1       4.526   4.600  18.627  0.00  0.00    +0.000 A 
ATOM     17  C   UNL     1       3.630   5.651  18.862  0.00  0.00    +0.000 A 
BRANCH   9  18
ATOM     18  C   UNL     1       2.213   4.926  20.801  0.00  0.00    +0.000 C 
BRANCH  18  19
ATOM     19  C   UNL     1       0.969   4.094  20.450  0.00  0.00    +0.000 C 
BRANCH  19  21
ATOM     20  C   UNL     1       1.838   1.986  19.209  0.00  0.00    +0.000 C 
ATOM     21  C   UNL     1       1.017   3.265  19.158  0.00  0.00    +0.000 C 
ENDBRANCH  19  21
ENDBRANCH  18  19
ENDBRANCH   9  18
ENDBRANCH   7  10
ENDBRANCH   1   8
BRANCH   6  22
ATOM     22  N   UNL     1       0.401  11.823  19.559  0.00  0.00    +0.000 N 
ATOM     23  H   UNL     1      -0.381  12.270  19.066  0.00  0.00    +0.000 HD
BRANCH  22  24
ATOM     24  S   UNL     1       1.808  12.761  19.428  0.00  0.00    +0.000 S 
ATOM     25  O   UNL     1       2.409  12.878  20.741  0.00  0.00    +0.000 OA
ATOM     26  O   UNL     1       2.559  12.215  18.319  0.00  0.00    +0.000 OA
BRANCH  24  27
ATOM     27  C   UNL     1       1.225  14.381  18.961  0.00  0.00    +0.000 A 
ATOM     28  C   UNL     1       2.134  15.356  18.534  0.00  0.00    +0.000 A 
ATOM     29  C   UNL     1       1.701  16.669  18.351  0.00  0.00    +0.000 A 
ATOM     30  C   UNL     1       0.363  17.009  18.584  0.00  0.00    +0.000 A 
ATOM     31  C   UNL     1      -0.078  18.444  18.550  0.00  0.00    +0.000 C 
ATOM     32  C   UNL     1      -0.562  15.996  18.874  0.00  0.00    +0.000 A 
ATOM     33  C   UNL     1      -0.134  14.680  19.065  0.00  0.00    +0.000 A 
ENDBRANCH  24  27
ENDBRANCH  22  24
ENDBRANCH   6  22
TORSDOF 8
ENDMDL
MODEL 4
REMARK VINA RESULT:      -7.9      2.196      8.406
REMARK  Name = 
REMARK  10 active torsions:
REMARK  status: ('A' for Active; 'I' for Inactive)
REMARK    1  A    between atoms: C_1  and  C_2
REMARK    2  A    between atoms: C_2  and  C_3
REMARK    3  A    between atoms: C_3  and  C_4
REMARK    4  A    between atoms: C_4  and  N_5
REMARK    5  A    between atoms: C_6  and  N_7
REMARK    6  A    between atoms: C_8  and  C_9
REMARK    7  A    between atoms: C_14  and  N_15
REMARK    8  A    between atoms: N_15  and  S_16
REMARK    9  A    between atoms: S_16  and  C_19
REMARK   10  A    between atoms: C_22  and  C_23
REMARK                            x       y       z     vdW  Elec       q    Type
REMARK                         _______ _______ _______ _____ _____    ______ ____
ROOT
ATOM      1  C   UNL     1       1.661   4.850  20.414  0.00  0.00    +0.000 A 
ATOM      2  C   UNL     1       1.651   3.886  21.436  0.00  0.00    +0.000 A 
ATOM      3  C   UNL     1       2.092   2.585  21.183  0.00  0.00    +0.000 A 
ATOM      4  C   UNL     1       2.521   2.237  19.907  0.00  0.00    +0.000 A 
ATOM      5  C   UNL     1       2.574   3.202  18.896  0.00  0.00    +0.000 A 
ATOM      6  C   UNL     1       2.186   4.525  19.155  0.00  0.00    +0.000 A 
ENDROOT
BRANCH   1   8
ATOM      7  N   UNL     1       1.696   7.309  20.660  0.00  0.00    +0.000 NA
ATOM      8  C   UNL     1       1.081   6.169  20.771  0.00  0.00    +0.000 C 
BRANCH   7  10
ATOM      9  N   UNL     1       0.785   9.509  20.275  0.00  0.00    +0.000 N 
ATOM     10  C   UNL     1       0.922   8.368  21.050  0.00  0.00    +0.000 A 
ATOM     11  N   UNL     1       0.220   8.511  22.161  0.00  0.00    +0.000 NA
ATOM     12  C   UNL     1      -0.220   9.806  22.185  0.00  0.00    +0.000 A 
ATOM     13  C   UNL     1      -0.950  10.482  23.175  0.00  0.00    +0.000 A 
ATOM     14  C   UNL     1      -1.206  11.848  23.009  0.00  0.00    +0.000 A 
ATOM     15  C   UNL     1      -0.759  12.522  21.872  0.00  0.00    +0.000 A 
ATOM     16  C   UNL     1      -0.071  11.851  20.853  0.00  0.00    +0.000 A 
ATOM     17  C   UNL     1       0.180  10.485  21.041  0.00  0.00    +0.000 A 
BRANCH   9  18
ATOM     18  C   UNL     1       1.248   9.684  18.917  0.00  0.00    +0.000 C 
BRANCH  18  19
ATOM     19  C   UNL     1       0.227   9.390  17.808  0.00  0.00    +0.000 C 
BRANCH  19  21
ATOM     20  C   UNL     1      -2.339   9.786  17.753  0.00  0.00    +0.000 C 
ATOM     21  C   UNL     1      -0.940  10.375  17.644  0.00  0.00    +0.000 C 
ENDBRANCH  19  21
ENDBRANCH  18  19
ENDBRANCH   9  18
ENDBRANCH   7  10
ENDBRANCH   1   8
BRANCH   6  22
ATOM     22  N   UNL     1       2.421   5.538  18.172  0.00  0.00    +0.000 N 
ATOM     23  H   UNL     1       1.703   6.272  18.136  0.00  0.00    +0.000 HD
BRANCH  22  24
ATOM     24  S   UNL     1       3.974   6.214  18.072  0.00  0.00    +0.000 S 
ATOM     25  O   UNL     1       3.843   7.641  17.855  0.00  0.00    +0.000 OA
ATOM     26  O   UNL     1       4.712   5.703  19.206  0.00  0.00    +0.000 OA
BRANCH  24  27
ATOM     27  C   UNL     1       4.674   5.510  16.589  0.00  0.00    +0.000 A 
ATOM     28  C   UNL     1       4.874   4.128  16.498  0.00  0.00    +0.000 A 
ATOM     29  C   UNL     1       5.589   3.605  15.421  0.00  0.00    +0.000 A 
ATOM     30  C   UNL     1       6.096   4.456  14.431  0.00  0.00    +0.000 A 
ATOM     31  C   UNL     1       7.003   3.925  13.359  0.00  0.00    +0.000 C 
ATOM     32  C   UNL     1       5.766   5.818  14.463  0.00  0.00    +0.000 A 
ATOM     33  C   UNL     1       5.056   6.350  15.542  0.00  0.00    +0.000 A 
ENDBRANCH  24  27
ENDBRANCH  22  24
ENDBRANCH   6  22
TORSDOF 8
ENDMDL
MODEL 5
REMARK VINA RESULT:      -7.8      1.198      1.394
REMARK  Name = 
REMARK  10 active torsions:
REMARK  status: ('A' for Active; 'I' for Inactive)
REMARK    1  A    between atoms: C_1  and  C_2
REMARK    2  A    between atoms: C_2  and  C_3
REMARK    3  A    between atoms: C_3  and  C_4
REMARK    4  A    between atoms: C_4  and  N_5
REMARK    5  A    between atoms: C_6  and  N_7
REMARK    6  A    between atoms: C_8  and  C_9
REMARK    7  A    between atoms: C_14  and  N_15
REMARK    8  A    between atoms: N_15  and  S_16
REMARK    9  A    between atoms: S_16  and  C_19
REMARK   10  A    between atoms: C_22  and  C_23
REMARK                            x       y       z     vdW  Elec       q    Type
REMARK                         _______ _______ _______ _____ _____    ______ ____
ROOT
ATOM      1  C   UNL     1       2.585   3.426  18.124  0.00  0.00    +0.000 A 
ATOM      2  C   UNL     1       2.396   2.136  18.648  0.00  0.00    +0.000 A 
ATOM      3  C   UNL     1       1.572   1.938  19.757  0.00  0.00    +0.000 A 
ATOM      4  C   UNL     1       0.952   3.027  20.360  0.00  0.00    +0.000 A 
ATOM      5  C   UNL     1       1.100   4.308  19.818  0.00  0.00    +0.000 A 
ATOM      6  C   UNL     1       1.882   4.509  18.671  0.00  0.00    +0.000 A 
ENDROOT
BRANCH   1   8
ATOM      7  N   UNL     1       4.507   4.415  16.924  0.00  0.00    +0.000 NA
ATOM      8  C   UNL     1       3.557   3.530  17.007  0.00  0.00    +0.000 C 
BRANCH   7  10
ATOM      9  N   UNL     1       6.406   5.026  15.569  0.00  0.00    +0.000 N 
ATOM     10  C   UNL     1       5.262   4.275  15.792  0.00  0.00    +0.000 A 
ATOM     11  N   UNL     1       5.062   3.473  14.760  0.00  0.00    +0.000 NA
ATOM     12  C   UNL     1       5.967   3.833  13.800  0.00  0.00    +0.000 A 
ATOM     13  C   UNL     1       6.129   3.339  12.496  0.00  0.00    +0.000 A 
ATOM     14  C   UNL     1       7.079   3.938  11.660  0.00  0.00    +0.000 A 
ATOM     15  C   UNL     1       7.862   4.997  12.121  0.00  0.00    +0.000 A 
ATOM     16  C   UNL     1       7.745   5.470  13.434  0.00  0.00    +0.000 A 
ATOM     17  C   UNL     1       6.785   4.860  14.252  0.00  0.00    +0.000 A 
BRANCH   9  18
ATOM     18  C   UNL     1       7.064   5.890  16.523  0.00  0.00    +0.000 C 
BRANCH  18  19
ATOM     19  C   UNL     1       7.630   5.209  17.779  0.00  0.00    +0.000 C 
BRANCH  19  21
ATOM     20  C   UNL     1       8.246   5.405  20.294  0.00  0.00    +0.000 C 
ATOM     21  C   UNL     1       7.977   6.111  18.973  0.00  0.00    +0.000 C 
ENDBRANCH  19  21
ENDBRANCH  18  19
ENDBRANCH   9  18
ENDBRANCH   7  10
ENDBRANCH   1   8
BRANCH   6  22
ATOM     22  N   UNL     1       1.874   5.785  18.022  0.00  0.00    +0.000 N 
ATOM     23  H   UNL     1       0.940   6.192  17.895  0.00  0.00    +0.000 HD
BRANCH  22  24
ATOM     24  S   UNL     1       2.973   6.962  18.555  0.00  0.00    +0.000 S 
ATOM     25  O   UNL     1       3.747   6.409  19.649  0.00  0.00    +0.000 OA
ATOM     26  O   UNL     1       3.629   7.470  17.370  0.00  0.00    +0.000 OA
BRANCH  24  27
ATOM     27  C   UNL     1       1.950   8.260  19.226  0.00  0.00    +0.000 A 
ATOM     28  C   UNL     1       1.576   8.229  20.574  0.00  0.00    +0.000 A 
ATOM     29  C   UNL     1       0.630   9.138  21.048  0.00  0.00    +0.000 A 
ATOM     30  C   UNL     1       0.063  10.081  20.182  0.00  0.00    +0.000 A 
ATOM     31  C   UNL     1      -1.072  10.952  20.638  0.00  0.00    +0.000 C 
ATOM     32  C   UNL     1       0.551  10.190  18.872  0.00  0.00    +0.000 A 
ATOM     33  C   UNL     1       1.494   9.279  18.389  0.00  0.00    +0.000 A 
ENDBRANCH  24  27
ENDBRANCH  22  24
ENDBRANCH   6  22
TORSDOF 8
ENDMDL
MODEL 6
REMARK VINA RESULT:      -7.8      2.450      8.470
REMARK  Name = 
REMARK  10 active torsions:
REMARK  status: ('A' for Active; 'I' for Inactive)
REMARK    1  A    between atoms: C_1  and  C_2
REMARK    2  A    between atoms: C_2  and  C_3
REMARK    3  A    between atoms: C_3  and  C_4
REMARK    4  A    between atoms: C_4  and  N_5
REMARK    5  A    between atoms: C_6  and  N_7
REMARK    6  A    between atoms: C_8  and  C_9
REMARK    7  A    between atoms: C_14  and  N_15
REMARK    8  A    between atoms: N_15  and  S_16
REMARK    9  A    between atoms: S_16  and  C_19
REMARK   10  A    between atoms: C_22  and  C_23
REMARK                            x       y       z     vdW  Elec       q    Type
REMARK                         _______ _______ _______ _____ _____    ______ ____
ROOT
ATOM      1  C   UNL     1       2.358   6.439  19.410  0.00  0.00    +0.000 A 
ATOM      2  C   UNL     1       1.776   5.797  20.516  0.00  0.00    +0.000 A 
ATOM      3  C   UNL     1       1.779   4.404  20.607  0.00  0.00    +0.000 A 
ATOM      4  C   UNL     1       2.341   3.647  19.584  0.00  0.00    +0.000 A 
ATOM      5  C   UNL     1       2.960   4.279  18.501  0.00  0.00    +0.000 A 
ATOM      6  C   UNL     1       3.011   5.680  18.429  0.00  0.00    +0.000 A 
ENDROOT
BRANCH   1   8
ATOM      7  N   UNL     1       1.449   8.569  18.545  0.00  0.00    +0.000 NA
ATOM      8  C   UNL     1       2.210   7.916  19.373  0.00  0.00    +0.000 C 
BRANCH   7  10
ATOM      9  N   UNL     1       0.598  10.583  19.564  0.00  0.00    +0.000 N 
ATOM     10  C   UNL     1       1.497   9.923  18.740  0.00  0.00    +0.000 A 
ATOM     11  N   UNL     1       2.330  10.803  18.213  0.00  0.00    +0.000 NA
ATOM     12  C   UNL     1       1.859  12.042  18.552  0.00  0.00    +0.000 A 
ATOM     13  C   UNL     1       2.341  13.310  18.189  0.00  0.00    +0.000 A 
ATOM     14  C   UNL     1       1.627  14.444  18.590  0.00  0.00    +0.000 A 
ATOM     15  C   UNL     1       0.465  14.318  19.353  0.00  0.00    +0.000 A 
ATOM     16  C   UNL     1      -0.002  13.063  19.764  0.00  0.00    +0.000 A 
ATOM     17  C   UNL     1       0.725  11.940  19.346  0.00  0.00    +0.000 A 
BRANCH   9  18
ATOM     18  C   UNL     1      -0.359   9.968  20.456  0.00  0.00    +0.000 C 
BRANCH  18  19
ATOM     19  C   UNL     1       0.185   9.493  21.812  0.00  0.00    +0.000 C 
BRANCH  19  21
ATOM     20  C   UNL     1      -1.279  11.317  22.940  0.00  0.00    +0.000 C 
ATOM     21  C   UNL     1      -0.528  10.001  23.074  0.00  0.00    +0.000 C 
ENDBRANCH  19  21
ENDBRANCH  18  19
ENDBRANCH   9  18
ENDBRANCH   7  10
ENDBRANCH   1   8
BRANCH   6  22
ATOM     22  N   UNL     1       3.805   6.309  17.418  0.00  0.00    +0.000 N 
ATOM     23  H   UNL     1       3.553   7.286  17.226  0.00  0.00    +0.000 HD
BRANCH  22  24
ATOM     24  S   UNL     1       5.489   6.126  17.493  0.00  0.00    +0.000 S 
ATOM     25  O   UNL     1       6.101   7.433  17.360  0.00  0.00    +0.000 OA
ATOM     26  O   UNL     1       5.757   5.300  18.649  0.00  0.00    +0.000 OA
BRANCH  24  27
ATOM     27  C   UNL     1       5.904   5.191  16.031  0.00  0.00    +0.000 A 
ATOM     28  C   UNL     1       7.109   5.437  15.363  0.00  0.00    +0.000 A 
ATOM     29  C   UNL     1       7.344   4.840  14.124  0.00  0.00    +0.000 A 
ATOM     30  C   UNL     1       6.384   3.995  13.555  0.00  0.00    +0.000 A 
ATOM     31  C   UNL     1       6.552   3.480  12.155  0.00  0.00    +0.000 C 
ATOM     32  C   UNL     1       5.247   3.650  14.300  0.00  0.00    +0.000 A 
ATOM     33  C   UNL     1       5.002   4.248  15.539  0.00  0.00    +0.000 A 
ENDBRANCH  24  27
ENDBRANCH  22  24
ENDBRANCH   6  22
TORSDOF 8
ENDMDL
MODEL 7
REMARK VINA RESULT:      -7.8      3.301      6.024
REMARK  Name = 
REMARK  10 active torsions:
REMARK  status: ('A' for Active; 'I' for Inactive)
REMARK    1  A    between atoms: C_1  and  C_2
REMARK    2  A    between atoms: C_2  and  C_3
REMARK    3  A    between atoms: C_3  and  C_4
REMARK    4  A    between atoms: C_4  and  N_5
REMARK    5  A    between atoms: C_6  and  N_7
REMARK    6  A    between atoms: C_8  and  C_9
REMARK    7  A    between atoms: C_14  and  N_15
REMARK    8  A    between atoms: N_15  and  S_16
REMARK    9  A    between atoms: S_16  and  C_19
REMARK   10  A    between atoms: C_22  and  C_23
REMARK                            x       y       z     vdW  Elec       q    Type
REMARK                         _______ _______ _______ _____ _____    ______ ____
ROOT
ATOM      1  C   UNL     1       0.737   9.259  20.861  0.00  0.00    +0.000 A 
ATOM      2  C   UNL     1       0.035   8.481  21.797  0.00  0.00    +0.000 A 
ATOM      3  C   UNL     1      -0.665   9.091  22.839  0.00  0.00    +0.000 A 
ATOM      4  C   UNL     1      -0.648  10.477  22.965  0.00  0.00    +0.000 A 
ATOM      5  C   UNL     1       0.013  11.260  22.013  0.00  0.00    +0.000 A 
ATOM      6  C   UNL     1       0.673  10.658  20.931  0.00  0.00    +0.000 A 
ENDROOT
BRANCH   1   8
ATOM      7  N   UNL     1       1.954   7.284  20.009  0.00  0.00    +0.000 NA
ATOM      8  C   UNL     1       1.523   8.501  19.856  0.00  0.00    +0.000 C 
BRANCH   7  10
ATOM      9  N   UNL     1       2.588   5.502  18.512  0.00  0.00    +0.000 N 
ATOM     10  C   UNL     1       2.643   6.826  18.919  0.00  0.00    +0.000 A 
ATOM     11  N   UNL     1       3.447   7.495  18.110  0.00  0.00    +0.000 NA
ATOM     12  C   UNL     1       4.046   6.572  17.299  0.00  0.00    +0.000 A 
ATOM     13  C   UNL     1       5.029   6.755  16.313  0.00  0.00    +0.000 A 
ATOM     14  C   UNL     1       5.559   5.630  15.671  0.00  0.00    +0.000 A 
ATOM     15  C   UNL     1       5.105   4.350  15.993  0.00  0.00    +0.000 A 
ATOM     16  C   UNL     1       4.092   4.154  16.940  0.00  0.00    +0.000 A 
ATOM     17  C   UNL     1       3.580   5.294  17.574  0.00  0.00    +0.000 A 
BRANCH   9  18
ATOM     18  C   UNL     1       1.695   4.485  19.020  0.00  0.00    +0.000 C 
BRANCH  18  19
ATOM     19  C   UNL     1       2.191   3.692  20.239  0.00  0.00    +0.000 C 
BRANCH  19  21
ATOM     20  C   UNL     1       4.403   2.343  20.060  0.00  0.00    +0.000 C 
ATOM     21  C   UNL     1       2.884   2.348  19.971  0.00  0.00    +0.000 C 
ENDBRANCH  19  21
ENDBRANCH  18  19
ENDBRANCH   9  18
ENDBRANCH   7  10
ENDBRANCH   1   8
BRANCH   6  22
ATOM     22  N   UNL     1       1.182  11.473  19.870  0.00  0.00    +0.000 N 
ATOM     23  H   UNL     1       1.528  10.947  19.058  0.00  0.00    +0.000 HD
BRANCH  22  24
ATOM     24  S   UNL     1       0.262  12.808  19.372  0.00  0.00    +0.000 S 
ATOM     25  O   UNL     1       0.095  13.701  20.501  0.00  0.00    +0.000 OA
ATOM     26  O   UNL     1       0.860  13.277  18.142  0.00  0.00    +0.000 OA
BRANCH  24  27
ATOM     27  C   UNL     1      -1.342  12.128  18.987  0.00  0.00    +0.000 A 
ATOM     28  C   UNL     1      -1.482  11.221  17.930  0.00  0.00    +0.000 A 
ATOM     29  C   UNL     1      -2.757  10.838  17.515  0.00  0.00    +0.000 A 
ATOM     30  C   UNL     1      -3.892  11.350  18.158  0.00  0.00    +0.000 A 
ATOM     31  C   UNL     1      -5.265  11.076  17.617  0.00  0.00    +0.000 C 
ATOM     32  C   UNL     1      -3.731  12.145  19.302  0.00  0.00    +0.000 A 
ATOM     33  C   UNL     1      -2.457  12.538  19.719  0.00  0.00    +0.000 A 
ENDBRANCH  24  27
ENDBRANCH  22  24
ENDBRANCH   6  22
TORSDOF 8
ENDMDL
MODEL 8
REMARK VINA RESULT:      -7.8      3.424      6.470
REMARK  Name = 
REMARK  10 active torsions:
REMARK  status: ('A' for Active; 'I' for Inactive)
REMARK    1  A    between atoms: C_1  and  C_2
REMARK    2  A    between atoms: C_2  and  C_3
REMARK    3  A    between atoms: C_3  and  C_4
REMARK    4  A    between atoms: C_4  and  N_5
REMARK    5  A    between atoms: C_6  and  N_7
REMARK    6  A    between atoms: C_8  and  C_9
REMARK    7  A    between atoms: C_14  and  N_15
REMARK    8  A    between atoms: N_15  and  S_16
REMARK    9  A    between atoms: S_16  and  C_19
REMARK   10  A    between atoms: C_22  and  C_23
REMARK                            x       y       z     vdW  Elec       q    Type
REMARK                         _______ _______ _______ _____ _____    ______ ____
ROOT
ATOM      1  C   UNL     1       0.350   9.419  21.049  0.00  0.00    +0.000 A 
ATOM      2  C   UNL     1       0.452   9.109  22.415  0.00  0.00    +0.000 A 
ATOM      3  C   UNL     1      -0.237   9.867  23.365  0.00  0.00    +0.000 A 
ATOM      4  C   UNL     1      -1.009  10.949  22.956  0.00  0.00    +0.000 A 
ATOM      5  C   UNL     1      -1.151  11.237  21.594  0.00  0.00    +0.000 A 
ATOM      6  C   UNL     1      -0.507  10.448  20.630  0.00  0.00    +0.000 A 
ENDROOT
BRANCH   1   8
ATOM      7  N   UNL     1       1.884   7.561  20.496  0.00  0.00    +0.000 NA
ATOM      8  C   UNL     1       1.201   8.609  20.141  0.00  0.00    +0.000 C 
BRANCH   7  10
ATOM      9  N   UNL     1       2.971   5.673  19.462  0.00  0.00    +0.000 N 
ATOM     10  C   UNL     1       2.572   7.000  19.455  0.00  0.00    +0.000 A 
ATOM     11  N   UNL     1       2.975   7.569  18.331  0.00  0.00    +0.000 NA
ATOM     12  C   UNL     1       3.784   6.664  17.701  0.00  0.00    +0.000 A 
ATOM     13  C   UNL     1       4.514   6.798  16.510  0.00  0.00    +0.000 A 
ATOM     14  C   UNL     1       5.353   5.751  16.110  0.00  0.00    +0.000 A 
ATOM     15  C   UNL     1       5.447   4.587  16.873  0.00  0.00    +0.000 A 
ATOM     16  C   UNL     1       4.689   4.418  18.039  0.00  0.00    +0.000 A 
ATOM     17  C   UNL     1       3.860   5.481  18.424  0.00  0.00    +0.000 A 
BRANCH   9  18
ATOM     18  C   UNL     1       2.582   4.666  20.423  0.00  0.00    +0.000 C 
BRANCH  18  19
ATOM     19  C   UNL     1       1.113   4.219  20.382  0.00  0.00    +0.000 C 
BRANCH  19  21
ATOM     20  C   UNL     1       1.450   2.512  18.455  0.00  0.00    +0.000 C 
ATOM     21  C   UNL     1       0.814   2.829  19.800  0.00  0.00    +0.000 C 
ENDBRANCH  19  21
ENDBRANCH  18  19
ENDBRANCH   9  18
ENDBRANCH   7  10
ENDBRANCH   1   8
BRANCH   6  22
ATOM     22  N   UNL     1      -0.807  10.637  19.243  0.00  0.00    +0.000 N 
ATOM     23  H   UNL     1      -1.473   9.958  18.856  0.00  0.00    +0.000 HD
BRANCH  22  24
ATOM     24  S   UNL     1      -1.169  12.205  18.709  0.00  0.00    +0.000 S 
ATOM     25  O   UNL     1      -1.636  12.129  17.339  0.00  0.00    +0.000 OA
ATOM     26  O   UNL     1      -1.990  12.805  19.737  0.00  0.00    +0.000 OA
BRANCH  24  27
ATOM     27  C   UNL     1       0.405  13.047  18.691  0.00  0.00    +0.000 A 
ATOM     28  C   UNL     1       0.458  14.433  18.875  0.00  0.00    +0.000 A 
ATOM     29  C   UNL     1       1.662  15.109  18.675  0.00  0.00    +0.000 A 
ATOM     30  C   UNL     1       2.813  14.404  18.302  0.00  0.00    +0.000 A 
ATOM     31  C   UNL     1       4.068  15.136  17.925  0.00  0.00    +0.000 C 
ATOM     32  C   UNL     1       2.775  13.003  18.259  0.00  0.00    +0.000 A 
ATOM     33  C   UNL     1       1.571  12.320  18.451  0.00  0.00    +0.000 A 
ENDBRANCH  24  27
ENDBRANCH  22  24
ENDBRANCH   6  22
TORSDOF 8
ENDMDL
MODEL 9
REMARK VINA RESULT:      -7.6      3.008      6.214
REMARK  Name = 
REMARK  10 active torsions:
REMARK  status: ('A' for Active; 'I' for Inactive)
REMARK    1  A    between atoms: C_1  and  C_2
REMARK    2  A    between atoms: C_2  and  C_3
REMARK    3  A    between atoms: C_3  and  C_4
REMARK    4  A    between atoms: C_4  and  N_5
REMARK    5  A    between atoms: C_6  and  N_7
REMARK    6  A    between atoms: C_8  and  C_9
REMARK    7  A    between atoms: C_14  and  N_15
REMARK    8  A    between atoms: N_15  and  S_16
REMARK    9  A    between atoms: S_16  and  C_19
REMARK   10  A    between atoms: C_22  and  C_23
REMARK                            x       y       z     vdW  Elec       q    Type
REMARK                         _______ _______ _______ _____ _____    ______ ____
ROOT
ATOM      1  C   UNL     1       1.444  10.268  18.772  0.00  0.00    +0.000 A 
ATOM      2  C   UNL     1       2.362  11.064  18.068  0.00  0.00    +0.000 A 
ATOM      3  C   UNL     1       2.146  12.437  17.930  0.00  0.00    +0.000 A 
ATOM      4  C   UNL     1       1.003  13.014  18.473  0.00  0.00    +0.000 A 
ATOM      5  C   UNL     1       0.106  12.235  19.213  0.00  0.00    +0.000 A 
ATOM      6  C   UNL     1       0.344  10.865  19.403  0.00  0.00    +0.000 A 
ENDROOT
BRANCH   1   8
ATOM      7  N   UNL     1       2.752   8.248  18.202  0.00  0.00    +0.000 NA
ATOM      8  C   UNL     1       1.726   8.810  18.771  0.00  0.00    +0.000 C 
BRANCH   7  10
ATOM      9  N   UNL     1       3.569   6.062  17.593  0.00  0.00    +0.000 N 
ATOM     10  C   UNL     1       2.769   6.890  18.366  0.00  0.00    +0.000 A 
ATOM     11  N   UNL     1       2.072   6.152  19.213  0.00  0.00    +0.000 NA
ATOM     12  C   UNL     1       2.286   4.847  18.866  0.00  0.00    +0.000 A 
ATOM     13  C   UNL     1       1.730   3.677  19.407  0.00  0.00    +0.000 A 
ATOM     14  C   UNL     1       2.038   2.446  18.815  0.00  0.00    +0.000 A 
ATOM     15  C   UNL     1       2.897   2.382  17.718  0.00  0.00    +0.000 A 
ATOM     16  C   UNL     1       3.498   3.535  17.196  0.00  0.00    +0.000 A 
ATOM     17  C   UNL     1       3.171   4.757  17.800  0.00  0.00    +0.000 A 
BRANCH   9  18
ATOM     18  C   UNL     1       4.602   6.483  16.674  0.00  0.00    +0.000 C 
BRANCH  18  19
ATOM     19  C   UNL     1       5.912   6.979  17.306  0.00  0.00    +0.000 C 
BRANCH  19  21
ATOM     20  C   UNL     1       7.032   4.640  17.440  0.00  0.00    +0.000 C 
ATOM     21  C   UNL     1       7.166   6.116  17.098  0.00  0.00    +0.000 C 
ENDBRANCH  19  21
ENDBRANCH  18  19
ENDBRANCH   9  18
ENDBRANCH   7  10
ENDBRANCH   1   8
BRANCH   6  22
ATOM     22  N   UNL     1      -0.476  10.123  20.312  0.00  0.00    +0.000 N 
ATOM     23  H   UNL     1      -0.674   9.160  20.017  0.00  0.00    +0.000 HD
BRANCH  22  24
ATOM     24  S   UNL     1      -0.095  10.179  21.964  0.00  0.00    +0.000 S 
ATOM     25  O   UNL     1      -0.627   8.991  22.600  0.00  0.00    +0.000 OA
ATOM     26  O   UNL     1       1.314  10.493  22.045  0.00  0.00    +0.000 OA
BRANCH  24  27
ATOM     27  C   UNL     1      -1.014  11.576  22.588  0.00  0.00    +0.000 A 
ATOM     28  C   UNL     1      -2.253  11.377  23.206  0.00  0.00    +0.000 A 
ATOM     29  C   UNL     1      -3.049  12.478  23.523  0.00  0.00    +0.000 A 
ATOM     30  C   UNL     1      -2.607  13.775  23.233  0.00  0.00    +0.000 A 
ATOM     31  C   UNL     1      -3.520  14.952  23.417  0.00  0.00    +0.000 C 
ATOM     32  C   UNL     1      -1.306  13.962  22.744  0.00  0.00    +0.000 A 
ATOM     33  C   UNL     1      -0.506  12.865  22.418  0.00  0.00    +0.000 A 
ENDBRANCH  24  27
ENDBRANCH  22  24
ENDBRANCH   6  22
TORSDOF 8
ENDMDL
