MODEL 1
REMARK VINA RESULT:      -9.2      0.000      0.000
REMARK  Name = 
REMARK  4 active torsions:
REMARK  status: ('A' for Active; 'I' for Inactive)
REMARK    1  A    between atoms: C_2  and  C_20
REMARK    2  A    between atoms: C_6  and  C_7
REMARK    3  A    between atoms: C_11  and  C_12
REMARK    4  A    between atoms: C_23  and  N_24
REMARK                            x       y       z     vdW  Elec       q    Type
REMARK                         _______ _______ _______ _____ _____    ______ ____
ROOT
ATOM      1  O   UNL     1       2.079   9.037  19.443  0.00  0.00    +0.000 OA
ATOM      2  C   UNL     1       1.445   8.592  20.391  0.00  0.00    +0.000 C 
ATOM      3  N   UNL     1       1.452   7.306  20.880  0.00  0.00    +0.000 N 
ATOM      4  C   UNL     1       2.281   6.348  20.375  0.00  0.00    +0.000 A 
ATOM      5  N   UNL     1       3.301   6.476  19.572  0.00  0.00    +0.000 NA
ATOM      6  C   UNL     1       3.868   5.235  19.340  0.00  0.00    +0.000 A 
ATOM      7  C   UNL     1       3.193   4.178  19.923  0.00  0.00    +0.000 A 
ATOM      8  S   UNL     1       1.910   4.768  20.898  0.00  0.00    +0.000 S 
ATOM      9  H   UNL     1       0.764   6.998  21.549  0.00  0.00    +0.000 HD
ENDROOT
BRANCH   6  10
ATOM     10  C   UNL     1       5.082   5.116  18.546  0.00  0.00    +0.000 A 
ATOM     11  C   UNL     1       6.330   5.318  19.153  0.00  0.00    +0.000 A 
ATOM     12  C   UNL     1       7.511   5.157  18.425  0.00  0.00    +0.000 A 
ATOM     13  C   UNL     1       7.459   4.781  17.083  0.00  0.00    +0.000 A 
ATOM     14  C   UNL     1       6.223   4.563  16.460  0.00  0.00    +0.000 A 
ATOM     15  C   UNL     1       5.051   4.737  17.198  0.00  0.00    +0.000 A 
ATOM     16  F   UNL     1       3.879   4.497  16.589  0.00  0.00    +0.000 F 
BRANCH  14  17
ATOM     17  C   UNL     1       6.105   4.123  15.033  0.00  0.00    +0.000 C 
ATOM     18  F   UNL     1       5.151   4.807  14.338  0.00  0.00    +0.000 F 
ATOM     19  F   UNL     1       7.260   4.292  14.331  0.00  0.00    +0.000 F 
ATOM     20  F   UNL     1       5.774   2.808  14.911  0.00  0.00    +0.000 F 
ENDBRANCH  14  17
ENDBRANCH   6  10
BRANCH   2  21
ATOM     21  C   UNL     1       0.482   9.488  21.078  0.00  0.00    +0.000 A 
ATOM     22  C   UNL     1      -0.100  10.538  20.366  0.00  0.00    +0.000 A 
ATOM     23  C   UNL     1      -1.044  11.363  20.987  0.00  0.00    +0.000 A 
ATOM     24  C   UNL     1      -1.426  11.150  22.321  0.00  0.00    +0.000 A 
ATOM     25  C   UNL     1      -0.781  10.131  23.031  0.00  0.00    +0.000 A 
ATOM     26  C   UNL     1       0.159   9.299  22.422  0.00  0.00    +0.000 A 
BRANCH  24  27
ATOM     27  N   UNL     1      -2.424  11.962  22.881  0.00  0.00    +0.000 N 
ATOM     28  C   UNL     1      -2.324  13.166  23.588  0.00  0.00    +0.000 A 
ATOM     29  N   UNL     1      -1.213  13.919  23.536  0.00  0.00    +0.000 NA
ATOM     30  C   UNL     1      -1.191  15.020  24.309  0.00  0.00    +0.000 A 
ATOM     31  C   UNL     1      -2.233  15.368  25.126  0.00  0.00    +0.000 A 
ATOM     32  N   UNL     1      -3.339  14.615  25.153  0.00  0.00    +0.000 NA
ATOM     33  N   UNL     1      -3.382  13.500  24.364  0.00  0.00    +0.000 NA
ATOM     34  H   UNL     1      -3.285  11.501  23.140  0.00  0.00    +0.000 HD
ENDBRANCH  24  27
ENDBRANCH   2  21
TORSDOF 4
ENDMDL
MODEL 2
REMARK VINA RESULT:      -9.2      1.043      1.684
REMARK  Name = 
REMARK  4 active torsions:
REMARK  status: ('A' for Active; 'I' for Inactive)
REMARK    1  A    between atoms: C_2  and  C_20
REMARK    2  A    between atoms: C_6  and  C_7
REMARK    3  A    between atoms: C_11  and  C_12
REMARK    4  A    between atoms: C_23  and  N_24
REMARK                            x       y       z     vdW  Elec       q    Type
REMARK                         _______ _______ _______ _____ _____    ______ ____
ROOT
ATOM      1  O   UNL     1       2.098   9.047  19.514  0.00  0.00    +0.000 OA
ATOM      2  C   UNL     1       1.452   8.579  20.444  0.00  0.00    +0.000 C 
ATOM      3  N   UNL     1       1.443   7.280  20.894  0.00  0.00    +0.000 N 
ATOM      4  C   UNL     1       2.267   6.330  20.368  0.00  0.00    +0.000 A 
ATOM      5  N   UNL     1       3.295   6.472  19.576  0.00  0.00    +0.000 NA
ATOM      6  C   UNL     1       3.853   5.233  19.313  0.00  0.00    +0.000 A 
ATOM      7  C   UNL     1       3.164   4.165  19.858  0.00  0.00    +0.000 A 
ATOM      8  S   UNL     1       1.878   4.738  20.840  0.00  0.00    +0.000 S 
ATOM      9  H   UNL     1       0.747   6.958  21.548  0.00  0.00    +0.000 HD
ENDROOT
BRANCH   6  10
ATOM     10  C   UNL     1       5.073   5.126  18.525  0.00  0.00    +0.000 A 
ATOM     11  C   UNL     1       6.316   5.317  19.143  0.00  0.00    +0.000 A 
ATOM     12  C   UNL     1       7.502   5.167  18.421  0.00  0.00    +0.000 A 
ATOM     13  C   UNL     1       7.459   4.814  17.072  0.00  0.00    +0.000 A 
ATOM     14  C   UNL     1       6.227   4.607  16.437  0.00  0.00    +0.000 A 
ATOM     15  C   UNL     1       5.051   4.770  17.171  0.00  0.00    +0.000 A 
ATOM     16  F   UNL     1       3.882   4.541  16.550  0.00  0.00    +0.000 F 
BRANCH  14  17
ATOM     17  C   UNL     1       6.119   4.192  15.002  0.00  0.00    +0.000 C 
ATOM     18  F   UNL     1       5.182   4.900  14.308  0.00  0.00    +0.000 F 
ATOM     19  F   UNL     1       7.283   4.355  14.316  0.00  0.00    +0.000 F 
ATOM     20  F   UNL     1       5.770   2.883  14.856  0.00  0.00    +0.000 F 
ENDBRANCH  14  17
ENDBRANCH   6  10
BRANCH   2  21
ATOM     21  C   UNL     1       0.491   9.464  21.149  0.00  0.00    +0.000 A 
ATOM     22  C   UNL     1       0.077   9.130  22.440  0.00  0.00    +0.000 A 
ATOM     23  C   UNL     1      -0.792   9.978  23.134  0.00  0.00    +0.000 A 
ATOM     24  C   UNL     1      -1.255  11.172  22.557  0.00  0.00    +0.000 A 
ATOM     25  C   UNL     1      -0.875  11.450  21.239  0.00  0.00    +0.000 A 
ATOM     26  C   UNL     1      -0.006  10.615  20.538  0.00  0.00    +0.000 A 
BRANCH  24  27
ATOM     27  N   UNL     1      -2.073  12.021  23.316  0.00  0.00    +0.000 N 
ATOM     28  C   UNL     1      -3.284  12.644  22.993  0.00  0.00    +0.000 A 
ATOM     29  N   UNL     1      -4.037  12.219  21.964  0.00  0.00    +0.000 NA
ATOM     30  C   UNL     1      -5.146  12.931  21.691  0.00  0.00    +0.000 A 
ATOM     31  C   UNL     1      -5.502  14.043  22.405  0.00  0.00    +0.000 A 
ATOM     32  N   UNL     1      -4.750  14.442  23.438  0.00  0.00    +0.000 NA
ATOM     33  N   UNL     1      -3.626  13.722  23.736  0.00  0.00    +0.000 NA
ATOM     34  H   UNL     1      -1.614  12.555  24.042  0.00  0.00    +0.000 HD
ENDBRANCH  24  27
ENDBRANCH   2  21
TORSDOF 4
ENDMDL
MODEL 3
REMARK VINA RESULT:      -9.0      0.303      1.121
REMARK  Name = 
REMARK  4 active torsions:
REMARK  status: ('A' for Active; 'I' for Inactive)
REMARK    1  A    between atoms: C_2  and  C_20
REMARK    2  A    between atoms: C_6  and  C_7
REMARK    3  A    between atoms: C_11  and  C_12
REMARK    4  A    between atoms: C_23  and  N_24
REMARK                            x       y       z     vdW  Elec       q    Type
REMARK                         _______ _______ _______ _____ _____    ______ ____
ROOT
ATOM      1  O   UNL     1       2.005   9.112  19.394  0.00  0.00    +0.000 OA
ATOM      2  C   UNL     1       1.349   8.665  20.326  0.00  0.00    +0.000 C 
ATOM      3  N   UNL     1       1.358   7.383  20.824  0.00  0.00    +0.000 N 
ATOM      4  C   UNL     1       2.215   6.433  20.353  0.00  0.00    +0.000 A 
ATOM      5  N   UNL     1       3.257   6.570  19.579  0.00  0.00    +0.000 NA
ATOM      6  C   UNL     1       3.849   5.335  19.375  0.00  0.00    +0.000 A 
ATOM      7  C   UNL     1       3.171   4.273  19.945  0.00  0.00    +0.000 A 
ATOM      8  S   UNL     1       1.850   4.852  20.876  0.00  0.00    +0.000 S 
ATOM      9  H   UNL     1       0.654   7.069  21.475  0.00  0.00    +0.000 HD
ENDROOT
BRANCH   6  10
ATOM     10  C   UNL     1       5.089   5.227  18.619  0.00  0.00    +0.000 A 
ATOM     11  C   UNL     1       6.317   5.391  19.276  0.00  0.00    +0.000 A 
ATOM     12  C   UNL     1       7.520   5.239  18.584  0.00  0.00    +0.000 A 
ATOM     13  C   UNL     1       7.510   4.912  17.228  0.00  0.00    +0.000 A 
ATOM     14  C   UNL     1       6.294   4.733  16.555  0.00  0.00    +0.000 A 
ATOM     15  C   UNL     1       5.100   4.896  17.259  0.00  0.00    +0.000 A 
ATOM     16  F   UNL     1       3.947   4.694  16.602  0.00  0.00    +0.000 F 
BRANCH  14  17
ATOM     17  C   UNL     1       6.221   4.346  15.110  0.00  0.00    +0.000 C 
ATOM     18  F   UNL     1       5.916   3.030  14.922  0.00  0.00    +0.000 F 
ATOM     19  F   UNL     1       5.274   5.042  14.423  0.00  0.00    +0.000 F 
ATOM     20  F   UNL     1       7.396   4.546  14.450  0.00  0.00    +0.000 F 
ENDBRANCH  14  17
ENDBRANCH   6  10
BRANCH   2  21
ATOM     21  C   UNL     1       0.352   9.553  20.976  0.00  0.00    +0.000 A 
ATOM     22  C   UNL     1       0.099   9.410  22.342  0.00  0.00    +0.000 A 
ATOM     23  C   UNL     1      -0.803  10.270  22.977  0.00  0.00    +0.000 A 
ATOM     24  C   UNL     1      -1.460  11.286  22.265  0.00  0.00    +0.000 A 
ATOM     25  C   UNL     1      -1.237  11.366  20.885  0.00  0.00    +0.000 A 
ATOM     26  C   UNL     1      -0.336  10.518  20.240  0.00  0.00    +0.000 A 
BRANCH  24  27
ATOM     27  N   UNL     1      -2.306  12.164  22.957  0.00  0.00    +0.000 N 
ATOM     28  C   UNL     1      -2.031  13.381  23.591  0.00  0.00    +0.000 A 
ATOM     29  N   UNL     1      -0.912  14.075  23.318  0.00  0.00    +0.000 NA
ATOM     30  C   UNL     1      -0.706  15.196  24.034  0.00  0.00    +0.000 A 
ATOM     31  C   UNL     1      -1.572  15.620  25.006  0.00  0.00    +0.000 A 
ATOM     32  N   UNL     1      -2.689  14.926  25.251  0.00  0.00    +0.000 NA
ATOM     33  N   UNL     1      -2.920  13.792  24.524  0.00  0.00    +0.000 NA
ATOM     34  H   UNL     1      -3.129  11.755  23.379  0.00  0.00    +0.000 HD
ENDBRANCH  24  27
ENDBRANCH   2  21
TORSDOF 4
ENDMDL
MODEL 4
REMARK VINA RESULT:      -8.9      3.231      4.345
REMARK  Name = 
REMARK  4 active torsions:
REMARK  status: ('A' for Active; 'I' for Inactive)
REMARK    1  A    between atoms: C_2  and  C_20
REMARK    2  A    between atoms: C_6  and  C_7
REMARK    3  A    between atoms: C_11  and  C_12
REMARK    4  A    between atoms: C_23  and  N_24
REMARK                            x       y       z     vdW  Elec       q    Type
REMARK                         _______ _______ _______ _____ _____    ______ ____
ROOT
ATOM      1  O   UNL     1       0.575   8.979  22.100  0.00  0.00    +0.000 OA
ATOM      2  C   UNL     1       0.127   9.765  21.275  0.00  0.00    +0.000 C 
ATOM      3  N   UNL     1       0.464   9.875  19.947  0.00  0.00    +0.000 N 
ATOM      4  C   UNL     1       1.333   9.010  19.350  0.00  0.00    +0.000 A 
ATOM      5  N   UNL     1       1.804   7.876  19.790  0.00  0.00    +0.000 NA
ATOM      6  C   UNL     1       2.641   7.320  18.838  0.00  0.00    +0.000 A 
ATOM      7  C   UNL     1       2.844   8.110  17.721  0.00  0.00    +0.000 A 
ATOM      8  S   UNL     1       1.851   9.508  17.804  0.00  0.00    +0.000 S 
ATOM      9  H   UNL     1       0.170  10.667  19.396  0.00  0.00    +0.000 HD
ENDROOT
BRANCH   6  10
ATOM     10  C   UNL     1       3.224   6.003  19.047  0.00  0.00    +0.000 A 
ATOM     11  C   UNL     1       4.429   5.670  18.412  0.00  0.00    +0.000 A 
ATOM     12  C   UNL     1       5.036   4.433  18.638  0.00  0.00    +0.000 A 
ATOM     13  C   UNL     1       4.451   3.517  19.513  0.00  0.00    +0.000 A 
ATOM     14  C   UNL     1       3.253   3.834  20.167  0.00  0.00    +0.000 A 
ATOM     15  C   UNL     1       2.654   5.071  19.923  0.00  0.00    +0.000 A 
ATOM     16  F   UNL     1       1.521   5.365  20.580  0.00  0.00    +0.000 F 
BRANCH  14  17
ATOM     17  C   UNL     1       2.597   2.906  21.143  0.00  0.00    +0.000 C 
ATOM     18  F   UNL     1       3.434   1.934  21.604  0.00  0.00    +0.000 F 
ATOM     19  F   UNL     1       2.134   3.546  22.252  0.00  0.00    +0.000 F 
ATOM     20  F   UNL     1       1.530   2.247  20.610  0.00  0.00    +0.000 F 
ENDBRANCH  14  17
ENDBRANCH   6  10
BRANCH   2  21
ATOM     21  C   UNL     1      -0.841  10.793  21.734  0.00  0.00    +0.000 A 
ATOM     22  C   UNL     1      -1.228  10.815  23.076  0.00  0.00    +0.000 A 
ATOM     23  C   UNL     1      -2.104  11.806  23.532  0.00  0.00    +0.000 A 
ATOM     24  C   UNL     1      -2.600  12.791  22.664  0.00  0.00    +0.000 A 
ATOM     25  C   UNL     1      -2.246  12.708  21.312  0.00  0.00    +0.000 A 
ATOM     26  C   UNL     1      -1.371  11.728  20.844  0.00  0.00    +0.000 A 
BRANCH  24  27
ATOM     27  N   UNL     1      -3.423  13.802  23.181  0.00  0.00    +0.000 N 
ATOM     28  C   UNL     1      -4.779  13.781  23.527  0.00  0.00    +0.000 A 
ATOM     29  N   UNL     1      -5.431  12.623  23.732  0.00  0.00    +0.000 NA
ATOM     30  C   UNL     1      -6.750  12.709  23.989  0.00  0.00    +0.000 A 
ATOM     31  C   UNL     1      -7.416  13.904  24.031  0.00  0.00    +0.000 A 
ATOM     32  N   UNL     1      -6.747  15.048  23.842  0.00  0.00    +0.000 NA
ATOM     33  N   UNL     1      -5.405  14.978  23.592  0.00  0.00    +0.000 NA
ATOM     34  H   UNL     1      -3.156  14.752  22.965  0.00  0.00    +0.000 HD
ENDBRANCH  24  27
ENDBRANCH   2  21
TORSDOF 4
ENDMDL
MODEL 5
REMARK VINA RESULT:      -8.9      3.311      4.383
REMARK  Name = 
REMARK  4 active torsions:
REMARK  status: ('A' for Active; 'I' for Inactive)
REMARK    1  A    between atoms: C_2  and  C_20
REMARK    2  A    between atoms: C_6  and  C_7
REMARK    3  A    between atoms: C_11  and  C_12
REMARK    4  A    between atoms: C_23  and  N_24
REMARK                            x       y       z     vdW  Elec       q    Type
REMARK                         _______ _______ _______ _____ _____    ______ ____
ROOT
ATOM      1  O   UNL     1       0.487   9.047  22.136  0.00  0.00    +0.000 OA
ATOM      2  C   UNL     1       0.085   9.874  21.326  0.00  0.00    +0.000 C 
ATOM      3  N   UNL     1       0.448  10.006  20.006  0.00  0.00    +0.000 N 
ATOM      4  C   UNL     1       1.291   9.123  19.399  0.00  0.00    +0.000 A 
ATOM      5  N   UNL     1       1.708   7.958  19.814  0.00  0.00    +0.000 NA
ATOM      6  C   UNL     1       2.537   7.394  18.860  0.00  0.00    +0.000 A 
ATOM      7  C   UNL     1       2.791   8.206  17.769  0.00  0.00    +0.000 A 
ATOM      8  S   UNL     1       1.855   9.640  17.876  0.00  0.00    +0.000 S 
ATOM      9  H   UNL     1       0.196  10.824  19.474  0.00  0.00    +0.000 HD
ENDROOT
BRANCH   6  10
ATOM     10  C   UNL     1       3.063   6.049  19.042  0.00  0.00    +0.000 A 
ATOM     11  C   UNL     1       4.185   5.639  18.308  0.00  0.00    +0.000 A 
ATOM     12  C   UNL     1       4.740   4.372  18.503  0.00  0.00    +0.000 A 
ATOM     13  C   UNL     1       4.186   3.504  19.443  0.00  0.00    +0.000 A 
ATOM     14  C   UNL     1       3.071   3.898  20.195  0.00  0.00    +0.000 A 
ATOM     15  C   UNL     1       2.523   5.163  19.982  0.00  0.00    +0.000 A 
ATOM     16  F   UNL     1       1.471   5.531  20.732  0.00  0.00    +0.000 F 
BRANCH  14  17
ATOM     17  C   UNL     1       2.455   3.023  21.244  0.00  0.00    +0.000 C 
ATOM     18  F   UNL     1       1.297   2.431  20.835  0.00  0.00    +0.000 F 
ATOM     19  F   UNL     1       3.272   2.003  21.627  0.00  0.00    +0.000 F 
ATOM     20  F   UNL     1       2.137   3.704  22.379  0.00  0.00    +0.000 F 
ENDBRANCH  14  17
ENDBRANCH   6  10
BRANCH   2  21
ATOM     21  C   UNL     1      -0.847  10.928  21.799  0.00  0.00    +0.000 A 
ATOM     22  C   UNL     1      -1.319  11.878  20.892  0.00  0.00    +0.000 A 
ATOM     23  C   UNL     1      -2.234  12.850  21.313  0.00  0.00    +0.000 A 
ATOM     24  C   UNL     1      -2.696  12.883  22.638  0.00  0.00    +0.000 A 
ATOM     25  C   UNL     1      -2.159  11.959  23.542  0.00  0.00    +0.000 A 
ATOM     26  C   UNL     1      -1.250  10.983  23.134  0.00  0.00    +0.000 A 
BRANCH  24  27
ATOM     27  N   UNL     1      -3.662  13.835  22.998  0.00  0.00    +0.000 N 
ATOM     28  C   UNL     1      -4.994  13.673  23.394  0.00  0.00    +0.000 A 
ATOM     29  N   UNL     1      -5.456  12.488  23.828  0.00  0.00    +0.000 NA
ATOM     30  C   UNL     1      -6.769  12.419  24.115  0.00  0.00    +0.000 A 
ATOM     31  C   UNL     1      -7.613  13.486  23.969  0.00  0.00    +0.000 A 
ATOM     32  N   UNL     1      -7.132  14.664  23.552  0.00  0.00    +0.000 NA
ATOM     33  N   UNL     1      -5.799  14.754  23.268  0.00  0.00    +0.000 NA
ATOM     34  H   UNL     1      -3.548  14.760  22.605  0.00  0.00    +0.000 HD
ENDBRANCH  24  27
ENDBRANCH   2  21
TORSDOF 4
ENDMDL
MODEL 6
REMARK VINA RESULT:      -8.9      2.923      3.884
REMARK  Name = 
REMARK  4 active torsions:
REMARK  status: ('A' for Active; 'I' for Inactive)
REMARK    1  A    between atoms: C_2  and  C_20
REMARK    2  A    between atoms: C_6  and  C_7
REMARK    3  A    between atoms: C_11  and  C_12
REMARK    4  A    between atoms: C_23  and  N_24
REMARK                            x       y       z     vdW  Elec       q    Type
REMARK                         _______ _______ _______ _____ _____    ______ ____
ROOT
ATOM      1  O   UNL     1       0.848   8.730  21.956  0.00  0.00    +0.000 OA
ATOM      2  C   UNL     1       0.403   9.540  21.152  0.00  0.00    +0.000 C 
ATOM      3  N   UNL     1       0.731   9.675  19.824  0.00  0.00    +0.000 N 
ATOM      4  C   UNL     1       1.585   8.814  19.201  0.00  0.00    +0.000 A 
ATOM      5  N   UNL     1       2.045   7.664  19.612  0.00  0.00    +0.000 NA
ATOM      6  C   UNL     1       2.868   7.119  18.641  0.00  0.00    +0.000 A 
ATOM      7  C   UNL     1       3.072   7.932  17.541  0.00  0.00    +0.000 A 
ATOM      8  S   UNL     1       2.097   9.339  17.663  0.00  0.00    +0.000 S 
ATOM      9  H   UNL     1       0.442  10.483  19.294  0.00  0.00    +0.000 HD
ENDROOT
BRANCH   6  10
ATOM     10  C   UNL     1       3.437   5.791  18.817  0.00  0.00    +0.000 A 
ATOM     11  C   UNL     1       4.808   5.653  19.073  0.00  0.00    +0.000 A 
ATOM     12  C   UNL     1       5.368   4.394  19.297  0.00  0.00    +0.000 A 
ATOM     13  C   UNL     1       4.560   3.257  19.280  0.00  0.00    +0.000 A 
ATOM     14  C   UNL     1       3.185   3.373  19.037  0.00  0.00    +0.000 A 
ATOM     15  C   UNL     1       2.643   4.638  18.805  0.00  0.00    +0.000 A 
ATOM     16  F   UNL     1       1.319   4.729  18.601  0.00  0.00    +0.000 F 
BRANCH  14  17
ATOM     17  C   UNL     1       2.263   2.193  19.041  0.00  0.00    +0.000 C 
ATOM     18  F   UNL     1       2.913   1.005  18.880  0.00  0.00    +0.000 F 
ATOM     19  F   UNL     1       1.563   2.073  20.203  0.00  0.00    +0.000 F 
ATOM     20  F   UNL     1       1.338   2.242  18.042  0.00  0.00    +0.000 F 
ENDBRANCH  14  17
ENDBRANCH   6  10
BRANCH   2  21
ATOM     21  C   UNL     1      -0.549  10.569  21.642  0.00  0.00    +0.000 A 
ATOM     22  C   UNL     1      -1.021  11.539  20.756  0.00  0.00    +0.000 A 
ATOM     23  C   UNL     1      -1.953  12.487  21.192  0.00  0.00    +0.000 A 
ATOM     24  C   UNL     1      -2.432  12.478  22.511  0.00  0.00    +0.000 A 
ATOM     25  C   UNL     1      -1.895  11.535  23.396  0.00  0.00    +0.000 A 
ATOM     26  C   UNL     1      -0.969  10.582  22.973  0.00  0.00    +0.000 A 
BRANCH  24  27
ATOM     27  N   UNL     1      -3.414  13.408  22.884  0.00  0.00    +0.000 N 
ATOM     28  C   UNL     1      -4.784  13.447  22.598  0.00  0.00    +0.000 A 
ATOM     29  N   UNL     1      -5.443  12.354  22.178  0.00  0.00    +0.000 NA
ATOM     30  C   UNL     1      -6.741  12.514  21.860  0.00  0.00    +0.000 A 
ATOM     31  C   UNL     1      -7.375  13.724  21.942  0.00  0.00    +0.000 A 
ATOM     32  N   UNL     1      -6.708  14.799  22.380  0.00  0.00    +0.000 NA
ATOM     33  N   UNL     1      -5.392  14.650  22.718  0.00  0.00    +0.000 NA
ATOM     34  H   UNL     1      -3.093  14.347  23.075  0.00  0.00    +0.000 HD
ENDBRANCH  24  27
ENDBRANCH   2  21
TORSDOF 4
ENDMDL
MODEL 7
REMARK VINA RESULT:      -8.8      2.939      3.927
REMARK  Name = 
REMARK  4 active torsions:
REMARK  status: ('A' for Active; 'I' for Inactive)
REMARK    1  A    between atoms: C_2  and  C_20
REMARK    2  A    between atoms: C_6  and  C_7
REMARK    3  A    between atoms: C_11  and  C_12
REMARK    4  A    between atoms: C_23  and  N_24
REMARK                            x       y       z     vdW  Elec       q    Type
REMARK                         _______ _______ _______ _____ _____    ______ ____
ROOT
ATOM      1  O   UNL     1       0.642   8.798  21.974  0.00  0.00    +0.000 OA
ATOM      2  C   UNL     1       0.232   9.632  21.176  0.00  0.00    +0.000 C 
ATOM      3  N   UNL     1       0.606   9.795  19.863  0.00  0.00    +0.000 N 
ATOM      4  C   UNL     1       1.472   8.940  19.249  0.00  0.00    +0.000 A 
ATOM      5  N   UNL     1       1.907   7.776  19.646  0.00  0.00    +0.000 NA
ATOM      6  C   UNL     1       2.756   7.246  18.691  0.00  0.00    +0.000 A 
ATOM      7  C   UNL     1       3.006   8.083  17.618  0.00  0.00    +0.000 A 
ATOM      8  S   UNL     1       2.041   9.497  17.741  0.00  0.00    +0.000 S 
ATOM      9  H   UNL     1       0.343  10.619  19.343  0.00  0.00    +0.000 HD
ENDROOT
BRANCH   6  10
ATOM     10  C   UNL     1       3.306   5.908  18.853  0.00  0.00    +0.000 A 
ATOM     11  C   UNL     1       4.687   5.743  19.032  0.00  0.00    +0.000 A 
ATOM     12  C   UNL     1       5.232   4.475  19.242  0.00  0.00    +0.000 A 
ATOM     13  C   UNL     1       4.401   3.356  19.288  0.00  0.00    +0.000 A 
ATOM     14  C   UNL     1       3.017   3.500  19.122  0.00  0.00    +0.000 A 
ATOM     15  C   UNL     1       2.488   4.773  18.904  0.00  0.00    +0.000 A 
ATOM     16  F   UNL     1       1.157   4.891  18.775  0.00  0.00    +0.000 F 
BRANCH  14  17
ATOM     17  C   UNL     1       2.071   2.340  19.197  0.00  0.00    +0.000 C 
ATOM     18  F   UNL     1       1.392   2.277  20.377  0.00  0.00    +0.000 F 
ATOM     19  F   UNL     1       1.116   2.374  18.227  0.00  0.00    +0.000 F 
ATOM     20  F   UNL     1       2.699   1.138  19.072  0.00  0.00    +0.000 F 
ENDBRANCH  14  17
ENDBRANCH   6  10
BRANCH   2  21
ATOM     21  C   UNL     1      -0.726  10.659  21.659  0.00  0.00    +0.000 A 
ATOM     22  C   UNL     1      -1.062  10.695  23.013  0.00  0.00    +0.000 A 
ATOM     23  C   UNL     1      -1.928  11.686  23.490  0.00  0.00    +0.000 A 
ATOM     24  C   UNL     1      -2.463  12.656  22.628  0.00  0.00    +0.000 A 
ATOM     25  C   UNL     1      -2.160  12.558  21.265  0.00  0.00    +0.000 A 
ATOM     26  C   UNL     1      -1.296  11.578  20.777  0.00  0.00    +0.000 A 
BRANCH  24  27
ATOM     27  N   UNL     1      -3.274  13.667  23.163  0.00  0.00    +0.000 N 
ATOM     28  C   UNL     1      -4.631  13.658  23.507  0.00  0.00    +0.000 A 
ATOM     29  N   UNL     1      -5.298  12.505  23.690  0.00  0.00    +0.000 NA
ATOM     30  C   UNL     1      -6.616  12.604  23.947  0.00  0.00    +0.000 A 
ATOM     31  C   UNL     1      -7.267  13.806  24.011  0.00  0.00    +0.000 A 
ATOM     32  N   UNL     1      -6.582  14.944  23.844  0.00  0.00    +0.000 NA
ATOM     33  N   UNL     1      -5.241  14.862  23.594  0.00  0.00    +0.000 NA
ATOM     34  H   UNL     1      -2.994  14.618  22.966  0.00  0.00    +0.000 HD
ENDBRANCH  24  27
ENDBRANCH   2  21
TORSDOF 4
ENDMDL
MODEL 8
REMARK VINA RESULT:      -8.8      2.035      2.430
REMARK  Name = 
REMARK  4 active torsions:
REMARK  status: ('A' for Active; 'I' for Inactive)
REMARK    1  A    between atoms: C_2  and  C_20
REMARK    2  A    between atoms: C_6  and  C_7
REMARK    3  A    between atoms: C_11  and  C_12
REMARK    4  A    between atoms: C_23  and  N_24
REMARK                            x       y       z     vdW  Elec       q    Type
REMARK                         _______ _______ _______ _____ _____    ______ ____
ROOT
ATOM      1  O   UNL     1       2.069   9.334  17.509  0.00  0.00    +0.000 OA
ATOM      2  C   UNL     1       1.408   9.266  18.538  0.00  0.00    +0.000 C 
ATOM      3  N   UNL     1       1.429   8.272  19.488  0.00  0.00    +0.000 N 
ATOM      4  C   UNL     1       2.304   7.228  19.419  0.00  0.00    +0.000 A 
ATOM      5  N   UNL     1       3.352   7.076  18.658  0.00  0.00    +0.000 NA
ATOM      6  C   UNL     1       3.962   5.867  18.943  0.00  0.00    +0.000 A 
ATOM      7  C   UNL     1       3.292   5.092  19.873  0.00  0.00    +0.000 A 
ATOM      8  S   UNL     1       1.954   5.961  20.505  0.00  0.00    +0.000 S 
ATOM      9  H   UNL     1       0.723   8.220  20.206  0.00  0.00    +0.000 HD
ENDROOT
BRANCH   6  10
ATOM     10  C   UNL     1       5.211   5.499  18.292  0.00  0.00    +0.000 A 
ATOM     11  C   UNL     1       6.372   5.335  19.061  0.00  0.00    +0.000 A 
ATOM     12  C   UNL     1       7.569   4.930  18.467  0.00  0.00    +0.000 A 
ATOM     13  C   UNL     1       7.617   4.674  17.097  0.00  0.00    +0.000 A 
ATOM     14  C   UNL     1       6.466   4.820  16.312  0.00  0.00    +0.000 A 
ATOM     15  C   UNL     1       5.280   5.234  16.919  0.00  0.00    +0.000 A 
ATOM     16  F   UNL     1       4.182   5.342  16.152  0.00  0.00    +0.000 F 
BRANCH  14  17
ATOM     17  C   UNL     1       6.449   4.525  14.843  0.00  0.00    +0.000 C 
ATOM     18  F   UNL     1       6.250   3.205  14.564  0.00  0.00    +0.000 F 
ATOM     19  F   UNL     1       5.463   5.191  14.181  0.00  0.00    +0.000 F 
ATOM     20  F   UNL     1       7.616   4.857  14.224  0.00  0.00    +0.000 F 
ENDBRANCH  14  17
ENDBRANCH   6  10
BRANCH   2  21
ATOM     21  C   UNL     1       0.393  10.319  18.795  0.00  0.00    +0.000 A 
ATOM     22  C   UNL     1      -0.863  10.217  18.194  0.00  0.00    +0.000 A 
ATOM     23  C   UNL     1      -1.844  11.177  18.463  0.00  0.00    +0.000 A 
ATOM     24  C   UNL     1      -1.592  12.245  19.338  0.00  0.00    +0.000 A 
ATOM     25  C   UNL     1      -0.305  12.359  19.877  0.00  0.00    +0.000 A 
ATOM     26  C   UNL     1       0.681  11.406  19.620  0.00  0.00    +0.000 A 
BRANCH  24  27
ATOM     27  N   UNL     1      -2.627  13.147  19.627  0.00  0.00    +0.000 N 
ATOM     28  C   UNL     1      -3.469  13.236  20.741  0.00  0.00    +0.000 A 
ATOM     29  N   UNL     1      -3.159  12.635  21.903  0.00  0.00    +0.000 NA
ATOM     30  C   UNL     1      -4.070  12.721  22.891  0.00  0.00    +0.000 A 
ATOM     31  C   UNL     1      -5.264  13.372  22.737  0.00  0.00    +0.000 A 
ATOM     32  N   UNL     1      -5.549  13.979  21.579  0.00  0.00    +0.000 NA
ATOM     33  N   UNL     1      -4.629  13.911  20.570  0.00  0.00    +0.000 NA
ATOM     34  H   UNL     1      -3.090  13.568  18.833  0.00  0.00    +0.000 HD
ENDBRANCH  24  27
ENDBRANCH   2  21
TORSDOF 4
ENDMDL
MODEL 9
REMARK VINA RESULT:      -8.6      1.910      2.364
REMARK  Name = 
REMARK  4 active torsions:
REMARK  status: ('A' for Active; 'I' for Inactive)
REMARK    1  A    between atoms: C_2  and  C_20
REMARK    2  A    between atoms: C_6  and  C_7
REMARK    3  A    between atoms: C_11  and  C_12
REMARK    4  A    between atoms: C_23  and  N_24
REMARK                            x       y       z     vdW  Elec       q    Type
REMARK                         _______ _______ _______ _____ _____    ______ ____
ROOT
ATOM      1  O   UNL     1       2.033   9.372  17.894  0.00  0.00    +0.000 OA
ATOM      2  C   UNL     1       1.345   9.231  18.897  0.00  0.00    +0.000 C 
ATOM      3  N   UNL     1       1.342   8.172  19.774  0.00  0.00    +0.000 N 
ATOM      4  C   UNL     1       2.218   7.134  19.655  0.00  0.00    +0.000 A 
ATOM      5  N   UNL     1       3.287   7.036  18.912  0.00  0.00    +0.000 NA
ATOM      6  C   UNL     1       3.889   5.808  19.127  0.00  0.00    +0.000 A 
ATOM      7  C   UNL     1       3.196   4.970  19.980  0.00  0.00    +0.000 A 
ATOM      8  S   UNL     1       1.841   5.793  20.638  0.00  0.00    +0.000 S 
ATOM      9  H   UNL     1       0.616   8.069  20.467  0.00  0.00    +0.000 HD
ENDROOT
BRANCH   6  10
ATOM     10  C   UNL     1       5.155   5.486  18.484  0.00  0.00    +0.000 A 
ATOM     11  C   UNL     1       6.328   5.435  19.250  0.00  0.00    +0.000 A 
ATOM     12  C   UNL     1       7.545   5.076  18.668  0.00  0.00    +0.000 A 
ATOM     13  C   UNL     1       7.602   4.753  17.312  0.00  0.00    +0.000 A 
ATOM     14  C   UNL     1       6.440   4.786  16.530  0.00  0.00    +0.000 A 
ATOM     15  C   UNL     1       5.233   5.155  17.126  0.00  0.00    +0.000 A 
ATOM     16  F   UNL     1       4.127   5.155  16.364  0.00  0.00    +0.000 F 
BRANCH  14  17
ATOM     17  C   UNL     1       6.433   4.415  15.079  0.00  0.00    +0.000 C 
ATOM     18  F   UNL     1       7.656   4.541  14.488  0.00  0.00    +0.000 F 
ATOM     19  F   UNL     1       6.055   3.125  14.865  0.00  0.00    +0.000 F 
ATOM     20  F   UNL     1       5.589   5.188  14.340  0.00  0.00    +0.000 F 
ENDBRANCH  14  17
ENDBRANCH   6  10
BRANCH   2  21
ATOM     21  C   UNL     1       0.323  10.264  19.202  0.00  0.00    +0.000 A 
ATOM     22  C   UNL     1       0.583  11.209  20.195  0.00  0.00    +0.000 A 
ATOM     23  C   UNL     1      -0.351  12.216  20.461  0.00  0.00    +0.000 A 
ATOM     24  C   UNL     1      -1.552  12.300  19.738  0.00  0.00    +0.000 A 
ATOM     25  C   UNL     1      -1.816  11.302  18.793  0.00  0.00    +0.000 A 
ATOM     26  C   UNL     1      -0.891  10.296  18.515  0.00  0.00    +0.000 A 
BRANCH  24  27
ATOM     27  N   UNL     1      -2.428  13.364  19.996  0.00  0.00    +0.000 N 
ATOM     28  C   UNL     1      -3.443  13.495  20.950  0.00  0.00    +0.000 A 
ATOM     29  N   UNL     1      -3.497  12.695  22.029  0.00  0.00    +0.000 NA
ATOM     30  C   UNL     1      -4.554  12.854  22.847  0.00  0.00    +0.000 A 
ATOM     31  C   UNL     1      -5.542  13.769  22.606  0.00  0.00    +0.000 A 
ATOM     32  N   UNL     1      -5.463  14.569  21.536  0.00  0.00    +0.000 NA
ATOM     33  N   UNL     1      -4.390  14.429  20.701  0.00  0.00    +0.000 NA
ATOM     34  H   UNL     1      -2.630  13.977  19.218  0.00  0.00    +0.000 HD
ENDBRANCH  24  27
ENDBRANCH   2  21
TORSDOF 4
ENDMDL
