MODEL 1
REMARK VINA RESULT:      -8.9      0.000      0.000
REMARK  Name = 
REMARK  7 active torsions:
REMARK  status: ('A' for Active; 'I' for Inactive)
REMARK    1  A    between atoms: C_1  and  C_2
REMARK    2  A    between atoms: C_7  and  O_8
REMARK    3  A    between atoms: O_8  and  C_9
REMARK    4  A    between atoms: C_14  and  C_15
REMARK    5  A    between atoms: N_16  and  C_17
REMARK    6  A    between atoms: C_17  and  C_18
REMARK    7  A    between atoms: C_24  and  C_25
REMARK                            x       y       z     vdW  Elec       q    Type
REMARK                         _______ _______ _______ _____ _____    ______ ____
ROOT
ATOM      1  C   UNL     1      -1.018  13.366  22.463  0.00  0.00    +0.000 A 
ATOM      2  C   UNL     1      -0.131  14.409  22.765  0.00  0.00    +0.000 A 
ATOM      3  C   UNL     1       0.970  14.679  21.957  0.00  0.00    +0.000 A 
ATOM      4  C   UNL     1       1.214  13.873  20.855  0.00  0.00    +0.000 A 
ATOM      5  N   UNL     1       2.206  13.932  19.914  0.00  0.00    +0.000 NA
ATOM      6  C   UNL     1       1.997  12.941  19.081  0.00  0.00    +0.000 A 
ATOM      7  C   UNL     1       2.835  12.650  17.886  0.00  0.00    +0.000 C 
ATOM      8  N   UNL     1       0.908  12.197  19.487  0.00  0.00    +0.000 N 
ATOM      9  C   UNL     1       0.358  12.809  20.590  0.00  0.00    +0.000 A 
ATOM     10  C   UNL     1      -0.782  12.531  21.366  0.00  0.00    +0.000 A 
ENDROOT
BRANCH   1  11
ATOM     11  O   UNL     1      -2.073  13.239  23.328  0.00  0.00    +0.000 OA
BRANCH  11  18
ATOM     12  C   UNL     1      -7.607  12.588  21.508  0.00  0.00    +0.000 C 
ATOM     13  C   UNL     1      -6.911  12.595  22.854  0.00  0.00    +0.000 C 
ATOM     14  N   UNL     1      -7.629  12.413  23.920  0.00  0.00    +0.000 NA
ATOM     15  N   UNL     1      -5.549  12.811  22.939  0.00  0.00    +0.000 N 
ATOM     16  C   UNL     1      -4.862  12.751  24.232  0.00  0.00    +0.000 C 
ATOM     17  C   UNL     1      -4.111  14.061  24.438  0.00  0.00    +0.000 C 
ATOM     18  C   UNL     1      -3.079  14.266  23.324  0.00  0.00    +0.000 C 
ATOM     19  C   UNL     1      -3.782  14.205  21.959  0.00  0.00    +0.000 C 
ATOM     20  C   UNL     1      -4.644  12.948  21.798  0.00  0.00    +0.000 C 
ATOM     21  H   UNL     1      -8.614  12.273  23.685  0.00  0.00    +0.000 HD
ENDBRANCH  11  18
ENDBRANCH   1  11
BRANCH   8  22
ATOM     22  C   UNL     1       0.307  11.076  18.800  0.00  0.00    +0.000 C 
BRANCH  22  23
ATOM     23  C   UNL     1       0.996   9.740  18.960  0.00  0.00    +0.000 A 
ATOM     24  C   UNL     1       1.484   9.226  17.747  0.00  0.00    +0.000 A 
ATOM     25  C   UNL     1       2.285   8.108  17.736  0.00  0.00    +0.000 A 
ATOM     26  C   UNL     1       2.491   7.410  18.910  0.00  0.00    +0.000 A 
ATOM     27  C   UNL     1       3.365   6.361  18.850  0.00  0.00    +0.000 A 
ATOM     28  C   UNL     1       2.810   5.201  19.329  0.00  0.00    +0.000 A 
ATOM     29  C   UNL     1       2.023   5.246  20.479  0.00  0.00    +0.000 A 
ATOM     30  C   UNL     1       1.586   6.513  20.941  0.00  0.00    +0.000 A 
ATOM     31  C   UNL     1       1.729   7.653  20.067  0.00  0.00    +0.000 A 
ATOM     32  C   UNL     1       1.097   8.937  20.125  0.00  0.00    +0.000 A 
BRANCH  29  33
ATOM     33  C   UNL     1       1.589   3.898  20.968  0.00  0.00    +0.000 C 
ATOM     34  N   UNL     1       0.583   3.252  20.458  0.00  0.00    +0.000 NA
ATOM     35  N   UNL     1       2.171   3.257  22.010  0.00  0.00    +0.000 N 
ATOM     36  H   UNL     1       0.156   3.745  19.667  0.00  0.00    +0.000 HD
ATOM     37  H   UNL     1       3.165   3.097  21.908  0.00  0.00    +0.000 HD
ATOM     38  H   UNL     1       1.689   2.366  22.121  0.00  0.00    +0.000 HD
ENDBRANCH  29  33
ENDBRANCH  22  23
ENDBRANCH   8  22
TORSDOF 5
ENDMDL
MODEL 2
REMARK VINA RESULT:      -8.4      3.131      6.204
REMARK  Name = 
REMARK  7 active torsions:
REMARK  status: ('A' for Active; 'I' for Inactive)
REMARK    1  A    between atoms: C_1  and  C_2
REMARK    2  A    between atoms: C_7  and  O_8
REMARK    3  A    between atoms: O_8  and  C_9
REMARK    4  A    between atoms: C_14  and  C_15
REMARK    5  A    between atoms: N_16  and  C_17
REMARK    6  A    between atoms: C_17  and  C_18
REMARK    7  A    between atoms: C_24  and  C_25
REMARK                            x       y       z     vdW  Elec       q    Type
REMARK                         _______ _______ _______ _____ _____    ______ ____
ROOT
ATOM      1  C   UNL     1       0.982  13.622  21.235  0.00  0.00    +0.000 A 
ATOM      2  C   UNL     1      -0.365  13.954  21.439  0.00  0.00    +0.000 A 
ATOM      3  C   UNL     1      -1.384  13.287  20.763  0.00  0.00    +0.000 A 
ATOM      4  C   UNL     1      -1.054  12.304  19.842  0.00  0.00    +0.000 A 
ATOM      5  N   UNL     1      -1.854  11.510  19.066  0.00  0.00    +0.000 NA
ATOM      6  C   UNL     1      -1.057  10.744  18.359  0.00  0.00    +0.000 A 
ATOM      7  C   UNL     1      -1.515   9.709  17.395  0.00  0.00    +0.000 C 
ATOM      8  N   UNL     1       0.262  11.057  18.621  0.00  0.00    +0.000 N 
ATOM      9  C   UNL     1       0.287  12.016  19.609  0.00  0.00    +0.000 A 
ATOM     10  C   UNL     1       1.337  12.646  20.300  0.00  0.00    +0.000 A 
ENDROOT
BRANCH   1  11
ATOM     11  O   UNL     1       1.872  14.339  21.992  0.00  0.00    +0.000 OA
BRANCH  11  18
ATOM     12  C   UNL     1       6.532  17.833  21.331  0.00  0.00    +0.000 C 
ATOM     13  C   UNL     1       5.476  17.261  20.406  0.00  0.00    +0.000 C 
ATOM     14  N   UNL     1       5.541  17.552  19.143  0.00  0.00    +0.000 NA
ATOM     15  N   UNL     1       4.462  16.466  20.906  0.00  0.00    +0.000 N 
ATOM     16  C   UNL     1       3.479  15.856  20.006  0.00  0.00    +0.000 C 
ATOM     17  C   UNL     1       2.085  16.262  20.470  0.00  0.00    +0.000 C 
ATOM     18  C   UNL     1       1.836  15.773  21.901  0.00  0.00    +0.000 C 
ATOM     19  C   UNL     1       2.939  16.313  22.825  0.00  0.00    +0.000 C 
ATOM     20  C   UNL     1       4.346  16.019  22.293  0.00  0.00    +0.000 C 
ATOM     21  H   UNL     1       6.344  18.151  18.940  0.00  0.00    +0.000 HD
ENDBRANCH  11  18
ENDBRANCH   1  11
BRANCH   8  22
ATOM     22  C   UNL     1       1.438  10.393  18.108  0.00  0.00    +0.000 C 
BRANCH  22  23
ATOM     23  C   UNL     1       1.703   8.997  18.624  0.00  0.00    +0.000 A 
ATOM     24  C   UNL     1       1.538   8.885  20.015  0.00  0.00    +0.000 A 
ATOM     25  C   UNL     1       1.571   7.652  20.623  0.00  0.00    +0.000 A 
ATOM     26  C   UNL     1       1.907   6.538  19.880  0.00  0.00    +0.000 A 
ATOM     27  C   UNL     1       1.836   5.333  20.521  0.00  0.00    +0.000 A 
ATOM     28  C   UNL     1       3.008   4.627  20.420  0.00  0.00    +0.000 A 
ATOM     29  C   UNL     1       3.688   4.606  19.203  0.00  0.00    +0.000 A 
ATOM     30  C   UNL     1       3.308   5.541  18.208  0.00  0.00    +0.000 A 
ATOM     31  C   UNL     1       2.449   6.639  18.586  0.00  0.00    +0.000 A 
ATOM     32  C   UNL     1       2.185   7.872  17.907  0.00  0.00    +0.000 A 
BRANCH  29  33
ATOM     33  C   UNL     1       4.877   3.695  19.190  0.00  0.00    +0.000 C 
ATOM     34  N   UNL     1       4.862   2.504  19.712  0.00  0.00    +0.000 NA
ATOM     35  N   UNL     1       6.083   4.046  18.679  0.00  0.00    +0.000 N 
ATOM     36  H   UNL     1       3.943   2.250  20.090  0.00  0.00    +0.000 HD
ATOM     37  H   UNL     1       6.065   4.329  17.708  0.00  0.00    +0.000 HD
ATOM     38  H   UNL     1       6.701   3.243  18.792  0.00  0.00    +0.000 HD
ENDBRANCH  29  33
ENDBRANCH  22  23
ENDBRANCH   8  22
TORSDOF 5
ENDMDL
MODEL 3
REMARK VINA RESULT:      -8.2      3.631      7.854
REMARK  Name = 
REMARK  7 active torsions:
REMARK  status: ('A' for Active; 'I' for Inactive)
REMARK    1  A    between atoms: C_1  and  C_2
REMARK    2  A    between atoms: C_7  and  O_8
REMARK    3  A    between atoms: O_8  and  C_9
REMARK    4  A    between atoms: C_14  and  C_15
REMARK    5  A    between atoms: N_16  and  C_17
REMARK    6  A    between atoms: C_17  and  C_18
REMARK    7  A    between atoms: C_24  and  C_25
REMARK                            x       y       z     vdW  Elec       q    Type
REMARK                         _______ _______ _______ _____ _____    ______ ____
ROOT
ATOM      1  C   UNL     1       3.419  14.490  19.623  0.00  0.00    +0.000 A 
ATOM      2  C   UNL     1       2.788  15.366  18.729  0.00  0.00    +0.000 A 
ATOM      3  C   UNL     1       1.458  15.187  18.358  0.00  0.00    +0.000 A 
ATOM      4  C   UNL     1       0.759  14.096  18.853  0.00  0.00    +0.000 A 
ATOM      5  N   UNL     1      -0.537  13.707  18.652  0.00  0.00    +0.000 NA
ATOM      6  C   UNL     1      -0.713  12.603  19.339  0.00  0.00    +0.000 A 
ATOM      7  C   UNL     1      -1.994  11.851  19.419  0.00  0.00    +0.000 C 
ATOM      8  N   UNL     1       0.466  12.231  19.954  0.00  0.00    +0.000 N 
ATOM      9  C   UNL     1       1.407  13.203  19.700  0.00  0.00    +0.000 A 
ATOM     10  C   UNL     1       2.738  13.375  20.122  0.00  0.00    +0.000 A 
ENDROOT
BRANCH   1  11
ATOM     11  O   UNL     1       4.718  14.809  19.922  0.00  0.00    +0.000 OA
BRANCH  11  18
ATOM     12  C   UNL     1      10.520  15.273  19.229  0.00  0.00    +0.000 C 
ATOM     13  C   UNL     1       9.389  14.648  18.438  0.00  0.00    +0.000 C 
ATOM     14  N   UNL     1       9.676  14.039  17.329  0.00  0.00    +0.000 NA
ATOM     15  N   UNL     1       8.084  14.746  18.882  0.00  0.00    +0.000 N 
ATOM     16  C   UNL     1       6.995  14.085  18.155  0.00  0.00    +0.000 C 
ATOM     17  C   UNL     1       5.943  15.132  17.810  0.00  0.00    +0.000 C 
ATOM     18  C   UNL     1       5.387  15.770  19.089  0.00  0.00    +0.000 C 
ATOM     19  C   UNL     1       6.544  16.356  19.913  0.00  0.00    +0.000 C 
ATOM     20  C   UNL     1       7.667  15.341  20.151  0.00  0.00    +0.000 C 
ATOM     21  H   UNL     1      10.681  14.060  17.142  0.00  0.00    +0.000 HD
ENDBRANCH  11  18
ENDBRANCH   1  11
BRANCH   8  22
ATOM     22  C   UNL     1       0.670  11.125  20.861  0.00  0.00    +0.000 C 
BRANCH  22  23
ATOM     23  C   UNL     1       1.167   9.834  20.249  0.00  0.00    +0.000 A 
ATOM     24  C   UNL     1       1.229   9.881  18.846  0.00  0.00    +0.000 A 
ATOM     25  C   UNL     1       1.819   8.857  18.141  0.00  0.00    +0.000 A 
ATOM     26  C   UNL     1       2.225   7.719  18.809  0.00  0.00    +0.000 A 
ATOM     27  C   UNL     1       2.883   6.778  18.067  0.00  0.00    +0.000 A 
ATOM     28  C   UNL     1       2.308   5.538  18.183  0.00  0.00    +0.000 A 
ATOM     29  C   UNL     1       1.874   5.102  19.434  0.00  0.00    +0.000 A 
ATOM     30  C   UNL     1       1.774   6.057  20.477  0.00  0.00    +0.000 A 
ATOM     31  C   UNL     1       1.846   7.459  20.138  0.00  0.00    +0.000 A 
ATOM     32  C   UNL     1       1.455   8.607  20.900  0.00  0.00    +0.000 A 
BRANCH  29  33
ATOM     33  C   UNL     1       1.389   3.685  19.446  0.00  0.00    +0.000 C 
ATOM     34  N   UNL     1       0.722   3.175  20.439  0.00  0.00    +0.000 NA
ATOM     35  N   UNL     1       1.641   2.799  18.452  0.00  0.00    +0.000 N 
ATOM     36  H   UNL     1       0.535   3.857  21.181  0.00  0.00    +0.000 HD
ATOM     37  H   UNL     1       1.322   3.088  17.536  0.00  0.00    +0.000 HD
ATOM     38  H   UNL     1       1.191   1.921  18.711  0.00  0.00    +0.000 HD
ENDBRANCH  29  33
ENDBRANCH  22  23
ENDBRANCH   8  22
TORSDOF 5
ENDMDL
MODEL 4
REMARK VINA RESULT:      -8.0      3.819      7.280
REMARK  Name = 
REMARK  7 active torsions:
REMARK  status: ('A' for Active; 'I' for Inactive)
REMARK    1  A    between atoms: C_1  and  C_2
REMARK    2  A    between atoms: C_7  and  O_8
REMARK    3  A    between atoms: O_8  and  C_9
REMARK    4  A    between atoms: C_14  and  C_15
REMARK    5  A    between atoms: N_16  and  C_17
REMARK    6  A    between atoms: C_17  and  C_18
REMARK    7  A    between atoms: C_24  and  C_25
REMARK                            x       y       z     vdW  Elec       q    Type
REMARK                         _______ _______ _______ _____ _____    ______ ____
ROOT
ATOM      1  C   UNL     1       2.231  14.638  19.592  0.00  0.00    +0.000 A 
ATOM      2  C   UNL     1       1.341  15.244  18.694  0.00  0.00    +0.000 A 
ATOM      3  C   UNL     1       0.186  14.592  18.269  0.00  0.00    +0.000 A 
ATOM      4  C   UNL     1      -0.065  13.303  18.714  0.00  0.00    +0.000 A 
ATOM      5  N   UNL     1      -1.114  12.463  18.455  0.00  0.00    +0.000 NA
ATOM      6  C   UNL     1      -0.881  11.352  19.112  0.00  0.00    +0.000 A 
ATOM      7  C   UNL     1      -1.787  10.172  19.127  0.00  0.00    +0.000 C 
ATOM      8  N   UNL     1       0.335  11.427  19.762  0.00  0.00    +0.000 N 
ATOM      9  C   UNL     1       0.848  12.689  19.565  0.00  0.00    +0.000 A 
ATOM     10  C   UNL     1       2.005  13.333  20.040  0.00  0.00    +0.000 A 
ENDROOT
BRANCH   1  11
ATOM     11  O   UNL     1       3.306  15.410  19.946  0.00  0.00    +0.000 OA
BRANCH  11  18
ATOM     12  C   UNL     1       8.985  16.572  19.071  0.00  0.00    +0.000 C 
ATOM     13  C   UNL     1       7.952  15.688  18.401  0.00  0.00    +0.000 C 
ATOM     14  N   UNL     1       8.321  14.971  17.384  0.00  0.00    +0.000 NA
ATOM     15  N   UNL     1       6.646  15.667  18.854  0.00  0.00    +0.000 N 
ATOM     16  C   UNL     1       5.661  14.763  18.253  0.00  0.00    +0.000 C 
ATOM     17  C   UNL     1       4.471  15.593  17.784  0.00  0.00    +0.000 C 
ATOM     18  C   UNL     1       3.832  16.325  18.970  0.00  0.00    +0.000 C 
ATOM     19  C   UNL     1       4.897  17.178  19.678  0.00  0.00    +0.000 C 
ATOM     20  C   UNL     1       6.151  16.374  20.034  0.00  0.00    +0.000 C 
ATOM     21  H   UNL     1       9.313  15.105  17.175  0.00  0.00    +0.000 HD
ENDBRANCH  11  18
ENDBRANCH   1  11
BRANCH   8  22
ATOM     22  C   UNL     1       0.916  10.447  20.651  0.00  0.00    +0.000 C 
BRANCH  22  23
ATOM     23  C   UNL     1       1.422   9.174  20.013  0.00  0.00    +0.000 A 
ATOM     24  C   UNL     1       1.645   9.304  18.631  0.00  0.00    +0.000 A 
ATOM     25  C   UNL     1       2.267   8.298  17.929  0.00  0.00    +0.000 A 
ATOM     26  C   UNL     1       2.544   7.101  18.559  0.00  0.00    +0.000 A 
ATOM     27  C   UNL     1       3.240   6.176  17.833  0.00  0.00    +0.000 A 
ATOM     28  C   UNL     1       2.603   4.961  17.801  0.00  0.00    +0.000 A 
ATOM     29  C   UNL     1       2.011   4.471  18.964  0.00  0.00    +0.000 A 
ATOM     30  C   UNL     1       1.834   5.364  20.052  0.00  0.00    +0.000 A 
ATOM     31  C   UNL     1       2.006   6.778  19.818  0.00  0.00    +0.000 A 
ATOM     32  C   UNL     1       1.581   7.895  20.607  0.00  0.00    +0.000 A 
BRANCH  29  33
ATOM     33  C   UNL     1       1.466   3.083  18.827  0.00  0.00    +0.000 C 
ATOM     34  N   UNL     1       1.881   2.246  17.923  0.00  0.00    +0.000 NA
ATOM     35  N   UNL     1       0.464   2.593  19.598  0.00  0.00    +0.000 N 
ATOM     36  H   UNL     1       2.642   2.628  17.351  0.00  0.00    +0.000 HD
ATOM     37  H   UNL     1       0.645   2.615  20.593  0.00  0.00    +0.000 HD
ATOM     38  H   UNL     1       0.299   1.632  19.300  0.00  0.00    +0.000 HD
ENDBRANCH  29  33
ENDBRANCH  22  23
ENDBRANCH   8  22
TORSDOF 5
ENDMDL
MODEL 5
REMARK VINA RESULT:      -8.0      3.203      6.345
REMARK  Name = 
REMARK  7 active torsions:
REMARK  status: ('A' for Active; 'I' for Inactive)
REMARK    1  A    between atoms: C_1  and  C_2
REMARK    2  A    between atoms: C_7  and  O_8
REMARK    3  A    between atoms: O_8  and  C_9
REMARK    4  A    between atoms: C_14  and  C_15
REMARK    5  A    between atoms: N_16  and  C_17
REMARK    6  A    between atoms: C_17  and  C_18
REMARK    7  A    between atoms: C_24  and  C_25
REMARK                            x       y       z     vdW  Elec       q    Type
REMARK                         _______ _______ _______ _____ _____    ______ ____
ROOT
ATOM      1  C   UNL     1       1.281  13.581  21.292  0.00  0.00    +0.000 A 
ATOM      2  C   UNL     1      -0.047  13.962  21.529  0.00  0.00    +0.000 A 
ATOM      3  C   UNL     1      -1.105  13.341  20.871  0.00  0.00    +0.000 A 
ATOM      4  C   UNL     1      -0.834  12.355  19.934  0.00  0.00    +0.000 A 
ATOM      5  N   UNL     1      -1.681  11.599  19.170  0.00  0.00    +0.000 NA
ATOM      6  C   UNL     1      -0.930  10.810  18.438  0.00  0.00    +0.000 A 
ATOM      7  C   UNL     1      -1.449   9.802  17.476  0.00  0.00    +0.000 C 
ATOM      8  N   UNL     1       0.406  11.071  18.673  0.00  0.00    +0.000 N 
ATOM      9  C   UNL     1       0.489  12.018  19.668  0.00  0.00    +0.000 A 
ATOM     10  C   UNL     1       1.578  12.601  20.340  0.00  0.00    +0.000 A 
ENDROOT
BRANCH   1  11
ATOM     11  O   UNL     1       2.215  14.257  22.034  0.00  0.00    +0.000 OA
BRANCH  11  18
ATOM     12  C   UNL     1       6.118  17.813  24.581  0.00  0.00    +0.000 C 
ATOM     13  C   UNL     1       6.174  16.448  23.925  0.00  0.00    +0.000 C 
ATOM     14  N   UNL     1       7.316  15.834  23.875  0.00  0.00    +0.000 NA
ATOM     15  N   UNL     1       5.036  15.884  23.379  0.00  0.00    +0.000 N 
ATOM     16  C   UNL     1       5.071  14.536  22.805  0.00  0.00    +0.000 C 
ATOM     17  C   UNL     1       4.560  14.610  21.372  0.00  0.00    +0.000 C 
ATOM     18  C   UNL     1       3.120  15.136  21.346  0.00  0.00    +0.000 C 
ATOM     19  C   UNL     1       3.060  16.496  22.058  0.00  0.00    +0.000 C 
ATOM     20  C   UNL     1       3.692  16.456  23.453  0.00  0.00    +0.000 C 
ATOM     21  H   UNL     1       8.054  16.386  24.318  0.00  0.00    +0.000 HD
ENDBRANCH  11  18
ENDBRANCH   1  11
BRANCH   8  22
ATOM     22  C   UNL     1       1.544  10.367  18.128  0.00  0.00    +0.000 C 
BRANCH  22  23
ATOM     23  C   UNL     1       1.775   8.963  18.636  0.00  0.00    +0.000 A 
ATOM     24  C   UNL     1       1.586   8.843  20.024  0.00  0.00    +0.000 A 
ATOM     25  C   UNL     1       1.588   7.605  20.623  0.00  0.00    +0.000 A 
ATOM     26  C   UNL     1       1.916   6.491  19.876  0.00  0.00    +0.000 A 
ATOM     27  C   UNL     1       1.813   5.282  20.507  0.00  0.00    +0.000 A 
ATOM     28  C   UNL     1       2.974   4.556  20.418  0.00  0.00    +0.000 A 
ATOM     29  C   UNL     1       3.673   4.532  19.213  0.00  0.00    +0.000 A 
ATOM     30  C   UNL     1       3.325   5.482  18.219  0.00  0.00    +0.000 A 
ATOM     31  C   UNL     1       2.480   6.592  18.592  0.00  0.00    +0.000 A 
ATOM     32  C   UNL     1       2.249   7.834  17.918  0.00  0.00    +0.000 A 
BRANCH  29  33
ATOM     33  C   UNL     1       4.846   3.601  19.211  0.00  0.00    +0.000 C 
ATOM     34  N   UNL     1       5.990   3.906  18.675  0.00  0.00    +0.000 NA
ATOM     35  N   UNL     1       4.805   2.346  19.722  0.00  0.00    +0.000 N 
ATOM     36  H   UNL     1       6.008   4.859  18.298  0.00  0.00    +0.000 HD
ATOM     37  H   UNL     1       4.538   2.293  20.696  0.00  0.00    +0.000 HD
ATOM     38  H   UNL     1       5.733   1.941  19.597  0.00  0.00    +0.000 HD
ENDBRANCH  29  33
ENDBRANCH  22  23
ENDBRANCH   8  22
TORSDOF 5
ENDMDL
MODEL 6
REMARK VINA RESULT:      -8.0      3.489      7.685
REMARK  Name = 
REMARK  7 active torsions:
REMARK  status: ('A' for Active; 'I' for Inactive)
REMARK    1  A    between atoms: C_1  and  C_2
REMARK    2  A    between atoms: C_7  and  O_8
REMARK    3  A    between atoms: O_8  and  C_9
REMARK    4  A    between atoms: C_14  and  C_15
REMARK    5  A    between atoms: N_16  and  C_17
REMARK    6  A    between atoms: C_17  and  C_18
REMARK    7  A    between atoms: C_24  and  C_25
REMARK                            x       y       z     vdW  Elec       q    Type
REMARK                         _______ _______ _______ _____ _____    ______ ____
ROOT
ATOM      1  C   UNL     1       3.465  14.324  20.238  0.00  0.00    +0.000 A 
ATOM      2  C   UNL     1       2.926  14.915  21.389  0.00  0.00    +0.000 A 
ATOM      3  C   UNL     1       1.691  14.518  21.895  0.00  0.00    +0.000 A 
ATOM      4  C   UNL     1       0.966  13.545  21.223  0.00  0.00    +0.000 A 
ATOM      5  N   UNL     1      -0.248  12.983  21.513  0.00  0.00    +0.000 NA
ATOM      6  C   UNL     1      -0.499  12.114  20.564  0.00  0.00    +0.000 A 
ATOM      7  C   UNL     1      -1.714  11.256  20.503  0.00  0.00    +0.000 C 
ATOM      8  N   UNL     1       0.510  12.129  19.622  0.00  0.00    +0.000 N 
ATOM      9  C   UNL     1       1.485  12.999  20.054  0.00  0.00    +0.000 A 
ATOM     10  C   UNL     1       2.744  13.354  19.536  0.00  0.00    +0.000 A 
ENDROOT
BRANCH   1  11
ATOM     11  O   UNL     1       4.701  14.793  19.875  0.00  0.00    +0.000 OA
BRANCH  11  18
ATOM     12  C   UNL     1       9.284  17.918  17.981  0.00  0.00    +0.000 C 
ATOM     13  C   UNL     1       8.852  16.470  17.874  0.00  0.00    +0.000 C 
ATOM     14  N   UNL     1       9.621  15.643  17.234  0.00  0.00    +0.000 NA
ATOM     15  N   UNL     1       7.657  16.051  18.429  0.00  0.00    +0.000 N 
ATOM     16  C   UNL     1       7.268  14.638  18.387  0.00  0.00    +0.000 C 
ATOM     17  C   UNL     1       5.893  14.538  17.736  0.00  0.00    +0.000 C 
ATOM     18  C   UNL     1       4.860  15.325  18.550  0.00  0.00    +0.000 C 
ATOM     19  C   UNL     1       5.330  16.781  18.700  0.00  0.00    +0.000 C 
ATOM     20  C   UNL     1       6.763  16.883  19.232  0.00  0.00    +0.000 C 
ATOM     21  H   UNL     1      10.459  16.111  16.883  0.00  0.00    +0.000 HD
ENDBRANCH  11  18
ENDBRANCH   1  11
BRANCH   8  22
ATOM     22  C   UNL     1       0.647  11.268  18.470  0.00  0.00    +0.000 C 
BRANCH  22  23
ATOM     23  C   UNL     1       1.279   9.915  18.711  0.00  0.00    +0.000 A 
ATOM     24  C   UNL     1       1.844   9.360  17.551  0.00  0.00    +0.000 A 
ATOM     25  C   UNL     1       2.607   8.218  17.626  0.00  0.00    +0.000 A 
ATOM     26  C   UNL     1       2.699   7.541  18.827  0.00  0.00    +0.000 A 
ATOM     27  C   UNL     1       3.542   6.466  18.858  0.00  0.00    +0.000 A 
ATOM     28  C   UNL     1       2.915   5.334  19.315  0.00  0.00    +0.000 A 
ATOM     29  C   UNL     1       2.042   5.428  20.398  0.00  0.00    +0.000 A 
ATOM     30  C   UNL     1       1.611   6.718  20.798  0.00  0.00    +0.000 A 
ATOM     31  C   UNL     1       1.857   7.833  19.915  0.00  0.00    +0.000 A 
ATOM     32  C   UNL     1       1.263   9.137  19.897  0.00  0.00    +0.000 A 
BRANCH  29  33
ATOM     33  C   UNL     1       1.529   4.106  20.878  0.00  0.00    +0.000 C 
ATOM     34  N   UNL     1       0.499   3.514  20.351  0.00  0.00    +0.000 NA
ATOM     35  N   UNL     1       2.058   3.436  21.931  0.00  0.00    +0.000 N 
ATOM     36  H   UNL     1       0.112   4.029  19.553  0.00  0.00    +0.000 HD
ATOM     37  H   UNL     1       3.043   3.223  21.846  0.00  0.00    +0.000 HD
ATOM     38  H   UNL     1       1.528   2.571  22.033  0.00  0.00    +0.000 HD
ENDBRANCH  29  33
ENDBRANCH  22  23
ENDBRANCH   8  22
TORSDOF 5
ENDMDL
MODEL 7
REMARK VINA RESULT:      -8.0      2.210      9.173
REMARK  Name = 
REMARK  7 active torsions:
REMARK  status: ('A' for Active; 'I' for Inactive)
REMARK    1  A    between atoms: C_1  and  C_2
REMARK    2  A    between atoms: C_7  and  O_8
REMARK    3  A    between atoms: O_8  and  C_9
REMARK    4  A    between atoms: C_14  and  C_15
REMARK    5  A    between atoms: N_16  and  C_17
REMARK    6  A    between atoms: C_17  and  C_18
REMARK    7  A    between atoms: C_24  and  C_25
REMARK                            x       y       z     vdW  Elec       q    Type
REMARK                         _______ _______ _______ _____ _____    ______ ____
ROOT
ATOM      1  C   UNL     1       1.507   9.007  18.809  0.00  0.00    +0.000 A 
ATOM      2  C   UNL     1       2.162   9.673  17.765  0.00  0.00    +0.000 A 
ATOM      3  C   UNL     1       2.336  11.055  17.785  0.00  0.00    +0.000 A 
ATOM      4  C   UNL     1       1.814  11.786  18.841  0.00  0.00    +0.000 A 
ATOM      5  N   UNL     1       1.855  13.130  19.097  0.00  0.00    +0.000 NA
ATOM      6  C   UNL     1       1.209  13.322  20.222  0.00  0.00    +0.000 A 
ATOM      7  C   UNL     1       1.032  14.644  20.881  0.00  0.00    +0.000 C 
ATOM      8  N   UNL     1       0.697  12.127  20.689  0.00  0.00    +0.000 N 
ATOM      9  C   UNL     1       1.120  11.123  19.848  0.00  0.00    +0.000 A 
ATOM     10  C   UNL     1       0.958   9.726  19.875  0.00  0.00    +0.000 A 
ENDROOT
BRANCH   1  11
ATOM     11  O   UNL     1       1.439   7.645  18.669  0.00  0.00    +0.000 OA
BRANCH  11  18
ATOM     12  C   UNL     1       1.691   2.377  21.229  0.00  0.00    +0.000 C 
ATOM     13  C   UNL     1       1.699   2.880  19.800  0.00  0.00    +0.000 C 
ATOM     14  N   UNL     1       1.768   2.008  18.841  0.00  0.00    +0.000 NA
ATOM     15  N   UNL     1       1.655   4.235  19.532  0.00  0.00    +0.000 N 
ATOM     16  C   UNL     1       1.594   4.723  18.151  0.00  0.00    +0.000 C 
ATOM     17  C   UNL     1       2.748   5.694  17.932  0.00  0.00    +0.000 C 
ATOM     18  C   UNL     1       2.635   6.881  18.895  0.00  0.00    +0.000 C 
ATOM     19  C   UNL     1       2.574   6.362  20.341  0.00  0.00    +0.000 C 
ATOM     20  C   UNL     1       1.499   5.289  20.534  0.00  0.00    +0.000 C 
ATOM     21  H   UNL     1       1.799   1.054  19.206  0.00  0.00    +0.000 HD
ENDBRANCH  11  18
ENDBRANCH   1  11
BRANCH   8  22
ATOM     22  C   UNL     1      -0.004  11.901  21.931  0.00  0.00    +0.000 C 
BRANCH  22  23
ATOM     23  C   UNL     1      -1.489  12.188  21.929  0.00  0.00    +0.000 A 
ATOM     24  C   UNL     1      -2.101  11.920  23.165  0.00  0.00    +0.000 A 
ATOM     25  C   UNL     1      -3.408  12.287  23.388  0.00  0.00    +0.000 A 
ATOM     26  C   UNL     1      -4.159  12.793  22.345  0.00  0.00    +0.000 A 
ATOM     27  C   UNL     1      -5.420  13.220  22.652  0.00  0.00    +0.000 A 
ATOM     28  C   UNL     1      -6.369  12.640  21.849  0.00  0.00    +0.000 A 
ATOM     29  C   UNL     1      -6.113  12.496  20.487  0.00  0.00    +0.000 A 
ATOM     30  C   UNL     1      -4.783  12.681  20.033  0.00  0.00    +0.000 A 
ATOM     31  C   UNL     1      -3.721  12.728  21.010  0.00  0.00    +0.000 A 
ATOM     32  C   UNL     1      -2.308  12.572  20.836  0.00  0.00    +0.000 A 
BRANCH  29  33
ATOM     33  C   UNL     1      -7.278  11.971  19.704  0.00  0.00    +0.000 C 
ATOM     34  N   UNL     1      -7.903  10.875  20.017  0.00  0.00    +0.000 NA
ATOM     35  N   UNL     1      -7.750  12.562  18.579  0.00  0.00    +0.000 N 
ATOM     36  H   UNL     1      -7.539  10.442  20.872  0.00  0.00    +0.000 HD
ATOM     37  H   UNL     1      -8.034  13.526  18.694  0.00  0.00    +0.000 HD
ATOM     38  H   UNL     1      -8.543  12.007  18.259  0.00  0.00    +0.000 HD
ENDBRANCH  29  33
ENDBRANCH  22  23
ENDBRANCH   8  22
TORSDOF 5
ENDMDL
MODEL 8
REMARK VINA RESULT:      -8.0      3.921      7.125
REMARK  Name = 
REMARK  7 active torsions:
REMARK  status: ('A' for Active; 'I' for Inactive)
REMARK    1  A    between atoms: C_1  and  C_2
REMARK    2  A    between atoms: C_7  and  O_8
REMARK    3  A    between atoms: O_8  and  C_9
REMARK    4  A    between atoms: C_14  and  C_15
REMARK    5  A    between atoms: N_16  and  C_17
REMARK    6  A    between atoms: C_17  and  C_18
REMARK    7  A    between atoms: C_24  and  C_25
REMARK                            x       y       z     vdW  Elec       q    Type
REMARK                         _______ _______ _______ _____ _____    ______ ____
ROOT
ATOM      1  C   UNL     1       1.877  13.941  19.642  0.00  0.00    +0.000 A 
ATOM      2  C   UNL     1       1.136  14.726  18.748  0.00  0.00    +0.000 A 
ATOM      3  C   UNL     1      -0.033  14.247  18.162  0.00  0.00    +0.000 A 
ATOM      4  C   UNL     1      -0.447  12.953  18.440  0.00  0.00    +0.000 A 
ATOM      5  N   UNL     1      -1.544  12.259  18.007  0.00  0.00    +0.000 NA
ATOM      6  C   UNL     1      -1.480  11.068  18.553  0.00  0.00    +0.000 A 
ATOM      7  C   UNL     1      -2.493   9.995  18.366  0.00  0.00    +0.000 C 
ATOM      8  N   UNL     1      -0.327  10.948  19.303  0.00  0.00    +0.000 N 
ATOM      9  C   UNL     1       0.322  12.163  19.289  0.00  0.00    +0.000 A 
ATOM     10  C   UNL     1       1.487  12.629  19.923  0.00  0.00    +0.000 A 
ENDROOT
BRANCH   1  11
ATOM     11  O   UNL     1       2.985  14.555  20.164  0.00  0.00    +0.000 OA
BRANCH  11  18
ATOM     12  C   UNL     1       8.601  16.065  19.418  0.00  0.00    +0.000 C 
ATOM     13  C   UNL     1       7.529  15.444  18.546  0.00  0.00    +0.000 C 
ATOM     14  N   UNL     1       7.835  15.127  17.325  0.00  0.00    +0.000 NA
ATOM     15  N   UNL     1       6.253  15.241  19.038  0.00  0.00    +0.000 N 
ATOM     16  C   UNL     1       5.233  14.578  18.220  0.00  0.00    +0.000 C 
ATOM     17  C   UNL     1       4.017  15.493  18.134  0.00  0.00    +0.000 C 
ATOM     18  C   UNL     1       3.451  15.760  19.534  0.00  0.00    +0.000 C 
ATOM     19  C   UNL     1       4.557  16.341  20.429  0.00  0.00    +0.000 C 
ATOM     20  C   UNL     1       5.831  15.490  20.415  0.00  0.00    +0.000 C 
ATOM     21  H   UNL     1       8.812  15.345  17.118  0.00  0.00    +0.000 HD
ENDBRANCH  11  18
ENDBRANCH   1  11
BRANCH   8  22
ATOM     22  C   UNL     1       0.073   9.828  20.123  0.00  0.00    +0.000 C 
BRANCH  22  23
ATOM     23  C   UNL     1       1.113   8.900  19.536  0.00  0.00    +0.000 A 
ATOM     24  C   UNL     1       1.295   9.085  18.155  0.00  0.00    +0.000 A 
ATOM     25  C   UNL     1       2.320   8.446  17.497  0.00  0.00    +0.000 A 
ATOM     26  C   UNL     1       3.083   7.513  18.171  0.00  0.00    +0.000 A 
ATOM     27  C   UNL     1       4.140   6.980  17.488  0.00  0.00    +0.000 A 
ATOM     28  C   UNL     1       4.111   5.608  17.486  0.00  0.00    +0.000 A 
ATOM     29  C   UNL     1       3.766   4.932  18.656  0.00  0.00    +0.000 A 
ATOM     30  C   UNL     1       3.178   5.676  19.709  0.00  0.00    +0.000 A 
ATOM     31  C   UNL     1       2.708   7.013  19.432  0.00  0.00    +0.000 A 
ATOM     32  C   UNL     1       1.807   7.840  20.175  0.00  0.00    +0.000 A 
BRANCH  29  33
ATOM     33  C   UNL     1       3.902   3.444  18.557  0.00  0.00    +0.000 C 
ATOM     34  N   UNL     1       3.753   2.651  19.576  0.00  0.00    +0.000 NA
ATOM     35  N   UNL     1       4.237   2.797  17.413  0.00  0.00    +0.000 N 
ATOM     36  H   UNL     1       3.494   3.153  20.432  0.00  0.00    +0.000 HD
ATOM     37  H   UNL     1       3.619   2.971  16.631  0.00  0.00    +0.000 HD
ATOM     38  H   UNL     1       4.249   1.800  17.625  0.00  0.00    +0.000 HD
ENDBRANCH  29  33
ENDBRANCH  22  23
ENDBRANCH   8  22
TORSDOF 5
ENDMDL
MODEL 9
REMARK VINA RESULT:      -7.8      3.575      7.336
REMARK  Name = 
REMARK  7 active torsions:
REMARK  status: ('A' for Active; 'I' for Inactive)
REMARK    1  A    between atoms: C_1  and  C_2
REMARK    2  A    between atoms: C_7  and  O_8
REMARK    3  A    between atoms: O_8  and  C_9
REMARK    4  A    between atoms: C_14  and  C_15
REMARK    5  A    between atoms: N_16  and  C_17
REMARK    6  A    between atoms: C_17  and  C_18
REMARK    7  A    between atoms: C_24  and  C_25
REMARK                            x       y       z     vdW  Elec       q    Type
REMARK                         _______ _______ _______ _____ _____    ______ ____
ROOT
ATOM      1  C   UNL     1       2.733  13.927  20.731  0.00  0.00    +0.000 A 
ATOM      2  C   UNL     1       1.620  14.473  21.386  0.00  0.00    +0.000 A 
ATOM      3  C   UNL     1       0.348  13.932  21.222  0.00  0.00    +0.000 A 
ATOM      4  C   UNL     1       0.175  12.857  20.362  0.00  0.00    +0.000 A 
ATOM      5  N   UNL     1      -0.952  12.151  20.039  0.00  0.00    +0.000 NA
ATOM      6  C   UNL     1      -0.588  11.232  19.176  0.00  0.00    +0.000 A 
ATOM      7  C   UNL     1      -1.504  10.224  18.578  0.00  0.00    +0.000 C 
ATOM      8  N   UNL     1       0.756  11.354  18.887  0.00  0.00    +0.000 N 
ATOM      9  C   UNL     1       1.276  12.354  19.677  0.00  0.00    +0.000 A 
ATOM     10  C   UNL     1       2.579  12.854  19.847  0.00  0.00    +0.000 A 
ENDROOT
BRANCH   1  11
ATOM     11  O   UNL     1       3.925  14.542  21.012  0.00  0.00    +0.000 OA
BRANCH  11  18
ATOM     12  C   UNL     1       9.226  16.512  19.468  0.00  0.00    +0.000 C 
ATOM     13  C   UNL     1       8.071  15.851  18.744  0.00  0.00    +0.000 C 
ATOM     14  N   UNL     1       8.195  15.614  17.474  0.00  0.00    +0.000 NA
ATOM     15  N   UNL     1       6.910  15.527  19.421  0.00  0.00    +0.000 N 
ATOM     16  C   UNL     1       5.818  14.826  18.739  0.00  0.00    +0.000 C 
ATOM     17  C   UNL     1       4.544  15.648  18.901  0.00  0.00    +0.000 C 
ATOM     18  C   UNL     1       4.198  15.807  20.386  0.00  0.00    +0.000 C 
ATOM     19  C   UNL     1       5.392  16.430  21.125  0.00  0.00    +0.000 C 
ATOM     20  C   UNL     1       6.702  15.681  20.860  0.00  0.00    +0.000 C 
ATOM     21  H   UNL     1       9.108  15.916  17.127  0.00  0.00    +0.000 HD
ENDBRANCH  11  18
ENDBRANCH   1  11
BRANCH   8  22
ATOM     22  C   UNL     1       1.554  10.488  18.048  0.00  0.00    +0.000 C 
BRANCH  22  23
ATOM     23  C   UNL     1       1.795   9.087  18.563  0.00  0.00    +0.000 A 
ATOM     24  C   UNL     1       1.632   8.979  19.955  0.00  0.00    +0.000 A 
ATOM     25  C   UNL     1       1.645   7.745  20.563  0.00  0.00    +0.000 A 
ATOM     26  C   UNL     1       1.961   6.625  19.819  0.00  0.00    +0.000 A 
ATOM     27  C   UNL     1       1.870   5.421  20.460  0.00  0.00    +0.000 A 
ATOM     28  C   UNL     1       3.029   4.695  20.356  0.00  0.00    +0.000 A 
ATOM     29  C   UNL     1       3.706   4.662  19.137  0.00  0.00    +0.000 A 
ATOM     30  C   UNL     1       3.340   5.605  18.143  0.00  0.00    +0.000 A 
ATOM     31  C   UNL     1       2.501   6.717  18.523  0.00  0.00    +0.000 A 
ATOM     32  C   UNL     1       2.257   7.954  17.845  0.00  0.00    +0.000 A 
BRANCH  29  33
ATOM     33  C   UNL     1       4.879   3.731  19.121  0.00  0.00    +0.000 C 
ATOM     34  N   UNL     1       6.073   4.105  18.767  0.00  0.00    +0.000 NA
ATOM     35  N   UNL     1       4.793   2.413  19.426  0.00  0.00    +0.000 N 
ATOM     36  H   UNL     1       6.125   5.104  18.544  0.00  0.00    +0.000 HD
ATOM     37  H   UNL     1       4.421   2.214  20.345  0.00  0.00    +0.000 HD
ATOM     38  H   UNL     1       5.732   2.024  19.343  0.00  0.00    +0.000 HD
ENDBRANCH  29  33
ENDBRANCH  22  23
ENDBRANCH   8  22
TORSDOF 5
ENDMDL
