MODEL 1
REMARK VINA RESULT:      -7.5      0.000      0.000
REMARK  Name = 
REMARK  3 active torsions:
REMARK  status: ('A' for Active; 'I' for Inactive)
REMARK    1  A    between atoms: C_1  and  N_2
REMARK    2  A    between atoms: C_4  and  C_5
REMARK    3  A    between atoms: C_5  and  O_7
REMARK                            x       y       z     vdW  Elec       q    Type
REMARK                         _______ _______ _______ _____ _____    ______ ____
ROOT
ATOM      1  C   UNL     1       4.096   2.029  17.518  0.00  0.00    +0.000 C 
ATOM      2  N   UNL     1       4.456   3.364  17.021  0.00  0.00    +0.000 N 
ATOM      3  C   UNL     1       5.339   3.522  15.961  0.00  0.00    +0.000 A 
ATOM      4  C   UNL     1       5.741   4.679  15.418  0.00  0.00    +0.000 A 
ATOM      5  C   UNL     1       5.185   5.903  16.014  0.00  0.00    +0.000 A 
ATOM      6  O   UNL     1       5.513   7.002  15.564  0.00  0.00    +0.000 OA
ATOM      7  C   UNL     1       4.240   5.784  17.147  0.00  0.00    +0.000 A 
ATOM      8  C   UNL     1       3.736   6.971  17.682  0.00  0.00    +0.000 A 
ATOM      9  C   UNL     1       2.848   6.919  18.742  0.00  0.00    +0.000 A 
ATOM     10  C   UNL     1       2.460   5.685  19.272  0.00  0.00    +0.000 A 
ATOM     11  C   UNL     1       1.558   5.667  20.346  0.00  0.00    +0.000 A 
ATOM     12  C   UNL     1       1.153   4.464  20.896  0.00  0.00    +0.000 A 
ATOM     13  C   UNL     1       1.668   3.314  20.347  0.00  0.00    +0.000 A 
ATOM     14  N   UNL     1       2.538   3.301  19.312  0.00  0.00    +0.000 NA
ATOM     15  C   UNL     1       2.957   4.461  18.748  0.00  0.00    +0.000 A 
ATOM     16  C   UNL     1       3.874   4.512  17.653  0.00  0.00    +0.000 A 
ENDROOT
BRANCH   4  17
ATOM     17  C   UNL     1       6.692   4.694  14.283  0.00  0.00    +0.000 C 
ATOM     18  O   UNL     1       6.542   4.025  13.272  0.00  0.00    +0.000 OA
BRANCH  17  19
ATOM     19  O   UNL     1       7.757   5.514  14.449  0.00  0.00    +0.000 OA
ATOM     20  H   UNL     1       8.455   5.151  15.047  0.00  0.00    +0.000 HD
ENDBRANCH  17  19
ENDBRANCH   4  17
TORSDOF 2
ENDMDL
MODEL 2
REMARK VINA RESULT:      -6.6      2.069      3.310
REMARK  Name = 
REMARK  3 active torsions:
REMARK  status: ('A' for Active; 'I' for Inactive)
REMARK    1  A    between atoms: C_1  and  N_2
REMARK    2  A    between atoms: C_4  and  C_5
REMARK    3  A    between atoms: C_5  and  O_7
REMARK                            x       y       z     vdW  Elec       q    Type
REMARK                         _______ _______ _______ _____ _____    ______ ____
ROOT
ATOM      1  C   UNL     1       2.536   6.810  18.248  0.00  0.00    +0.000 C 
ATOM      2  N   UNL     1       3.831   6.118  18.246  0.00  0.00    +0.000 N 
ATOM      3  C   UNL     1       4.931   6.655  17.590  0.00  0.00    +0.000 A 
ATOM      4  C   UNL     1       6.160   6.124  17.518  0.00  0.00    +0.000 A 
ATOM      5  C   UNL     1       6.353   4.840  18.209  0.00  0.00    +0.000 A 
ATOM      6  O   UNL     1       7.458   4.296  18.183  0.00  0.00    +0.000 OA
ATOM      7  C   UNL     1       5.209   4.230  18.921  0.00  0.00    +0.000 A 
ATOM      8  C   UNL     1       5.437   3.011  19.564  0.00  0.00    +0.000 A 
ATOM      9  C   UNL     1       4.402   2.395  20.246  0.00  0.00    +0.000 A 
ATOM     10  C   UNL     1       3.139   2.991  20.291  0.00  0.00    +0.000 A 
ATOM     11  C   UNL     1       2.112   2.341  20.991  0.00  0.00    +0.000 A 
ATOM     12  C   UNL     1       0.848   2.901  21.055  0.00  0.00    +0.000 A 
ATOM     13  C   UNL     1       0.656   4.100  20.412  0.00  0.00    +0.000 A 
ATOM     14  N   UNL     1       1.627   4.750  19.730  0.00  0.00    +0.000 NA
ATOM     15  C   UNL     1       2.877   4.230  19.646  0.00  0.00    +0.000 A 
ATOM     16  C   UNL     1       3.944   4.869  18.941  0.00  0.00    +0.000 A 
ENDROOT
BRANCH   4  17
ATOM     17  C   UNL     1       7.241   6.814  16.779  0.00  0.00    +0.000 C 
ATOM     18  O   UNL     1       7.663   7.920  17.083  0.00  0.00    +0.000 OA
BRANCH  17  19
ATOM     19  O   UNL     1       7.738   6.121  15.727  0.00  0.00    +0.000 OA
ATOM     20  H   UNL     1       8.078   6.691  14.995  0.00  0.00    +0.000 HD
ENDBRANCH  17  19
ENDBRANCH   4  17
TORSDOF 2
ENDMDL
MODEL 3
REMARK VINA RESULT:      -6.5      3.533      5.012
REMARK  Name = 
REMARK  3 active torsions:
REMARK  status: ('A' for Active; 'I' for Inactive)
REMARK    1  A    between atoms: C_1  and  N_2
REMARK    2  A    between atoms: C_4  and  C_5
REMARK    3  A    between atoms: C_5  and  O_7
REMARK                            x       y       z     vdW  Elec       q    Type
REMARK                         _______ _______ _______ _____ _____    ______ ____
ROOT
ATOM      1  C   UNL     1       4.302   6.411  17.005  0.00  0.00    +0.000 C 
ATOM      2  N   UNL     1       3.795   5.661  18.162  0.00  0.00    +0.000 N 
ATOM      3  C   UNL     1       4.204   4.357  18.409  0.00  0.00    +0.000 A 
ATOM      4  C   UNL     1       3.819   3.573  19.425  0.00  0.00    +0.000 A 
ATOM      5  C   UNL     1       2.863   4.165  20.373  0.00  0.00    +0.000 A 
ATOM      6  O   UNL     1       2.467   3.501  21.332  0.00  0.00    +0.000 OA
ATOM      7  C   UNL     1       2.398   5.552  20.151  0.00  0.00    +0.000 A 
ATOM      8  C   UNL     1       1.492   6.075  21.076  0.00  0.00    +0.000 A 
ATOM      9  C   UNL     1       1.025   7.368  20.918  0.00  0.00    +0.000 A 
ATOM     10  C   UNL     1       1.458   8.143  19.840  0.00  0.00    +0.000 A 
ATOM     11  C   UNL     1       0.965   9.450  19.709  0.00  0.00    +0.000 A 
ATOM     12  C   UNL     1       1.372  10.246  18.652  0.00  0.00    +0.000 A 
ATOM     13  C   UNL     1       2.264   9.702  17.759  0.00  0.00    +0.000 A 
ATOM     14  N   UNL     1       2.756   8.447  17.861  0.00  0.00    +0.000 NA
ATOM     15  C   UNL     1       2.379   7.639  18.883  0.00  0.00    +0.000 A 
ATOM     16  C   UNL     1       2.865   6.304  19.044  0.00  0.00    +0.000 A 
ENDROOT
BRANCH   4  17
ATOM     17  C   UNL     1       4.342   2.195  19.561  0.00  0.00    +0.000 C 
ATOM     18  O   UNL     1       5.071   1.841  20.475  0.00  0.00    +0.000 OA
BRANCH  17  19
ATOM     19  O   UNL     1       3.950   1.343  18.585  0.00  0.00    +0.000 OA
ATOM     20  H   UNL     1       3.681   0.451  18.914  0.00  0.00    +0.000 HD
ENDBRANCH  17  19
ENDBRANCH   4  17
TORSDOF 2
ENDMDL
MODEL 4
REMARK VINA RESULT:      -6.5      2.700      3.788
REMARK  Name = 
REMARK  3 active torsions:
REMARK  status: ('A' for Active; 'I' for Inactive)
REMARK    1  A    between atoms: C_1  and  N_2
REMARK    2  A    between atoms: C_4  and  C_5
REMARK    3  A    between atoms: C_5  and  O_7
REMARK                            x       y       z     vdW  Elec       q    Type
REMARK                         _______ _______ _______ _____ _____    ______ ____
ROOT
ATOM      1  C   UNL     1       2.232   5.257  21.099  0.00  0.00    +0.000 C 
ATOM      2  N   UNL     1       2.863   5.693  19.847  0.00  0.00    +0.000 N 
ATOM      3  C   UNL     1       3.777   4.885  19.183  0.00  0.00    +0.000 A 
ATOM      4  C   UNL     1       4.414   5.168  18.039  0.00  0.00    +0.000 A 
ATOM      5  C   UNL     1       4.107   6.471  17.430  0.00  0.00    +0.000 A 
ATOM      6  O   UNL     1       4.658   6.795  16.377  0.00  0.00    +0.000 OA
ATOM      7  C   UNL     1       3.139   7.366  18.102  0.00  0.00    +0.000 A 
ATOM      8  C   UNL     1       2.876   8.593  17.489  0.00  0.00    +0.000 A 
ATOM      9  C   UNL     1       1.979   9.469  18.073  0.00  0.00    +0.000 A 
ATOM     10  C   UNL     1       1.341   9.127  19.269  0.00  0.00    +0.000 A 
ATOM     11  C   UNL     1       0.436  10.037  19.834  0.00  0.00    +0.000 A 
ATOM     12  C   UNL     1      -0.213   9.731  21.018  0.00  0.00    +0.000 A 
ATOM     13  C   UNL     1       0.067   8.516  21.595  0.00  0.00    +0.000 A 
ATOM     14  N   UNL     1       0.934   7.619  21.073  0.00  0.00    +0.000 NA
ATOM     15  C   UNL     1       1.588   7.886  19.915  0.00  0.00    +0.000 A 
ATOM     16  C   UNL     1       2.514   6.978  19.313  0.00  0.00    +0.000 A 
ENDROOT
BRANCH   4  17
ATOM     17  C   UNL     1       5.367   4.204  17.444  0.00  0.00    +0.000 C 
ATOM     18  O   UNL     1       5.152   3.603  16.402  0.00  0.00    +0.000 OA
BRANCH  17  19
ATOM     19  O   UNL     1       6.511   4.033  18.147  0.00  0.00    +0.000 OA
ATOM     20  H   UNL     1       6.688   4.747  18.807  0.00  0.00    +0.000 HD
ENDBRANCH  17  19
ENDBRANCH   4  17
TORSDOF 2
ENDMDL
MODEL 5
REMARK VINA RESULT:      -6.4      1.300      2.771
REMARK  Name = 
REMARK  3 active torsions:
REMARK  status: ('A' for Active; 'I' for Inactive)
REMARK    1  A    between atoms: C_1  and  N_2
REMARK    2  A    between atoms: C_4  and  C_5
REMARK    3  A    between atoms: C_5  and  O_7
REMARK                            x       y       z     vdW  Elec       q    Type
REMARK                         _______ _______ _______ _____ _____    ______ ____
ROOT
ATOM      1  C   UNL     1       4.156   7.469  17.655  0.00  0.00    +0.000 C 
ATOM      2  N   UNL     1       4.554   6.168  17.103  0.00  0.00    +0.000 N 
ATOM      3  C   UNL     1       5.468   6.078  16.062  0.00  0.00    +0.000 A 
ATOM      4  C   UNL     1       5.911   4.957  15.477  0.00  0.00    +0.000 A 
ATOM      5  C   UNL     1       5.367   3.695  16.000  0.00  0.00    +0.000 A 
ATOM      6  O   UNL     1       5.731   2.625  15.508  0.00  0.00    +0.000 OA
ATOM      7  C   UNL     1       4.390   3.740  17.110  0.00  0.00    +0.000 A 
ATOM      8  C   UNL     1       3.900   2.518  17.576  0.00  0.00    +0.000 A 
ATOM      9  C   UNL     1       2.984   2.501  18.613  0.00  0.00    +0.000 A 
ATOM     10  C   UNL     1       2.553   3.700  19.189  0.00  0.00    +0.000 A 
ATOM     11  C   UNL     1       1.625   3.648  20.238  0.00  0.00    +0.000 A 
ATOM     12  C   UNL     1       1.175   4.815  20.831  0.00  0.00    +0.000 A 
ATOM     13  C   UNL     1       1.677   6.001  20.349  0.00  0.00    +0.000 A 
ATOM     14  N   UNL     1       2.573   6.081  19.339  0.00  0.00    +0.000 NA
ATOM     15  C   UNL     1       3.034   4.958  18.735  0.00  0.00    +0.000 A 
ATOM     16  C   UNL     1       3.981   4.978  17.664  0.00  0.00    +0.000 A 
ENDROOT
BRANCH   4  17
ATOM     17  C   UNL     1       6.892   5.016  14.370  0.00  0.00    +0.000 C 
ATOM     18  O   UNL     1       7.945   5.633  14.437  0.00  0.00    +0.000 OA
BRANCH  17  19
ATOM     19  O   UNL     1       6.536   4.326  13.261  0.00  0.00    +0.000 OA
ATOM     20  H   UNL     1       6.269   4.898  12.501  0.00  0.00    +0.000 HD
ENDBRANCH  17  19
ENDBRANCH   4  17
TORSDOF 2
ENDMDL
MODEL 6
REMARK VINA RESULT:      -6.4      3.230      5.701
REMARK  Name = 
REMARK  3 active torsions:
REMARK  status: ('A' for Active; 'I' for Inactive)
REMARK    1  A    between atoms: C_1  and  N_2
REMARK    2  A    between atoms: C_4  and  C_5
REMARK    3  A    between atoms: C_5  and  O_7
REMARK                            x       y       z     vdW  Elec       q    Type
REMARK                         _______ _______ _______ _____ _____    ______ ____
ROOT
ATOM      1  C   UNL     1       4.394   1.614  17.465  0.00  0.00    +0.000 C 
ATOM      2  N   UNL     1       3.854   2.760  18.208  0.00  0.00    +0.000 N 
ATOM      3  C   UNL     1       3.092   2.578  19.355  0.00  0.00    +0.000 A 
ATOM      4  C   UNL     1       2.548   3.537  20.117  0.00  0.00    +0.000 A 
ATOM      5  C   UNL     1       2.790   4.922  19.687  0.00  0.00    +0.000 A 
ATOM      6  O   UNL     1       2.320   5.853  20.342  0.00  0.00    +0.000 OA
ATOM      7  C   UNL     1       3.597   5.165  18.470  0.00  0.00    +0.000 A 
ATOM      8  C   UNL     1       3.803   6.495  18.098  0.00  0.00    +0.000 A 
ATOM      9  C   UNL     1       4.550   6.781  16.969  0.00  0.00    +0.000 A 
ATOM     10  C   UNL     1       5.094   5.743  16.208  0.00  0.00    +0.000 A 
ATOM     11  C   UNL     1       5.848   6.067  15.070  0.00  0.00    +0.000 A 
ATOM     12  C   UNL     1       6.401   5.064  14.292  0.00  0.00    +0.000 A 
ATOM     13  C   UNL     1       6.180   3.766  14.684  0.00  0.00    +0.000 A 
ATOM     14  N   UNL     1       5.459   3.424  15.777  0.00  0.00    +0.000 NA
ATOM     15  C   UNL     1       4.902   4.380  16.562  0.00  0.00    +0.000 A 
ATOM     16  C   UNL     1       4.131   4.082  17.728  0.00  0.00    +0.000 A 
ENDROOT
BRANCH   4  17
ATOM     17  C   UNL     1       1.755   3.192  21.319  0.00  0.00    +0.000 C 
ATOM     18  O   UNL     1       2.215   3.196  22.451  0.00  0.00    +0.000 OA
BRANCH  17  19
ATOM     19  O   UNL     1       0.465   2.866  21.070  0.00  0.00    +0.000 OA
ATOM     20  H   UNL     1       0.243   2.811  20.108  0.00  0.00    +0.000 HD
ENDBRANCH  17  19
ENDBRANCH   4  17
TORSDOF 2
ENDMDL
MODEL 7
REMARK VINA RESULT:      -6.4      3.086      4.648
REMARK  Name = 
REMARK  3 active torsions:
REMARK  status: ('A' for Active; 'I' for Inactive)
REMARK    1  A    between atoms: C_1  and  N_2
REMARK    2  A    between atoms: C_4  and  C_5
REMARK    3  A    between atoms: C_5  and  O_7
REMARK                            x       y       z     vdW  Elec       q    Type
REMARK                         _______ _______ _______ _____ _____    ______ ____
ROOT
ATOM      1  C   UNL     1       1.500   5.596  21.143  0.00  0.00    +0.000 C 
ATOM      2  N   UNL     1       2.491   5.162  20.150  0.00  0.00    +0.000 N 
ATOM      3  C   UNL     1       3.049   3.892  20.198  0.00  0.00    +0.000 A 
ATOM      4  C   UNL     1       3.955   3.380  19.354  0.00  0.00    +0.000 A 
ATOM      5  C   UNL     1       4.398   4.264  18.265  0.00  0.00    +0.000 A 
ATOM      6  O   UNL     1       5.229   3.858  17.452  0.00  0.00    +0.000 OA
ATOM      7  C   UNL     1       3.831   5.628  18.173  0.00  0.00    +0.000 A 
ATOM      8  C   UNL     1       4.278   6.433  17.123  0.00  0.00    +0.000 A 
ATOM      9  C   UNL     1       3.781   7.717  16.988  0.00  0.00    +0.000 A 
ATOM     10  C   UNL     1       2.837   8.203  17.897  0.00  0.00    +0.000 A 
ATOM     11  C   UNL     1       2.353   9.509  17.731  0.00  0.00    +0.000 A 
ATOM     12  C   UNL     1       1.418  10.023  18.613  0.00  0.00    +0.000 A 
ATOM     13  C   UNL     1       0.998   9.206  19.635  0.00  0.00    +0.000 A 
ATOM     14  N   UNL     1       1.447   7.943  19.819  0.00  0.00    +0.000 NA
ATOM     15  C   UNL     1       2.363   7.407  18.974  0.00  0.00    +0.000 A 
ATOM     16  C   UNL     1       2.875   6.080  19.116  0.00  0.00    +0.000 A 
ENDROOT
BRANCH   4  17
ATOM     17  C   UNL     1       4.463   2.001  19.531  0.00  0.00    +0.000 C 
ATOM     18  O   UNL     1       5.121   1.646  20.497  0.00  0.00    +0.000 OA
BRANCH  17  19
ATOM     19  O   UNL     1       4.141   1.148  18.530  0.00  0.00    +0.000 OA
ATOM     20  H   UNL     1       4.922   0.740  18.082  0.00  0.00    +0.000 HD
ENDBRANCH  17  19
ENDBRANCH   4  17
TORSDOF 2
ENDMDL
MODEL 8
REMARK VINA RESULT:      -6.3      1.371      1.696
REMARK  Name = 
REMARK  3 active torsions:
REMARK  status: ('A' for Active; 'I' for Inactive)
REMARK    1  A    between atoms: C_1  and  N_2
REMARK    2  A    between atoms: C_4  and  C_5
REMARK    3  A    between atoms: C_5  and  O_7
REMARK                            x       y       z     vdW  Elec       q    Type
REMARK                         _______ _______ _______ _____ _____    ______ ____
ROOT
ATOM      1  C   UNL     1       3.996   3.533  19.238  0.00  0.00    +0.000 C 
ATOM      2  N   UNL     1       4.336   4.475  18.164  0.00  0.00    +0.000 N 
ATOM      3  C   UNL     1       5.206   4.117  17.143  0.00  0.00    +0.000 A 
ATOM      4  C   UNL     1       5.590   4.882  16.111  0.00  0.00    +0.000 A 
ATOM      5  C   UNL     1       5.026   6.239  16.065  0.00  0.00    +0.000 A 
ATOM      6  O   UNL     1       5.337   6.995  15.144  0.00  0.00    +0.000 OA
ATOM      7  C   UNL     1       4.094   6.665  17.132  0.00  0.00    +0.000 A 
ATOM      8  C   UNL     1       3.582   7.962  17.049  0.00  0.00    +0.000 A 
ATOM      9  C   UNL     1       2.705   8.413  18.019  0.00  0.00    +0.000 A 
ATOM     10  C   UNL     1       2.336   7.576  19.076  0.00  0.00    +0.000 A 
ATOM     11  C   UNL     1       1.445   8.064  20.043  0.00  0.00    +0.000 A 
ATOM     12  C   UNL     1       1.059   7.262  21.103  0.00  0.00    +0.000 A 
ATOM     13  C   UNL     1       1.582   5.992  21.157  0.00  0.00    +0.000 A 
ATOM     14  N   UNL     1       2.441   5.495  20.239  0.00  0.00    +0.000 NA
ATOM     15  C   UNL     1       2.842   6.252  19.187  0.00  0.00    +0.000 A 
ATOM     16  C   UNL     1       3.747   5.783  18.185  0.00  0.00    +0.000 A 
ENDROOT
BRANCH   4  17
ATOM     17  C   UNL     1       6.529   4.362  15.092  0.00  0.00    +0.000 C 
ATOM     18  O   UNL     1       6.215   3.537  14.248  0.00  0.00    +0.000 OA
BRANCH  17  19
ATOM     19  O   UNL     1       7.780   4.876  15.162  0.00  0.00    +0.000 OA
ATOM     20  H   UNL     1       8.493   4.192  15.199  0.00  0.00    +0.000 HD
ENDBRANCH  17  19
ENDBRANCH   4  17
TORSDOF 2
ENDMDL
MODEL 9
REMARK VINA RESULT:      -6.2      3.578      5.245
REMARK  Name = 
REMARK  3 active torsions:
REMARK  status: ('A' for Active; 'I' for Inactive)
REMARK    1  A    between atoms: C_1  and  N_2
REMARK    2  A    between atoms: C_4  and  C_5
REMARK    3  A    between atoms: C_5  and  O_7
REMARK                            x       y       z     vdW  Elec       q    Type
REMARK                         _______ _______ _______ _____ _____    ______ ____
ROOT
ATOM      1  C   UNL     1       4.449   6.376  16.819  0.00  0.00    +0.000 C 
ATOM      2  N   UNL     1       3.495   6.973  17.762  0.00  0.00    +0.000 N 
ATOM      3  C   UNL     1       3.045   8.277  17.600  0.00  0.00    +0.000 A 
ATOM      4  C   UNL     1       2.178   8.930  18.386  0.00  0.00    +0.000 A 
ATOM      5  C   UNL     1       1.655   8.180  19.538  0.00  0.00    +0.000 A 
ATOM      6  O   UNL     1       0.854   8.720  20.302  0.00  0.00    +0.000 OA
ATOM      7  C   UNL     1       2.106   6.787  19.751  0.00  0.00    +0.000 A 
ATOM      8  C   UNL     1       1.583   6.111  20.856  0.00  0.00    +0.000 A 
ATOM      9  C   UNL     1       1.970   4.806  21.103  0.00  0.00    +0.000 A 
ATOM     10  C   UNL     1       2.878   4.170  20.253  0.00  0.00    +0.000 A 
ATOM     11  C   UNL     1       3.249   2.846  20.531  0.00  0.00    +0.000 A 
ATOM     12  C   UNL     1       4.146   2.186  19.710  0.00  0.00    +0.000 A 
ATOM     13  C   UNL     1       4.643   2.878  18.632  0.00  0.00    +0.000 A 
ATOM     14  N   UNL     1       4.303   4.154  18.338  0.00  0.00    +0.000 NA
ATOM     15  C   UNL     1       3.426   4.832  19.121  0.00  0.00    +0.000 A 
ATOM     16  C   UNL     1       3.028   6.180  18.862  0.00  0.00    +0.000 A 
ENDROOT
BRANCH   4  17
ATOM     17  C   UNL     1       1.788  10.327  18.088  0.00  0.00    +0.000 C 
ATOM     18  O   UNL     1       2.593  11.237  17.965  0.00  0.00    +0.000 OA
BRANCH  17  19
ATOM     19  O   UNL     1       0.455  10.526  17.960  0.00  0.00    +0.000 OA
ATOM     20  H   UNL     1       0.103  11.262  18.517  0.00  0.00    +0.000 HD
ENDBRANCH  17  19
ENDBRANCH   4  17
TORSDOF 2
ENDMDL
