MODEL 1
REMARK VINA RESULT:      -6.5      0.000      0.000
REMARK  Name = 
REMARK  10 active torsions:
REMARK  status: ('A' for Active; 'I' for Inactive)
REMARK    1  A    between atoms: C_1  and  C_2
REMARK    2  A    between atoms: C_5  and  O_6
REMARK    3  A    between atoms: C_15  and  C_16
REMARK    4  A    between atoms: C_17  and  C_18
REMARK    5  A    between atoms: C_18  and  N_19
REMARK    6  A    between atoms: N_19  and  O_20
REMARK    7  A    between atoms: O_20  and  C_21
REMARK    8  A    between atoms: C_21  and  C_22
REMARK    9  A    between atoms: C_22  and  N_23
REMARK   10  A    between atoms: C_26  and  O_27
REMARK                            x       y       z     vdW  Elec       q    Type
REMARK                         _______ _______ _______ _____ _____    ______ ____
ROOT
ATOM      1  C   UNL     1       0.834   3.933  17.836  0.00  0.00    +0.000 C 
ATOM      2  C   UNL     1       1.877   3.650  18.960  0.00  0.00    +0.000 C 
ATOM      3  C   UNL     1       1.579   2.185  19.439  0.00  0.00    +0.000 C 
ATOM      4  C   UNL     1       2.373   1.780  20.685  0.00  0.00    +0.000 C 
ATOM      5  C   UNL     1       2.095   2.738  21.858  0.00  0.00    +0.000 C 
ATOM      6  C   UNL     1       2.401   4.195  21.446  0.00  0.00    +0.000 C 
ATOM      7  C   UNL     1       1.621   4.625  20.167  0.00  0.00    +0.000 C 
ATOM      8  C   UNL     1       1.942   6.088  19.777  0.00  0.00    +0.000 C 
ATOM      9  C   UNL     1       3.366   6.267  19.224  0.00  0.00    +0.000 C 
ATOM     10  C   UNL     1       3.642   5.339  18.002  0.00  0.00    +0.000 C 
ATOM     11  C   UNL     1       3.376   3.852  18.433  0.00  0.00    +0.000 C 
ATOM     12  C   UNL     1       3.740   2.883  17.285  0.00  0.00    +0.000 C 
ATOM     13  C   UNL     1       5.200   3.072  16.869  0.00  0.00    +0.000 C 
ATOM     14  C   UNL     1       5.497   4.500  16.315  0.00  0.00    +0.000 C 
ATOM     15  C   UNL     1       4.788   4.633  14.938  0.00  0.00    +0.000 C 
ATOM     16  C   UNL     1       7.052   4.685  16.202  0.00  0.00    +0.000 C 
ATOM     17  C   UNL     1       7.463   4.973  17.656  0.00  0.00    +0.000 C 
ATOM     18  C   UNL     1       6.266   5.653  18.342  0.00  0.00    +0.000 C 
ATOM     19  C   UNL     1       5.070   5.598  17.350  0.00  0.00    +0.000 C 
ENDROOT
BRANCH   5  20
ATOM     20  O   UNL     1       0.789   2.588  22.370  0.00  0.00    +0.000 OA
ATOM     21  H   UNL     1       0.522   3.402  22.862  0.00  0.00    +0.000 HD
ENDBRANCH   5  20
BRANCH  19  22
ATOM     22  O   UNL     1       5.041   6.828  16.654  0.00  0.00    +0.000 OA
ATOM     23  H   UNL     1       5.042   7.576  17.303  0.00  0.00    +0.000 HD
ENDBRANCH  19  22
BRANCH  16  24
ATOM     24  C   UNL     1       7.561   5.785  15.214  0.00  0.00    +0.000 C 
BRANCH  24  25
ATOM     25  N   UNL     1       8.175   5.227  13.997  0.00  0.00    +0.000 NA
ATOM     26  H   UNL     1       8.226   4.188  14.090  0.00  0.00    +0.000 HD
BRANCH  25  27
ATOM     27  O   UNL     1       7.419   5.565  12.905  0.00  0.00    +0.000 OA
BRANCH  27  28
ATOM     28  C   UNL     1       7.473   4.485  12.001  0.00  0.00    +0.000 C 
BRANCH  28  29
ATOM     29  C   UNL     1       6.312   3.517  12.263  0.00  0.00    +0.000 C 
BRANCH  29  30
ATOM     30  N   UNL     1       6.648   2.168  11.818  0.00  0.00    +0.000 NA
ATOM     31  H   UNL     1       5.914   1.502  12.150  0.00  0.00    +0.000 HD
ATOM     32  H   UNL     1       7.553   1.890  12.264  0.00  0.00    +0.000 HD
ENDBRANCH  29  30
ENDBRANCH  28  29
ENDBRANCH  27  28
ENDBRANCH  25  27
ENDBRANCH  24  25
ENDBRANCH  16  24
TORSDOF 8
ENDMDL
MODEL 2
REMARK VINA RESULT:      -6.3      8.434     10.793
REMARK  Name = 
REMARK  10 active torsions:
REMARK  status: ('A' for Active; 'I' for Inactive)
REMARK    1  A    between atoms: C_1  and  C_2
REMARK    2  A    between atoms: C_5  and  O_6
REMARK    3  A    between atoms: C_15  and  C_16
REMARK    4  A    between atoms: C_17  and  C_18
REMARK    5  A    between atoms: C_18  and  N_19
REMARK    6  A    between atoms: N_19  and  O_20
REMARK    7  A    between atoms: O_20  and  C_21
REMARK    8  A    between atoms: C_21  and  C_22
REMARK    9  A    between atoms: C_22  and  N_23
REMARK   10  A    between atoms: C_26  and  O_27
REMARK                            x       y       z     vdW  Elec       q    Type
REMARK                         _______ _______ _______ _____ _____    ______ ____
ROOT
ATOM      1  C   UNL     1      -3.630  15.593  21.340  0.00  0.00    +0.000 C 
ATOM      2  C   UNL     1      -3.931  14.192  21.957  0.00  0.00    +0.000 C 
ATOM      3  C   UNL     1      -5.462  13.952  21.705  0.00  0.00    +0.000 C 
ATOM      4  C   UNL     1      -6.005  12.707  22.414  0.00  0.00    +0.000 C 
ATOM      5  C   UNL     1      -5.772  12.786  23.935  0.00  0.00    +0.000 C 
ATOM      6  C   UNL     1      -4.272  12.996  24.237  0.00  0.00    +0.000 C 
ATOM      7  C   UNL     1      -3.688  14.245  23.510  0.00  0.00    +0.000 C 
ATOM      8  C   UNL     1      -2.186  14.434  23.832  0.00  0.00    +0.000 C 
ATOM      9  C   UNL     1      -1.289  13.371  23.175  0.00  0.00    +0.000 C 
ATOM     10  C   UNL     1      -1.479  13.317  21.628  0.00  0.00    +0.000 C 
ATOM     11  C   UNL     1      -2.997  13.058  21.319  0.00  0.00    +0.000 C 
ATOM     12  C   UNL     1      -3.218  12.890  19.799  0.00  0.00    +0.000 C 
ATOM     13  C   UNL     1      -2.353  11.751  19.257  0.00  0.00    +0.000 C 
ATOM     14  C   UNL     1      -0.824  12.009  19.426  0.00  0.00    +0.000 C 
ATOM     15  C   UNL     1      -0.426  13.156  18.456  0.00  0.00    +0.000 C 
ATOM     16  C   UNL     1      -0.049  10.678  19.121  0.00  0.00    +0.000 C 
ATOM     17  C   UNL     1      -0.236   9.875  20.420  0.00  0.00    +0.000 C 
ATOM     18  C   UNL     1      -0.382  10.891  21.567  0.00  0.00    +0.000 C 
ATOM     19  C   UNL     1      -0.474  12.304  20.926  0.00  0.00    +0.000 C 
ENDROOT
BRANCH   5  20
ATOM     20  O   UNL     1      -6.585  13.763  24.548  0.00  0.00    +0.000 OA
ATOM     21  H   UNL     1      -6.244  14.666  24.341  0.00  0.00    +0.000 HD
ENDBRANCH   5  20
BRANCH  19  22
ATOM     22  O   UNL     1       0.826  12.861  20.941  0.00  0.00    +0.000 OA
ATOM     23  H   UNL     1       1.000  13.269  21.826  0.00  0.00    +0.000 HD
ENDBRANCH  19  22
BRANCH  16  24
ATOM     24  C   UNL     1       1.456  10.815  18.721  0.00  0.00    +0.000 C 
BRANCH  24  25
ATOM     25  N   UNL     1       1.800  10.058  17.505  0.00  0.00    +0.000 NA
ATOM     26  H   UNL     1       2.809  10.214  17.284  0.00  0.00    +0.000 HD
BRANCH  25  27
ATOM     27  O   UNL     1       1.566   8.724  17.714  0.00  0.00    +0.000 OA
BRANCH  27  28
ATOM     28  C   UNL     1       2.816   8.097  17.894  0.00  0.00    +0.000 C 
BRANCH  28  29
ATOM     29  C   UNL     1       2.629   6.723  18.550  0.00  0.00    +0.000 C 
BRANCH  29  30
ATOM     30  N   UNL     1       2.539   6.847  20.001  0.00  0.00    +0.000 NA
ATOM     31  H   UNL     1       2.086   5.990  20.394  0.00  0.00    +0.000 HD
ATOM     32  H   UNL     1       1.922   7.662  20.226  0.00  0.00    +0.000 HD
ENDBRANCH  29  30
ENDBRANCH  28  29
ENDBRANCH  27  28
ENDBRANCH  25  27
ENDBRANCH  24  25
ENDBRANCH  16  24
TORSDOF 8
ENDMDL
MODEL 3
REMARK VINA RESULT:      -5.8     10.016     13.044
REMARK  Name = 
REMARK  10 active torsions:
REMARK  status: ('A' for Active; 'I' for Inactive)
REMARK    1  A    between atoms: C_1  and  C_2
REMARK    2  A    between atoms: C_5  and  O_6
REMARK    3  A    between atoms: C_15  and  C_16
REMARK    4  A    between atoms: C_17  and  C_18
REMARK    5  A    between atoms: C_18  and  N_19
REMARK    6  A    between atoms: N_19  and  O_20
REMARK    7  A    between atoms: O_20  and  C_21
REMARK    8  A    between atoms: C_21  and  C_22
REMARK    9  A    between atoms: C_22  and  N_23
REMARK   10  A    between atoms: C_26  and  O_27
REMARK                            x       y       z     vdW  Elec       q    Type
REMARK                         _______ _______ _______ _____ _____    ______ ____
ROOT
ATOM      1  C   UNL     1       7.749  13.482  17.828  0.00  0.00    +0.000 C 
ATOM      2  C   UNL     1       9.014  13.969  18.600  0.00  0.00    +0.000 C 
ATOM      3  C   UNL     1       9.473  15.273  17.856  0.00  0.00    +0.000 C 
ATOM      4  C   UNL     1      10.826  15.804  18.341  0.00  0.00    +0.000 C 
ATOM      5  C   UNL     1      11.930  14.742  18.182  0.00  0.00    +0.000 C 
ATOM      6  C   UNL     1      11.538  13.445  18.922  0.00  0.00    +0.000 C 
ATOM      7  C   UNL     1      10.154  12.895  18.462  0.00  0.00    +0.000 C 
ATOM      8  C   UNL     1       9.786  11.594  19.216  0.00  0.00    +0.000 C 
ATOM      9  C   UNL     1       9.436  11.831  20.695  0.00  0.00    +0.000 C 
ATOM     10  C   UNL     1       8.282  12.866  20.866  0.00  0.00    +0.000 C 
ATOM     11  C   UNL     1       8.699  14.203  20.153  0.00  0.00    +0.000 C 
ATOM     12  C   UNL     1       7.632  15.295  20.387  0.00  0.00    +0.000 C 
ATOM     13  C   UNL     1       7.423  15.524  21.885  0.00  0.00    +0.000 C 
ATOM     14  C   UNL     1       6.889  14.260  22.628  0.00  0.00    +0.000 C 
ATOM     15  C   UNL     1       5.424  14.022  22.168  0.00  0.00    +0.000 C 
ATOM     16  C   UNL     1       6.992  14.502  24.176  0.00  0.00    +0.000 C 
ATOM     17  C   UNL     1       8.484  14.253  24.456  0.00  0.00    +0.000 C 
ATOM     18  C   UNL     1       8.983  13.242  23.408  0.00  0.00    +0.000 C 
ATOM     19  C   UNL     1       7.833  13.033  22.383  0.00  0.00    +0.000 C 
ENDROOT
BRANCH   5  20
ATOM     20  O   UNL     1      12.256  14.511  16.829  0.00  0.00    +0.000 OA
ATOM     21  H   UNL     1      11.935  15.260  16.271  0.00  0.00    +0.000 HD
ENDBRANCH   5  20
BRANCH  19  22
ATOM     22  O   UNL     1       7.117  11.880  22.779  0.00  0.00    +0.000 OA
ATOM     23  H   UNL     1       6.211  12.140  23.080  0.00  0.00    +0.000 HD
ENDBRANCH  19  22
BRANCH  16  24
ATOM     24  C   UNL     1       6.066  13.635  25.088  0.00  0.00    +0.000 C 
BRANCH  24  25
ATOM     25  N   UNL     1       6.815  12.738  25.984  0.00  0.00    +0.000 NA
ATOM     26  H   UNL     1       6.554  12.953  26.973  0.00  0.00    +0.000 HD
BRANCH  25  27
ATOM     27  O   UNL     1       6.510  11.435  25.690  0.00  0.00    +0.000 OA
BRANCH  27  28
ATOM     28  C   UNL     1       6.051  10.829  26.876  0.00  0.00    +0.000 C 
BRANCH  28  29
ATOM     29  C   UNL     1       4.549  10.533  26.773  0.00  0.00    +0.000 C 
BRANCH  29  30
ATOM     30  N   UNL     1       4.251   9.765  25.568  0.00  0.00    +0.000 NA
ATOM     31  H   UNL     1       3.978   8.792  25.837  0.00  0.00    +0.000 HD
ATOM     32  H   UNL     1       5.124   9.701  24.993  0.00  0.00    +0.000 HD
ENDBRANCH  29  30
ENDBRANCH  28  29
ENDBRANCH  27  28
ENDBRANCH  25  27
ENDBRANCH  24  25
ENDBRANCH  16  24
TORSDOF 8
ENDMDL
MODEL 4
REMARK VINA RESULT:      -5.7      8.562     10.619
REMARK  Name = 
REMARK  10 active torsions:
REMARK  status: ('A' for Active; 'I' for Inactive)
REMARK    1  A    between atoms: C_1  and  C_2
REMARK    2  A    between atoms: C_5  and  O_6
REMARK    3  A    between atoms: C_15  and  C_16
REMARK    4  A    between atoms: C_17  and  C_18
REMARK    5  A    between atoms: C_18  and  N_19
REMARK    6  A    between atoms: N_19  and  O_20
REMARK    7  A    between atoms: O_20  and  C_21
REMARK    8  A    between atoms: C_21  and  C_22
REMARK    9  A    between atoms: C_22  and  N_23
REMARK   10  A    between atoms: C_26  and  O_27
REMARK                            x       y       z     vdW  Elec       q    Type
REMARK                         _______ _______ _______ _____ _____    ______ ____
ROOT
ATOM      1  C   UNL     1      -1.649  11.931  21.344  0.00  0.00    +0.000 C 
ATOM      2  C   UNL     1      -1.401  11.822  19.808  0.00  0.00    +0.000 C 
ATOM      3  C   UNL     1      -2.816  11.996  19.149  0.00  0.00    +0.000 C 
ATOM      4  C   UNL     1      -2.822  11.723  17.642  0.00  0.00    +0.000 C 
ATOM      5  C   UNL     1      -2.315  10.303  17.331  0.00  0.00    +0.000 C 
ATOM      6  C   UNL     1      -0.910  10.090  17.936  0.00  0.00    +0.000 C 
ATOM      7  C   UNL     1      -0.871  10.382  19.466  0.00  0.00    +0.000 C 
ATOM      8  C   UNL     1       0.546  10.158  20.047  0.00  0.00    +0.000 C 
ATOM      9  C   UNL     1       1.556  11.230  19.605  0.00  0.00    +0.000 C 
ATOM     10  C   UNL     1       1.077  12.671  19.961  0.00  0.00    +0.000 C 
ATOM     11  C   UNL     1      -0.333  12.906  19.308  0.00  0.00    +0.000 C 
ATOM     12  C   UNL     1      -0.802  14.359  19.544  0.00  0.00    +0.000 C 
ATOM     13  C   UNL     1       0.223  15.348  18.988  0.00  0.00    +0.000 C 
ATOM     14  C   UNL     1       1.615  15.245  19.686  0.00  0.00    +0.000 C 
ATOM     15  C   UNL     1       1.459  15.781  21.137  0.00  0.00    +0.000 C 
ATOM     16  C   UNL     1       2.660  16.073  18.857  0.00  0.00    +0.000 C 
ATOM     17  C   UNL     1       2.981  15.129  17.685  0.00  0.00    +0.000 C 
ATOM     18  C   UNL     1       2.788  13.689  18.192  0.00  0.00    +0.000 C 
ATOM     19  C   UNL     1       2.165  13.778  19.613  0.00  0.00    +0.000 C 
ENDROOT
BRANCH   5  20
ATOM     20  O   UNL     1      -3.231   9.310  17.738  0.00  0.00    +0.000 OA
ATOM     21  H   UNL     1      -3.761   9.001  16.964  0.00  0.00    +0.000 HD
ENDBRANCH   5  20
BRANCH  19  22
ATOM     22  O   UNL     1       3.224  13.691  20.546  0.00  0.00    +0.000 OA
ATOM     23  H   UNL     1       3.091  12.899  21.124  0.00  0.00    +0.000 HD
ENDBRANCH  19  22
BRANCH  16  24
ATOM     24  C   UNL     1       3.947  16.540  19.611  0.00  0.00    +0.000 C 
BRANCH  24  25
ATOM     25  N   UNL     1       5.178  15.932  19.081  0.00  0.00    +0.000 NA
ATOM     26  H   UNL     1       5.833  16.692  18.790  0.00  0.00    +0.000 HD
BRANCH  25  27
ATOM     27  O   UNL     1       5.760  15.156  20.050  0.00  0.00    +0.000 OA
BRANCH  27  28
ATOM     28  C   UNL     1       7.138  15.082  19.763  0.00  0.00    +0.000 C 
BRANCH  28  29
ATOM     29  C   UNL     1       7.430  15.727  18.402  0.00  0.00    +0.000 C 
BRANCH  29  30
ATOM     30  N   UNL     1       7.509  14.716  17.352  0.00  0.00    +0.000 NA
ATOM     31  H   UNL     1       7.258  13.783  17.752  0.00  0.00    +0.000 HD
ATOM     32  H   UNL     1       8.501  14.661  17.021  0.00  0.00    +0.000 HD
ENDBRANCH  29  30
ENDBRANCH  28  29
ENDBRANCH  27  28
ENDBRANCH  25  27
ENDBRANCH  24  25
ENDBRANCH  16  24
TORSDOF 8
ENDMDL
MODEL 5
REMARK VINA RESULT:      -5.7     10.365     13.762
REMARK  Name = 
REMARK  10 active torsions:
REMARK  status: ('A' for Active; 'I' for Inactive)
REMARK    1  A    between atoms: C_1  and  C_2
REMARK    2  A    between atoms: C_5  and  O_6
REMARK    3  A    between atoms: C_15  and  C_16
REMARK    4  A    between atoms: C_17  and  C_18
REMARK    5  A    between atoms: C_18  and  N_19
REMARK    6  A    between atoms: N_19  and  O_20
REMARK    7  A    between atoms: O_20  and  C_21
REMARK    8  A    between atoms: C_21  and  C_22
REMARK    9  A    between atoms: C_22  and  N_23
REMARK   10  A    between atoms: C_26  and  O_27
REMARK                            x       y       z     vdW  Elec       q    Type
REMARK                         _______ _______ _______ _____ _____    ______ ____
ROOT
ATOM      1  C   UNL     1      -0.249  13.918  18.189  0.00  0.00    +0.000 C 
ATOM      2  C   UNL     1      -0.297  12.634  19.073  0.00  0.00    +0.000 C 
ATOM      3  C   UNL     1       1.200  12.192  19.238  0.00  0.00    +0.000 C 
ATOM      4  C   UNL     1       1.359  10.827  19.916  0.00  0.00    +0.000 C 
ATOM      5  C   UNL     1       0.613   9.728  19.137  0.00  0.00    +0.000 C 
ATOM      6  C   UNL     1      -0.875  10.104  18.972  0.00  0.00    +0.000 C 
ATOM      7  C   UNL     1      -1.065  11.499  18.303  0.00  0.00    +0.000 C 
ATOM      8  C   UNL     1      -2.564  11.849  18.146  0.00  0.00    +0.000 C 
ATOM      9  C   UNL     1      -3.254  12.164  19.484  0.00  0.00    +0.000 C 
ATOM     10  C   UNL     1      -2.538  13.312  20.259  0.00  0.00    +0.000 C 
ATOM     11  C   UNL     1      -1.033  12.911  20.468  0.00  0.00    +0.000 C 
ATOM     12  C   UNL     1      -0.307  13.971  21.326  0.00  0.00    +0.000 C 
ATOM     13  C   UNL     1      -1.012  14.144  22.672  0.00  0.00    +0.000 C 
ATOM     14  C   UNL     1      -2.478  14.661  22.532  0.00  0.00    +0.000 C 
ATOM     15  C   UNL     1      -2.418  16.137  22.049  0.00  0.00    +0.000 C 
ATOM     16  C   UNL     1      -3.199  14.520  23.919  0.00  0.00    +0.000 C 
ATOM     17  C   UNL     1      -3.545  13.021  23.967  0.00  0.00    +0.000 C 
ATOM     18  C   UNL     1      -3.732  12.550  22.515  0.00  0.00    +0.000 C 
ATOM     19  C   UNL     1      -3.309  13.724  21.588  0.00  0.00    +0.000 C 
ENDROOT
BRANCH   5  20
ATOM     20  O   UNL     1       1.234   9.435  17.904  0.00  0.00    +0.000 OA
ATOM     21  H   UNL     1       1.994  10.048  17.754  0.00  0.00    +0.000 HD
ENDBRANCH   5  20
BRANCH  19  22
ATOM     22  O   UNL     1      -4.482  14.431  21.238  0.00  0.00    +0.000 OA
ATOM     23  H   UNL     1      -4.362  15.392  21.441  0.00  0.00    +0.000 HD
ENDBRANCH  19  22
BRANCH  16  24
ATOM     24  C   UNL     1      -4.451  15.424  24.158  0.00  0.00    +0.000 C 
BRANCH  24  25
ATOM     25  N   UNL     1      -5.682  14.653  24.401  0.00  0.00    +0.000 NA
ATOM     26  H   UNL     1      -6.166  15.046  25.240  0.00  0.00    +0.000 HD
BRANCH  25  27
ATOM     27  O   UNL     1      -6.500  14.736  23.305  0.00  0.00    +0.000 OA
BRANCH  27  28
ATOM     28  C   UNL     1      -7.762  14.235  23.679  0.00  0.00    +0.000 C 
BRANCH  28  29
ATOM     29  C   UNL     1      -7.913  12.780  23.214  0.00  0.00    +0.000 C 
BRANCH  29  30
ATOM     30  N   UNL     1      -7.045  11.895  23.985  0.00  0.00    +0.000 NA
ATOM     31  H   UNL     1      -6.102  11.857  23.534  0.00  0.00    +0.000 HD
ATOM     32  H   UNL     1      -7.448  10.929  23.954  0.00  0.00    +0.000 HD
ENDBRANCH  29  30
ENDBRANCH  28  29
ENDBRANCH  27  28
ENDBRANCH  25  27
ENDBRANCH  24  25
ENDBRANCH  16  24
TORSDOF 8
ENDMDL
MODEL 6
REMARK VINA RESULT:      -5.7      1.409      2.846
REMARK  Name = 
REMARK  10 active torsions:
REMARK  status: ('A' for Active; 'I' for Inactive)
REMARK    1  A    between atoms: C_1  and  C_2
REMARK    2  A    between atoms: C_5  and  O_6
REMARK    3  A    between atoms: C_15  and  C_16
REMARK    4  A    between atoms: C_17  and  C_18
REMARK    5  A    between atoms: C_18  and  N_19
REMARK    6  A    between atoms: N_19  and  O_20
REMARK    7  A    between atoms: O_20  and  C_21
REMARK    8  A    between atoms: C_21  and  C_22
REMARK    9  A    between atoms: C_22  and  N_23
REMARK   10  A    between atoms: C_26  and  O_27
REMARK                            x       y       z     vdW  Elec       q    Type
REMARK                         _______ _______ _______ _____ _____    ______ ____
ROOT
ATOM      1  C   UNL     1       4.755   2.123  20.633  0.00  0.00    +0.000 C 
ATOM      2  C   UNL     1       3.672   3.058  20.011  0.00  0.00    +0.000 C 
ATOM      3  C   UNL     1       3.103   3.888  21.216  0.00  0.00    +0.000 C 
ATOM      4  C   UNL     1       1.879   4.733  20.848  0.00  0.00    +0.000 C 
ATOM      5  C   UNL     1       0.745   3.856  20.286  0.00  0.00    +0.000 C 
ATOM      6  C   UNL     1       1.248   3.038  19.077  0.00  0.00    +0.000 C 
ATOM      7  C   UNL     1       2.506   2.184  19.419  0.00  0.00    +0.000 C 
ATOM      8  C   UNL     1       2.988   1.372  18.193  0.00  0.00    +0.000 C 
ATOM      9  C   UNL     1       3.622   2.249  17.099  0.00  0.00    +0.000 C 
ATOM     10  C   UNL     1       4.806   3.103  17.645  0.00  0.00    +0.000 C 
ATOM     11  C   UNL     1       4.285   3.971  18.846  0.00  0.00    +0.000 C 
ATOM     12  C   UNL     1       5.397   4.916  19.353  0.00  0.00    +0.000 C 
ATOM     13  C   UNL     1       5.897   5.810  18.217  0.00  0.00    +0.000 C 
ATOM     14  C   UNL     1       6.540   5.007  17.044  0.00  0.00    +0.000 C 
ATOM     15  C   UNL     1       7.883   4.415  17.553  0.00  0.00    +0.000 C 
ATOM     16  C   UNL     1       6.741   5.971  15.821  0.00  0.00    +0.000 C 
ATOM     17  C   UNL     1       5.327   6.055  15.222  0.00  0.00    +0.000 C 
ATOM     18  C   UNL     1       4.616   4.728  15.542  0.00  0.00    +0.000 C 
ATOM     19  C   UNL     1       5.542   3.926  16.499  0.00  0.00    +0.000 C 
ENDROOT
BRANCH   5  20
ATOM     20  O   UNL     1       0.160   3.042  21.279  0.00  0.00    +0.000 OA
ATOM     21  H   UNL     1       0.720   3.045  22.093  0.00  0.00    +0.000 HD
ENDBRANCH   5  20
BRANCH  19  22
ATOM     22  O   UNL     1       6.299   3.033  15.707  0.00  0.00    +0.000 OA
ATOM     23  H   UNL     1       7.233   3.009  16.035  0.00  0.00    +0.000 HD
ENDBRANCH  19  22
BRANCH  16  24
ATOM     24  C   UNL     1       7.809   5.550  14.760  0.00  0.00    +0.000 C 
BRANCH  24  25
ATOM     25  N   UNL     1       7.232   5.298  13.430  0.00  0.00    +0.000 NA
ATOM     26  H   UNL     1       7.898   5.642  12.702  0.00  0.00    +0.000 HD
BRANCH  25  27
ATOM     27  O   UNL     1       7.016   3.954  13.271  0.00  0.00    +0.000 OA
BRANCH  27  28
ATOM     28  C   UNL     1       6.596   3.746  11.942  0.00  0.00    +0.000 C 
BRANCH  28  29
ATOM     29  C   UNL     1       5.887   2.391  11.816  0.00  0.00    +0.000 C 
BRANCH  29  30
ATOM     30  N   UNL     1       6.793   1.377  11.286  0.00  0.00    +0.000 NA
ATOM     31  H   UNL     1       6.342   0.905  10.469  0.00  0.00    +0.000 HD
ATOM     32  H   UNL     1       6.944   0.651  12.026  0.00  0.00    +0.000 HD
ENDBRANCH  29  30
ENDBRANCH  28  29
ENDBRANCH  27  28
ENDBRANCH  25  27
ENDBRANCH  24  25
ENDBRANCH  16  24
TORSDOF 8
ENDMDL
MODEL 7
REMARK VINA RESULT:      -5.7      9.891     13.183
REMARK  Name = 
REMARK  10 active torsions:
REMARK  status: ('A' for Active; 'I' for Inactive)
REMARK    1  A    between atoms: C_1  and  C_2
REMARK    2  A    between atoms: C_5  and  O_6
REMARK    3  A    between atoms: C_15  and  C_16
REMARK    4  A    between atoms: C_17  and  C_18
REMARK    5  A    between atoms: C_18  and  N_19
REMARK    6  A    between atoms: N_19  and  O_20
REMARK    7  A    between atoms: O_20  and  C_21
REMARK    8  A    between atoms: C_21  and  C_22
REMARK    9  A    between atoms: C_22  and  N_23
REMARK   10  A    between atoms: C_26  and  O_27
REMARK                            x       y       z     vdW  Elec       q    Type
REMARK                         _______ _______ _______ _____ _____    ______ ____
ROOT
ATOM      1  C   UNL     1      11.477  12.160  20.868  0.00  0.00    +0.000 C 
ATOM      2  C   UNL     1      10.249  12.792  20.144  0.00  0.00    +0.000 C 
ATOM      3  C   UNL     1       9.882  11.783  18.998  0.00  0.00    +0.000 C 
ATOM      4  C   UNL     1       8.814  12.317  18.037  0.00  0.00    +0.000 C 
ATOM      5  C   UNL     1       9.261  13.642  17.390  0.00  0.00    +0.000 C 
ATOM      6  C   UNL     1       9.607  14.681  18.479  0.00  0.00    +0.000 C 
ATOM      7  C   UNL     1      10.676  14.154  19.484  0.00  0.00    +0.000 C 
ATOM      8  C   UNL     1      11.008  15.214  20.561  0.00  0.00    +0.000 C 
ATOM      9  C   UNL     1       9.865  15.431  21.568  0.00  0.00    +0.000 C 
ATOM     10  C   UNL     1       9.440  14.104  22.267  0.00  0.00    +0.000 C 
ATOM     11  C   UNL     1       9.042  13.060  21.162  0.00  0.00    +0.000 C 
ATOM     12  C   UNL     1       8.511  11.763  21.811  0.00  0.00    +0.000 C 
ATOM     13  C   UNL     1       7.318  12.069  22.719  0.00  0.00    +0.000 C 
ATOM     14  C   UNL     1       7.683  13.007  23.911  0.00  0.00    +0.000 C 
ATOM     15  C   UNL     1       8.587  12.205  24.888  0.00  0.00    +0.000 C 
ATOM     16  C   UNL     1       6.356  13.495  24.595  0.00  0.00    +0.000 C 
ATOM     17  C   UNL     1       5.874  14.601  23.641  0.00  0.00    +0.000 C 
ATOM     18  C   UNL     1       7.122  15.209  22.978  0.00  0.00    +0.000 C 
ATOM     19  C   UNL     1       8.339  14.334  23.393  0.00  0.00    +0.000 C 
ENDROOT
BRANCH   5  20
ATOM     20  O   UNL     1      10.314  13.457  16.470  0.00  0.00    +0.000 OA
ATOM     21  H   UNL     1      11.079  13.018  16.914  0.00  0.00    +0.000 HD
ENDBRANCH   5  20
BRANCH  19  22
ATOM     22  O   UNL     1       8.946  14.954  24.509  0.00  0.00    +0.000 OA
ATOM     23  H   UNL     1       8.397  14.791  25.317  0.00  0.00    +0.000 HD
ENDBRANCH  19  22
BRANCH  16  24
ATOM     24  C   UNL     1       6.467  13.993  26.073  0.00  0.00    +0.000 C 
BRANCH  24  25
ATOM     25  N   UNL     1       5.385  13.487  26.934  0.00  0.00    +0.000 NA
ATOM     26  H   UNL     1       4.645  14.220  27.013  0.00  0.00    +0.000 HD
BRANCH  25  27
ATOM     27  O   UNL     1       4.859  12.346  26.387  0.00  0.00    +0.000 OA
BRANCH  27  28
ATOM     28  C   UNL     1       4.271  11.606  27.433  0.00  0.00    +0.000 C 
BRANCH  28  29
ATOM     29  C   UNL     1       4.332  10.106  27.118  0.00  0.00    +0.000 C 
BRANCH  29  30
ATOM     30  N   UNL     1       3.959   9.849  25.731  0.00  0.00    +0.000 NA
ATOM     31  H   UNL     1       4.323   8.912  25.443  0.00  0.00    +0.000 HD
ATOM     32  H   UNL     1       4.423  10.567  25.126  0.00  0.00    +0.000 HD
ENDBRANCH  29  30
ENDBRANCH  28  29
ENDBRANCH  27  28
ENDBRANCH  25  27
ENDBRANCH  24  25
ENDBRANCH  16  24
TORSDOF 8
ENDMDL
MODEL 8
REMARK VINA RESULT:      -5.5     10.749     13.037
REMARK  Name = 
REMARK  10 active torsions:
REMARK  status: ('A' for Active; 'I' for Inactive)
REMARK    1  A    between atoms: C_1  and  C_2
REMARK    2  A    between atoms: C_5  and  O_6
REMARK    3  A    between atoms: C_15  and  C_16
REMARK    4  A    between atoms: C_17  and  C_18
REMARK    5  A    between atoms: C_18  and  N_19
REMARK    6  A    between atoms: N_19  and  O_20
REMARK    7  A    between atoms: O_20  and  C_21
REMARK    8  A    between atoms: C_21  and  C_22
REMARK    9  A    between atoms: C_22  and  N_23
REMARK   10  A    between atoms: C_26  and  O_27
REMARK                            x       y       z     vdW  Elec       q    Type
REMARK                         _______ _______ _______ _____ _____    ______ ____
ROOT
ATOM      1  C   UNL     1      10.506  15.442  21.138  0.00  0.00    +0.000 C 
ATOM      2  C   UNL     1       9.917  14.238  20.339  0.00  0.00    +0.000 C 
ATOM      3  C   UNL     1      10.290  12.965  21.179  0.00  0.00    +0.000 C 
ATOM      4  C   UNL     1       9.971  11.650  20.462  0.00  0.00    +0.000 C 
ATOM      5  C   UNL     1      10.698  11.564  19.107  0.00  0.00    +0.000 C 
ATOM      6  C   UNL     1      10.342  12.784  18.229  0.00  0.00    +0.000 C 
ATOM      7  C   UNL     1      10.637  14.137  18.944  0.00  0.00    +0.000 C 
ATOM      8  C   UNL     1      10.275  15.342  18.043  0.00  0.00    +0.000 C 
ATOM      9  C   UNL     1       8.758  15.527  17.863  0.00  0.00    +0.000 C 
ATOM     10  C   UNL     1       8.017  15.667  19.227  0.00  0.00    +0.000 C 
ATOM     11  C   UNL     1       8.342  14.405  20.105  0.00  0.00    +0.000 C 
ATOM     12  C   UNL     1       7.543  14.447  21.427  0.00  0.00    +0.000 C 
ATOM     13  C   UNL     1       6.043  14.536  21.142  0.00  0.00    +0.000 C 
ATOM     14  C   UNL     1       5.643  15.836  20.377  0.00  0.00    +0.000 C 
ATOM     15  C   UNL     1       5.821  17.034  21.350  0.00  0.00    +0.000 C 
ATOM     16  C   UNL     1       4.161  15.692  19.878  0.00  0.00    +0.000 C 
ATOM     17  C   UNL     1       4.310  14.796  18.636  0.00  0.00    +0.000 C 
ATOM     18  C   UNL     1       5.707  15.060  18.048  0.00  0.00    +0.000 C 
ATOM     19  C   UNL     1       6.466  15.974  19.050  0.00  0.00    +0.000 C 
ENDROOT
BRANCH   5  20
ATOM     20  O   UNL     1      12.091  11.401  19.260  0.00  0.00    +0.000 OA
ATOM     21  H   UNL     1      12.321  11.339  20.218  0.00  0.00    +0.000 HD
ENDBRANCH   5  20
BRANCH  19  22
ATOM     22  O   UNL     1       6.310  17.309  18.609  0.00  0.00    +0.000 OA
ATOM     23  H   UNL     1       6.875  17.907  19.159  0.00  0.00    +0.000 HD
ENDBRANCH  19  22
BRANCH  16  24
ATOM     24  C   UNL     1       3.392  17.016  19.564  0.00  0.00    +0.000 C 
BRANCH  24  25
ATOM     25  N   UNL     1       3.113  17.194  18.129  0.00  0.00    +0.000 NA
ATOM     26  H   UNL     1       3.647  16.476  17.589  0.00  0.00    +0.000 HD
BRANCH  25  27
ATOM     27  O   UNL     1       1.770  17.050  17.901  0.00  0.00    +0.000 OA
BRANCH  27  28
ATOM     28  C   UNL     1       1.089  17.721  18.937  0.00  0.00    +0.000 C 
BRANCH  28  29
ATOM     29  C   UNL     1      -0.368  17.247  19.006  0.00  0.00    +0.000 C 
BRANCH  29  30
ATOM     30  N   UNL     1      -0.495  15.878  18.517  0.00  0.00    +0.000 NA
ATOM     31  H   UNL     1      -0.507  15.220  19.331  0.00  0.00    +0.000 HD
ATOM     32  H   UNL     1       0.351  15.653  17.942  0.00  0.00    +0.000 HD
ENDBRANCH  29  30
ENDBRANCH  28  29
ENDBRANCH  27  28
ENDBRANCH  25  27
ENDBRANCH  24  25
ENDBRANCH  16  24
TORSDOF 8
ENDMDL
MODEL 9
REMARK VINA RESULT:      -5.5     10.210     12.713
REMARK  Name = 
REMARK  10 active torsions:
REMARK  status: ('A' for Active; 'I' for Inactive)
REMARK    1  A    between atoms: C_1  and  C_2
REMARK    2  A    between atoms: C_5  and  O_6
REMARK    3  A    between atoms: C_15  and  C_16
REMARK    4  A    between atoms: C_17  and  C_18
REMARK    5  A    between atoms: C_18  and  N_19
REMARK    6  A    between atoms: N_19  and  O_20
REMARK    7  A    between atoms: O_20  and  C_21
REMARK    8  A    between atoms: C_21  and  C_22
REMARK    9  A    between atoms: C_22  and  N_23
REMARK   10  A    between atoms: C_26  and  O_27
REMARK                            x       y       z     vdW  Elec       q    Type
REMARK                         _______ _______ _______ _____ _____    ______ ____
ROOT
ATOM      1  C   UNL     1      -3.989  12.907  24.842  0.00  0.00    +0.000 C 
ATOM      2  C   UNL     1      -3.588  14.264  24.184  0.00  0.00    +0.000 C 
ATOM      3  C   UNL     1      -2.972  15.119  25.347  0.00  0.00    +0.000 C 
ATOM      4  C   UNL     1      -2.692  16.573  24.950  0.00  0.00    +0.000 C 
ATOM      5  C   UNL     1      -3.975  17.272  24.462  0.00  0.00    +0.000 C 
ATOM      6  C   UNL     1      -4.606  16.482  23.295  0.00  0.00    +0.000 C 
ATOM      7  C   UNL     1      -4.881  14.994  23.666  0.00  0.00    +0.000 C 
ATOM      8  C   UNL     1      -5.517  14.226  22.483  0.00  0.00    +0.000 C 
ATOM      9  C   UNL     1      -4.533  13.974  21.328  0.00  0.00    +0.000 C 
ATOM     10  C   UNL     1      -3.253  13.219  21.800  0.00  0.00    +0.000 C 
ATOM     11  C   UNL     1      -2.583  14.046  22.956  0.00  0.00    +0.000 C 
ATOM     12  C   UNL     1      -1.251  13.391  23.386  0.00  0.00    +0.000 C 
ATOM     13  C   UNL     1      -0.305  13.270  22.190  0.00  0.00    +0.000 C 
ATOM     14  C   UNL     1      -0.867  12.357  21.056  0.00  0.00    +0.000 C 
ATOM     15  C   UNL     1      -0.858  10.893  21.576  0.00  0.00    +0.000 C 
ATOM     16  C   UNL     1       0.022  12.537  19.775  0.00  0.00    +0.000 C 
ATOM     17  C   UNL     1      -0.487  13.869  19.196  0.00  0.00    +0.000 C 
ATOM     18  C   UNL     1      -1.963  14.010  19.608  0.00  0.00    +0.000 C 
ATOM     19  C   UNL     1      -2.282  12.852  20.595  0.00  0.00    +0.000 C 
ENDROOT
BRANCH   5  20
ATOM     20  O   UNL     1      -4.888  17.503  25.512  0.00  0.00    +0.000 OA
ATOM     21  H   UNL     1      -5.039  18.473  25.623  0.00  0.00    +0.000 HD
ENDBRANCH   5  20
BRANCH  19  22
ATOM     22  O   UNL     1      -2.858  11.802  19.844  0.00  0.00    +0.000 OA
ATOM     23  H   UNL     1      -2.576  11.877  18.899  0.00  0.00    +0.000 HD
ENDBRANCH  19  22
BRANCH  16  24
ATOM     24  C   UNL     1      -0.016  11.382  18.723  0.00  0.00    +0.000 C 
BRANCH  24  25
ATOM     25  N   UNL     1      -0.975  11.626  17.633  0.00  0.00    +0.000 NA
ATOM     26  H   UNL     1      -0.457  11.652  16.726  0.00  0.00    +0.000 HD
BRANCH  25  27
ATOM     27  O   UNL     1      -1.910  10.623  17.611  0.00  0.00    +0.000 OA
BRANCH  27  28
ATOM     28  C   UNL     1      -2.314  10.450  16.272  0.00  0.00    +0.000 C 
BRANCH  28  29
ATOM     29  C   UNL     1      -3.696  11.079  16.051  0.00  0.00    +0.000 C 
BRANCH  29  30
ATOM     30  N   UNL     1      -4.060  11.942  17.171  0.00  0.00    +0.000 NA
ATOM     31  H   UNL     1      -4.262  12.904  16.814  0.00  0.00    +0.000 HD
ATOM     32  H   UNL     1      -3.239  12.010  17.816  0.00  0.00    +0.000 HD
ENDBRANCH  29  30
ENDBRANCH  28  29
ENDBRANCH  27  28
ENDBRANCH  25  27
ENDBRANCH  24  25
ENDBRANCH  16  24
TORSDOF 8
ENDMDL
