MODEL 1
REMARK VINA RESULT:      -8.4      0.000      0.000
REMARK  Name = 
REMARK  9 active torsions:
REMARK  status: ('A' for Active; 'I' for Inactive)
REMARK    1  A    between atoms: C_1  and  S_2
REMARK    2  A    between atoms: S_2  and  N_5
REMARK    3  A    between atoms: N_5  and  C_6
REMARK    4  A    between atoms: C_8  and  C_9
REMARK    5  A    between atoms: C_9  and  P_12
REMARK    6  A    between atoms: P_12  and  O_14
REMARK    7  A    between atoms: P_12  and  O_15
REMARK    8  A    between atoms: C_18  and  C_19
REMARK    9  A    between atoms: C_20  and  C_21
REMARK                            x       y       z     vdW  Elec       q    Type
REMARK                         _______ _______ _______ _____ _____    ______ ____
ROOT
ATOM      1  C   UNL     1       3.095   5.991  19.547  0.00  0.00    +0.000 A 
ATOM      2  C   UNL     1       4.155   5.635  18.700  0.00  0.00    +0.000 A 
ATOM      3  C   UNL     1       4.503   6.445  17.601  0.00  0.00    +0.000 A 
ATOM      4  C   UNL     1       3.732   7.580  17.328  0.00  0.00    +0.000 A 
ATOM      5  C   UNL     1       2.705   7.953  18.189  0.00  0.00    +0.000 A 
ATOM      6  C   UNL     1       2.410   7.194  19.331  0.00  0.00    +0.000 A 
ENDROOT
BRANCH   3   7
ATOM      7  C   UNL     1       5.733   6.179  16.779  0.00  0.00    +0.000 C 
ATOM      8  F   UNL     1       5.465   6.072  15.442  0.00  0.00    +0.000 F 
ATOM      9  F   UNL     1       6.698   7.139  16.871  0.00  0.00    +0.000 F 
BRANCH   7  10
ATOM     10  P   UNL     1       6.694   4.662  17.015  0.00  0.00    +0.000 P 
ATOM     11  O   UNL     1       7.277   4.409  18.373  0.00  0.00    +0.000 OA
BRANCH  10  12
ATOM     12  O   UNL     1       5.754   3.436  16.538  0.00  0.00    +0.000 OA
ATOM     13  H   UNL     1       4.844   3.714  16.309  0.00  0.00    +0.000 HD
ENDBRANCH  10  12
BRANCH  10  14
ATOM     14  O   UNL     1       7.814   4.611  15.858  0.00  0.00    +0.000 OA
ATOM     15  H   UNL     1       7.507   4.063  15.110  0.00  0.00    +0.000 HD
ENDBRANCH  10  14
ENDBRANCH   7  10
ENDBRANCH   3   7
BRANCH   1  16
ATOM     16  N   UNL     1       2.796   5.158  20.680  0.00  0.00    +0.000 N 
ATOM     17  H   UNL     1       3.627   4.934  21.234  0.00  0.00    +0.000 HD
BRANCH  16  19
ATOM     18  C   UNL     1       3.386   2.637  19.992  0.00  0.00    +0.000 C 
ATOM     19  S   UNL     1       1.998   3.695  20.352  0.00  0.00    +0.000 S 
ATOM     20  O   UNL     1       1.266   3.901  19.124  0.00  0.00    +0.000 OA
ATOM     21  O   UNL     1       1.354   3.202  21.549  0.00  0.00    +0.000 OA
ENDBRANCH  16  19
ENDBRANCH   1  16
BRANCH   6  22
ATOM     22  C   UNL     1       1.438   7.791  20.255  0.00  0.00    +0.000 C 
ATOM     23  C   UNL     1       0.686   8.843  19.913  0.00  0.00    +0.000 C 
BRANCH  23  24
ATOM     24  C   UNL     1       0.159   9.710  20.970  0.00  0.00    +0.000 A 
ATOM     25  C   UNL     1      -0.100   9.116  22.214  0.00  0.00    +0.000 A 
ATOM     26  C   UNL     1      -0.680   9.854  23.244  0.00  0.00    +0.000 A 
ATOM     27  C   UNL     1      -0.996  11.196  23.041  0.00  0.00    +0.000 A 
ATOM     28  C   UNL     1      -0.739  11.793  21.806  0.00  0.00    +0.000 A 
ATOM     29  C   UNL     1      -0.170  11.051  20.767  0.00  0.00    +0.000 A 
ENDBRANCH  23  24
ENDBRANCH   6  22
TORSDOF 8
ENDMDL
MODEL 2
REMARK VINA RESULT:      -8.4      0.868      1.384
REMARK  Name = 
REMARK  9 active torsions:
REMARK  status: ('A' for Active; 'I' for Inactive)
REMARK    1  A    between atoms: C_1  and  S_2
REMARK    2  A    between atoms: S_2  and  N_5
REMARK    3  A    between atoms: N_5  and  C_6
REMARK    4  A    between atoms: C_8  and  C_9
REMARK    5  A    between atoms: C_9  and  P_12
REMARK    6  A    between atoms: P_12  and  O_14
REMARK    7  A    between atoms: P_12  and  O_15
REMARK    8  A    between atoms: C_18  and  C_19
REMARK    9  A    between atoms: C_20  and  C_21
REMARK                            x       y       z     vdW  Elec       q    Type
REMARK                         _______ _______ _______ _____ _____    ______ ____
ROOT
ATOM      1  C   UNL     1       3.000   5.810  19.756  0.00  0.00    +0.000 A 
ATOM      2  C   UNL     1       3.829   5.279  18.757  0.00  0.00    +0.000 A 
ATOM      3  C   UNL     1       4.058   5.985  17.558  0.00  0.00    +0.000 A 
ATOM      4  C   UNL     1       3.393   7.198  17.352  0.00  0.00    +0.000 A 
ATOM      5  C   UNL     1       2.600   7.742  18.357  0.00  0.00    +0.000 A 
ATOM      6  C   UNL     1       2.437   7.082  19.584  0.00  0.00    +0.000 A 
ENDROOT
BRANCH   3   7
ATOM      7  C   UNL     1       5.068   5.521  16.547  0.00  0.00    +0.000 C 
ATOM      8  F   UNL     1       4.855   4.235  16.135  0.00  0.00    +0.000 F 
ATOM      9  F   UNL     1       5.106   6.259  15.400  0.00  0.00    +0.000 F 
BRANCH   7  10
ATOM     10  P   UNL     1       6.825   5.411  16.977  0.00  0.00    +0.000 P 
ATOM     11  O   UNL     1       7.480   6.629  17.554  0.00  0.00    +0.000 OA
BRANCH  10  12
ATOM     12  O   UNL     1       6.986   4.134  17.955  0.00  0.00    +0.000 OA
ATOM     13  H   UNL     1       7.225   4.377  18.872  0.00  0.00    +0.000 HD
ENDBRANCH  10  12
BRANCH  10  14
ATOM     14  O   UNL     1       7.609   4.861  15.681  0.00  0.00    +0.000 OA
ATOM     15  H   UNL     1       8.098   4.044  15.900  0.00  0.00    +0.000 HD
ENDBRANCH  10  14
ENDBRANCH   7  10
ENDBRANCH   3   7
BRANCH   1  16
ATOM     16  N   UNL     1       2.821   5.077  20.979  0.00  0.00    +0.000 N 
ATOM     17  H   UNL     1       3.710   4.803  21.406  0.00  0.00    +0.000 HD
BRANCH  16  19
ATOM     18  C   UNL     1       2.887   2.624  19.905  0.00  0.00    +0.000 C 
ATOM     19  S   UNL     1       1.852   3.685  20.892  0.00  0.00    +0.000 S 
ATOM     20  O   UNL     1       0.700   4.046  20.098  0.00  0.00    +0.000 OA
ATOM     21  O   UNL     1       1.717   3.092  22.204  0.00  0.00    +0.000 OA
ENDBRANCH  16  19
ENDBRANCH   1  16
BRANCH   6  22
ATOM     22  C   UNL     1       1.737   7.844  20.626  0.00  0.00    +0.000 C 
ATOM     23  C   UNL     1       0.414   8.040  20.595  0.00  0.00    +0.000 C 
BRANCH  23  24
ATOM     24  C   UNL     1      -0.147   9.195  21.299  0.00  0.00    +0.000 A 
ATOM     25  C   UNL     1      -0.321  10.373  20.557  0.00  0.00    +0.000 A 
ATOM     26  C   UNL     1      -0.770  11.539  21.174  0.00  0.00    +0.000 A 
ATOM     27  C   UNL     1      -1.059  11.534  22.538  0.00  0.00    +0.000 A 
ATOM     28  C   UNL     1      -0.890  10.364  23.281  0.00  0.00    +0.000 A 
ATOM     29  C   UNL     1      -0.427   9.197  22.667  0.00  0.00    +0.000 A 
ENDBRANCH  23  24
ENDBRANCH   6  22
TORSDOF 8
ENDMDL
MODEL 3
REMARK VINA RESULT:      -8.3      0.868      1.056
REMARK  Name = 
REMARK  9 active torsions:
REMARK  status: ('A' for Active; 'I' for Inactive)
REMARK    1  A    between atoms: C_1  and  S_2
REMARK    2  A    between atoms: S_2  and  N_5
REMARK    3  A    between atoms: N_5  and  C_6
REMARK    4  A    between atoms: C_8  and  C_9
REMARK    5  A    between atoms: C_9  and  P_12
REMARK    6  A    between atoms: P_12  and  O_14
REMARK    7  A    between atoms: P_12  and  O_15
REMARK    8  A    between atoms: C_18  and  C_19
REMARK    9  A    between atoms: C_20  and  C_21
REMARK                            x       y       z     vdW  Elec       q    Type
REMARK                         _______ _______ _______ _____ _____    ______ ____
ROOT
ATOM      1  C   UNL     1       2.962   5.677  19.851  0.00  0.00    +0.000 A 
ATOM      2  C   UNL     1       3.884   5.154  18.933  0.00  0.00    +0.000 A 
ATOM      3  C   UNL     1       4.218   5.864  17.762  0.00  0.00    +0.000 A 
ATOM      4  C   UNL     1       3.567   7.073  17.497  0.00  0.00    +0.000 A 
ATOM      5  C   UNL     1       2.680   7.610  18.425  0.00  0.00    +0.000 A 
ATOM      6  C   UNL     1       2.409   6.947  19.630  0.00  0.00    +0.000 A 
ENDROOT
BRANCH   3   7
ATOM      7  C   UNL     1       5.321   5.409  16.849  0.00  0.00    +0.000 C 
ATOM      8  F   UNL     1       5.227   4.084  16.522  0.00  0.00    +0.000 F 
ATOM      9  F   UNL     1       5.379   6.066  15.654  0.00  0.00    +0.000 F 
BRANCH   7  10
ATOM     10  P   UNL     1       7.051   5.463  17.386  0.00  0.00    +0.000 P 
ATOM     11  O   UNL     1       7.340   5.212  18.836  0.00  0.00    +0.000 OA
BRANCH  10  12
ATOM     12  O   UNL     1       7.865   4.440  16.435  0.00  0.00    +0.000 OA
ATOM     13  H   UNL     1       7.593   4.485  15.496  0.00  0.00    +0.000 HD
ENDBRANCH  10  12
BRANCH  10  14
ATOM     14  O   UNL     1       7.674   6.860  16.879  0.00  0.00    +0.000 OA
ATOM     15  H   UNL     1       8.538   7.021  17.305  0.00  0.00    +0.000 HD
ENDBRANCH  10  14
ENDBRANCH   7  10
ENDBRANCH   3   7
BRANCH   1  16
ATOM     16  N   UNL     1       2.675   4.941  21.052  0.00  0.00    +0.000 N 
ATOM     17  H   UNL     1       3.521   4.698  21.575  0.00  0.00    +0.000 HD
BRANCH  16  19
ATOM     18  C   UNL     1       2.922   2.507  19.958  0.00  0.00    +0.000 C 
ATOM     19  S   UNL     1       1.769   3.517  20.867  0.00  0.00    +0.000 S 
ATOM     20  O   UNL     1       0.675   3.847  19.982  0.00  0.00    +0.000 OA
ATOM     21  O   UNL     1       1.545   2.899  22.155  0.00  0.00    +0.000 OA
ENDBRANCH  16  19
ENDBRANCH   1  16
BRANCH   6  22
ATOM     22  C   UNL     1       1.610   7.702  20.603  0.00  0.00    +0.000 C 
ATOM     23  C   UNL     1       0.553   8.436  20.238  0.00  0.00    +0.000 C 
BRANCH  23  24
ATOM     24  C   UNL     1       0.135   9.550  21.093  0.00  0.00    +0.000 A 
ATOM     25  C   UNL     1      -0.339   9.230  22.374  0.00  0.00    +0.000 A 
ATOM     26  C   UNL     1      -0.833  10.225  23.215  0.00  0.00    +0.000 A 
ATOM     27  C   UNL     1      -0.846  11.551  22.785  0.00  0.00    +0.000 A 
ATOM     28  C   UNL     1      -0.373  11.876  21.513  0.00  0.00    +0.000 A 
ATOM     29  C   UNL     1       0.110  10.877  20.662  0.00  0.00    +0.000 A 
ENDBRANCH  23  24
ENDBRANCH   6  22
TORSDOF 8
ENDMDL
MODEL 4
REMARK VINA RESULT:      -8.3      0.764      1.318
REMARK  Name = 
REMARK  9 active torsions:
REMARK  status: ('A' for Active; 'I' for Inactive)
REMARK    1  A    between atoms: C_1  and  S_2
REMARK    2  A    between atoms: S_2  and  N_5
REMARK    3  A    between atoms: N_5  and  C_6
REMARK    4  A    between atoms: C_8  and  C_9
REMARK    5  A    between atoms: C_9  and  P_12
REMARK    6  A    between atoms: P_12  and  O_14
REMARK    7  A    between atoms: P_12  and  O_15
REMARK    8  A    between atoms: C_18  and  C_19
REMARK    9  A    between atoms: C_20  and  C_21
REMARK                            x       y       z     vdW  Elec       q    Type
REMARK                         _______ _______ _______ _____ _____    ______ ____
ROOT
ATOM      1  C   UNL     1       3.133   5.924  19.508  0.00  0.00    +0.000 A 
ATOM      2  C   UNL     1       4.225   5.622  18.682  0.00  0.00    +0.000 A 
ATOM      3  C   UNL     1       4.584   6.474  17.618  0.00  0.00    +0.000 A 
ATOM      4  C   UNL     1       3.791   7.596  17.356  0.00  0.00    +0.000 A 
ATOM      5  C   UNL     1       2.729   7.916  18.197  0.00  0.00    +0.000 A 
ATOM      6  C   UNL     1       2.422   7.116  19.307  0.00  0.00    +0.000 A 
ENDROOT
BRANCH   3   7
ATOM      7  C   UNL     1       5.843   6.264  16.826  0.00  0.00    +0.000 C 
ATOM      8  F   UNL     1       5.625   6.249  15.476  0.00  0.00    +0.000 F 
ATOM      9  F   UNL     1       6.802   7.216  17.019  0.00  0.00    +0.000 F 
BRANCH   7  10
ATOM     10  P   UNL     1       6.799   4.734  16.993  0.00  0.00    +0.000 P 
ATOM     11  O   UNL     1       7.506   4.491  18.292  0.00  0.00    +0.000 OA
BRANCH  10  12
ATOM     12  O   UNL     1       5.798   3.518  16.628  0.00  0.00    +0.000 OA
ATOM     13  H   UNL     1       4.901   3.631  17.003  0.00  0.00    +0.000 HD
ENDBRANCH  10  12
BRANCH  10  14
ATOM     14  O   UNL     1       7.801   4.647  15.735  0.00  0.00    +0.000 OA
ATOM     15  H   UNL     1       7.917   3.718  15.455  0.00  0.00    +0.000 HD
ENDBRANCH  10  14
ENDBRANCH   7  10
ENDBRANCH   3   7
BRANCH   1  16
ATOM     16  N   UNL     1       2.822   5.051  20.606  0.00  0.00    +0.000 N 
ATOM     17  H   UNL     1       3.553   5.046  21.323  0.00  0.00    +0.000 HD
BRANCH  16  19
ATOM     18  C   UNL     1       1.582   2.922  21.658  0.00  0.00    +0.000 C 
ATOM     19  S   UNL     1       2.490   3.432  20.213  0.00  0.00    +0.000 S 
ATOM     20  O   UNL     1       3.763   2.746  20.223  0.00  0.00    +0.000 OA
ATOM     21  O   UNL     1       1.601   3.369  19.075  0.00  0.00    +0.000 OA
ENDBRANCH  16  19
ENDBRANCH   1  16
BRANCH   6  22
ATOM     22  C   UNL     1       1.409   7.660  20.219  0.00  0.00    +0.000 C 
ATOM     23  C   UNL     1       0.632   8.696  19.882  0.00  0.00    +0.000 C 
BRANCH  23  24
ATOM     24  C   UNL     1       0.050   9.520  20.944  0.00  0.00    +0.000 A 
ATOM     25  C   UNL     1      -0.290  10.840  20.615  0.00  0.00    +0.000 A 
ATOM     26  C   UNL     1      -0.770  11.712  21.591  0.00  0.00    +0.000 A 
ATOM     27  C   UNL     1      -0.923  11.266  22.903  0.00  0.00    +0.000 A 
ATOM     28  C   UNL     1      -0.588   9.953  23.236  0.00  0.00    +0.000 A 
ATOM     29  C   UNL     1      -0.093   9.081  22.261  0.00  0.00    +0.000 A 
ENDBRANCH  23  24
ENDBRANCH   6  22
TORSDOF 8
ENDMDL
MODEL 5
REMARK VINA RESULT:      -8.2      1.295      1.860
REMARK  Name = 
REMARK  9 active torsions:
REMARK  status: ('A' for Active; 'I' for Inactive)
REMARK    1  A    between atoms: C_1  and  S_2
REMARK    2  A    between atoms: S_2  and  N_5
REMARK    3  A    between atoms: N_5  and  C_6
REMARK    4  A    between atoms: C_8  and  C_9
REMARK    5  A    between atoms: C_9  and  P_12
REMARK    6  A    between atoms: P_12  and  O_14
REMARK    7  A    between atoms: P_12  and  O_15
REMARK    8  A    between atoms: C_18  and  C_19
REMARK    9  A    between atoms: C_20  and  C_21
REMARK                            x       y       z     vdW  Elec       q    Type
REMARK                         _______ _______ _______ _____ _____    ______ ____
ROOT
ATOM      1  C   UNL     1       3.118   5.667  19.744  0.00  0.00    +0.000 A 
ATOM      2  C   UNL     1       3.912   5.047  18.768  0.00  0.00    +0.000 A 
ATOM      3  C   UNL     1       4.179   5.686  17.541  0.00  0.00    +0.000 A 
ATOM      4  C   UNL     1       3.586   6.927  17.283  0.00  0.00    +0.000 A 
ATOM      5  C   UNL     1       2.829   7.559  18.265  0.00  0.00    +0.000 A 
ATOM      6  C   UNL     1       2.631   6.963  19.519  0.00  0.00    +0.000 A 
ENDROOT
BRANCH   3   7
ATOM      7  C   UNL     1       5.157   5.122  16.550  0.00  0.00    +0.000 C 
ATOM      8  F   UNL     1       5.231   3.757  16.597  0.00  0.00    +0.000 F 
ATOM      9  F   UNL     1       4.882   5.417  15.247  0.00  0.00    +0.000 F 
BRANCH   7  10
ATOM     10  P   UNL     1       6.921   5.522  16.658  0.00  0.00    +0.000 P 
ATOM     11  O   UNL     1       7.779   4.664  17.537  0.00  0.00    +0.000 OA
BRANCH  10  12
ATOM     12  O   UNL     1       7.482   5.563  15.142  0.00  0.00    +0.000 OA
ATOM     13  H   UNL     1       8.361   5.144  15.044  0.00  0.00    +0.000 HD
ENDBRANCH  10  12
BRANCH  10  14
ATOM     14  O   UNL     1       7.042   7.084  17.034  0.00  0.00    +0.000 OA
ATOM     15  H   UNL     1       6.401   7.610  16.517  0.00  0.00    +0.000 HD
ENDBRANCH  10  14
ENDBRANCH   7  10
ENDBRANCH   3   7
BRANCH   1  16
ATOM     16  N   UNL     1       2.900   4.999  20.997  0.00  0.00    +0.000 N 
ATOM     17  H   UNL     1       3.737   4.988  21.588  0.00  0.00    +0.000 HD
BRANCH  16  19
ATOM     18  C   UNL     1       0.846   3.639  19.942  0.00  0.00    +0.000 C 
ATOM     19  S   UNL     1       2.322   3.404  20.913  0.00  0.00    +0.000 S 
ATOM     20  O   UNL     1       1.919   3.050  22.255  0.00  0.00    +0.000 OA
ATOM     21  O   UNL     1       3.238   2.584  20.151  0.00  0.00    +0.000 OA
ENDBRANCH  16  19
ENDBRANCH   1  16
BRANCH   6  22
ATOM     22  C   UNL     1       1.981   7.808  20.528  0.00  0.00    +0.000 C 
ATOM     23  C   UNL     1       0.659   7.779  20.734  0.00  0.00    +0.000 C 
BRANCH  23  24
ATOM     24  C   UNL     1       0.008   8.954  21.319  0.00  0.00    +0.000 A 
ATOM     25  C   UNL     1      -0.216  10.048  20.471  0.00  0.00    +0.000 A 
ATOM     26  C   UNL     1      -0.753  11.233  20.972  0.00  0.00    +0.000 A 
ATOM     27  C   UNL     1      -1.080  11.328  22.323  0.00  0.00    +0.000 A 
ATOM     28  C   UNL     1      -0.862  10.242  23.171  0.00  0.00    +0.000 A 
ATOM     29  C   UNL     1      -0.310   9.057  22.674  0.00  0.00    +0.000 A 
ENDBRANCH  23  24
ENDBRANCH   6  22
TORSDOF 8
ENDMDL
MODEL 6
REMARK VINA RESULT:      -8.2      1.011      1.483
REMARK  Name = 
REMARK  9 active torsions:
REMARK  status: ('A' for Active; 'I' for Inactive)
REMARK    1  A    between atoms: C_1  and  S_2
REMARK    2  A    between atoms: S_2  and  N_5
REMARK    3  A    between atoms: N_5  and  C_6
REMARK    4  A    between atoms: C_8  and  C_9
REMARK    5  A    between atoms: C_9  and  P_12
REMARK    6  A    between atoms: P_12  and  O_14
REMARK    7  A    between atoms: P_12  and  O_15
REMARK    8  A    between atoms: C_18  and  C_19
REMARK    9  A    between atoms: C_20  and  C_21
REMARK                            x       y       z     vdW  Elec       q    Type
REMARK                         _______ _______ _______ _____ _____    ______ ____
ROOT
ATOM      1  C   UNL     1       2.898   6.075  19.843  0.00  0.00    +0.000 A 
ATOM      2  C   UNL     1       3.981   5.635  19.069  0.00  0.00    +0.000 A 
ATOM      3  C   UNL     1       4.371   6.334  17.909  0.00  0.00    +0.000 A 
ATOM      4  C   UNL     1       3.618   7.442  17.504  0.00  0.00    +0.000 A 
ATOM      5  C   UNL     1       2.567   7.901  18.292  0.00  0.00    +0.000 A 
ATOM      6  C   UNL     1       2.230   7.256  19.492  0.00  0.00    +0.000 A 
ENDROOT
BRANCH   3   7
ATOM      7  C   UNL     1       5.623   5.985  17.157  0.00  0.00    +0.000 C 
ATOM      8  F   UNL     1       5.375   5.283  16.010  0.00  0.00    +0.000 F 
ATOM      9  F   UNL     1       6.369   7.057  16.762  0.00  0.00    +0.000 F 
BRANCH   7  10
ATOM     10  P   UNL     1       6.881   4.912  17.899  0.00  0.00    +0.000 P 
ATOM     11  O   UNL     1       7.975   4.401  17.011  0.00  0.00    +0.000 OA
BRANCH  10  12
ATOM     12  O   UNL     1       7.478   5.708  19.173  0.00  0.00    +0.000 OA
ATOM     13  H   UNL     1       6.954   6.499  19.415  0.00  0.00    +0.000 HD
ENDBRANCH  10  12
BRANCH  10  14
ATOM     14  O   UNL     1       6.114   3.718  18.661  0.00  0.00    +0.000 OA
ATOM     15  H   UNL     1       6.745   3.019  18.921  0.00  0.00    +0.000 HD
ENDBRANCH  10  14
ENDBRANCH   7  10
ENDBRANCH   3   7
BRANCH   1  16
ATOM     16  N   UNL     1       2.555   5.356  21.039  0.00  0.00    +0.000 N 
ATOM     17  H   UNL     1       3.222   5.517  21.800  0.00  0.00    +0.000 HD
BRANCH  16  19
ATOM     18  C   UNL     1       0.912   3.602  19.854  0.00  0.00    +0.000 C 
ATOM     19  S   UNL     1       2.365   3.675  20.883  0.00  0.00    +0.000 S 
ATOM     20  O   UNL     1       2.005   3.187  22.195  0.00  0.00    +0.000 OA
ATOM     21  O   UNL     1       3.473   3.117  20.141  0.00  0.00    +0.000 OA
ENDBRANCH  16  19
ENDBRANCH   1  16
BRANCH   6  22
ATOM     22  C   UNL     1       1.234   7.944  20.322  0.00  0.00    +0.000 C 
ATOM     23  C   UNL     1       0.687   9.109  19.958  0.00  0.00    +0.000 C 
BRANCH  23  24
ATOM     24  C   UNL     1       0.147   9.992  20.994  0.00  0.00    +0.000 A 
ATOM     25  C   UNL     1      -0.236   9.397  22.206  0.00  0.00    +0.000 A 
ATOM     26  C   UNL     1      -0.836  10.155  23.209  0.00  0.00    +0.000 A 
ATOM     27  C   UNL     1      -1.048  11.519  23.013  0.00  0.00    +0.000 A 
ATOM     28  C   UNL     1      -0.666  12.117  21.811  0.00  0.00    +0.000 A 
ATOM     29  C   UNL     1      -0.077  11.356  20.798  0.00  0.00    +0.000 A 
ENDBRANCH  23  24
ENDBRANCH   6  22
TORSDOF 8
ENDMDL
MODEL 7
REMARK VINA RESULT:      -8.2      0.766      1.268
REMARK  Name = 
REMARK  9 active torsions:
REMARK  status: ('A' for Active; 'I' for Inactive)
REMARK    1  A    between atoms: C_1  and  S_2
REMARK    2  A    between atoms: S_2  and  N_5
REMARK    3  A    between atoms: N_5  and  C_6
REMARK    4  A    between atoms: C_8  and  C_9
REMARK    5  A    between atoms: C_9  and  P_12
REMARK    6  A    between atoms: P_12  and  O_14
REMARK    7  A    between atoms: P_12  and  O_15
REMARK    8  A    between atoms: C_18  and  C_19
REMARK    9  A    between atoms: C_20  and  C_21
REMARK                            x       y       z     vdW  Elec       q    Type
REMARK                         _______ _______ _______ _____ _____    ______ ____
ROOT
ATOM      1  C   UNL     1       3.135   5.979  19.468  0.00  0.00    +0.000 A 
ATOM      2  C   UNL     1       4.173   5.631  18.591  0.00  0.00    +0.000 A 
ATOM      3  C   UNL     1       4.512   6.466  17.507  0.00  0.00    +0.000 A 
ATOM      4  C   UNL     1       3.754   7.619  17.280  0.00  0.00    +0.000 A 
ATOM      5  C   UNL     1       2.749   7.984  18.171  0.00  0.00    +0.000 A 
ATOM      6  C   UNL     1       2.464   7.199  19.298  0.00  0.00    +0.000 A 
ENDROOT
BRANCH   3   7
ATOM      7  C   UNL     1       5.721   6.204  16.655  0.00  0.00    +0.000 C 
ATOM      8  F   UNL     1       5.485   6.404  15.322  0.00  0.00    +0.000 F 
ATOM      9  F   UNL     1       6.802   6.985  16.944  0.00  0.00    +0.000 F 
BRANCH   7  10
ATOM     10  P   UNL     1       6.465   4.553  16.583  0.00  0.00    +0.000 P 
ATOM     11  O   UNL     1       5.597   3.415  16.137  0.00  0.00    +0.000 OA
BRANCH  10  12
ATOM     12  O   UNL     1       7.791   4.680  15.667  0.00  0.00    +0.000 OA
ATOM     13  H   UNL     1       8.363   3.886  15.702  0.00  0.00    +0.000 HD
ENDBRANCH  10  12
BRANCH  10  14
ATOM     14  O   UNL     1       7.150   4.266  18.013  0.00  0.00    +0.000 OA
ATOM     15  H   UNL     1       6.622   3.618  18.519  0.00  0.00    +0.000 HD
ENDBRANCH  10  14
ENDBRANCH   7  10
ENDBRANCH   3   7
BRANCH   1  16
ATOM     16  N   UNL     1       2.844   5.121  20.583  0.00  0.00    +0.000 N 
ATOM     17  H   UNL     1       3.606   5.092  21.267  0.00  0.00    +0.000 HD
BRANCH  16  19
ATOM     18  C   UNL     1       1.579   3.041  21.702  0.00  0.00    +0.000 C 
ATOM     19  S   UNL     1       2.437   3.514  20.214  0.00  0.00    +0.000 S 
ATOM     20  O   UNL     1       3.683   2.783  20.169  0.00  0.00    +0.000 OA
ATOM     21  O   UNL     1       1.494   3.479  19.118  0.00  0.00    +0.000 OA
ENDBRANCH  16  19
ENDBRANCH   1  16
BRANCH   6  22
ATOM     22  C   UNL     1       1.520   7.785  20.256  0.00  0.00    +0.000 C 
ATOM     23  C   UNL     1       0.694   8.783  19.921  0.00  0.00    +0.000 C 
BRANCH  23  24
ATOM     24  C   UNL     1       0.187   9.666  20.974  0.00  0.00    +0.000 A 
ATOM     25  C   UNL     1      -0.091   9.082  22.219  0.00  0.00    +0.000 A 
ATOM     26  C   UNL     1      -0.655   9.837  23.245  0.00  0.00    +0.000 A 
ATOM     27  C   UNL     1      -0.935  11.186  23.038  0.00  0.00    +0.000 A 
ATOM     28  C   UNL     1      -0.659  11.774  21.803  0.00  0.00    +0.000 A 
ATOM     29  C   UNL     1      -0.106  11.015  20.767  0.00  0.00    +0.000 A 
ENDBRANCH  23  24
ENDBRANCH   6  22
TORSDOF 8
ENDMDL
MODEL 8
REMARK VINA RESULT:      -8.2      1.285      1.751
REMARK  Name = 
REMARK  9 active torsions:
REMARK  status: ('A' for Active; 'I' for Inactive)
REMARK    1  A    between atoms: C_1  and  S_2
REMARK    2  A    between atoms: S_2  and  N_5
REMARK    3  A    between atoms: N_5  and  C_6
REMARK    4  A    between atoms: C_8  and  C_9
REMARK    5  A    between atoms: C_9  and  P_12
REMARK    6  A    between atoms: P_12  and  O_14
REMARK    7  A    between atoms: P_12  and  O_15
REMARK    8  A    between atoms: C_18  and  C_19
REMARK    9  A    between atoms: C_20  and  C_21
REMARK                            x       y       z     vdW  Elec       q    Type
REMARK                         _______ _______ _______ _____ _____    ______ ____
ROOT
ATOM      1  C   UNL     1       3.195   5.563  19.901  0.00  0.00    +0.000 A 
ATOM      2  C   UNL     1       4.349   5.103  19.251  0.00  0.00    +0.000 A 
ATOM      3  C   UNL     1       4.831   5.747  18.094  0.00  0.00    +0.000 A 
ATOM      4  C   UNL     1       4.103   6.818  17.565  0.00  0.00    +0.000 A 
ATOM      5  C   UNL     1       2.979   7.298  18.230  0.00  0.00    +0.000 A 
ATOM      6  C   UNL     1       2.545   6.712  19.428  0.00  0.00    +0.000 A 
ENDROOT
BRANCH   3   7
ATOM      7  C   UNL     1       6.151   5.381  17.476  0.00  0.00    +0.000 C 
ATOM      8  F   UNL     1       7.039   6.422  17.465  0.00  0.00    +0.000 F 
ATOM      9  F   UNL     1       6.809   4.361  18.100  0.00  0.00    +0.000 F 
BRANCH   7  10
ATOM     10  P   UNL     1       6.254   4.881  15.738  0.00  0.00    +0.000 P 
ATOM     11  O   UNL     1       5.185   5.369  14.807  0.00  0.00    +0.000 OA
BRANCH  10  12
ATOM     12  O   UNL     1       7.726   5.303  15.219  0.00  0.00    +0.000 OA
ATOM     13  H   UNL     1       7.715   6.053  14.590  0.00  0.00    +0.000 HD
ENDBRANCH  10  12
BRANCH  10  14
ATOM     14  O   UNL     1       6.401   3.278  15.700  0.00  0.00    +0.000 OA
ATOM     15  H   UNL     1       7.344   3.023  15.673  0.00  0.00    +0.000 HD
ENDBRANCH  10  14
ENDBRANCH   7  10
ENDBRANCH   3   7
BRANCH   1  16
ATOM     16  N   UNL     1       2.756   4.902  21.099  0.00  0.00    +0.000 N 
ATOM     17  H   UNL     1       3.446   4.957  21.854  0.00  0.00    +0.000 HD
BRANCH  16  19
ATOM     18  C   UNL     1       0.988   3.404  19.755  0.00  0.00    +0.000 C 
ATOM     19  S   UNL     1       2.309   3.271  20.943  0.00  0.00    +0.000 S 
ATOM     20  O   UNL     1       1.730   2.889  22.210  0.00  0.00    +0.000 OA
ATOM     21  O   UNL     1       3.385   2.517  20.339  0.00  0.00    +0.000 OA
ENDBRANCH  16  19
ENDBRANCH   1  16
BRANCH   6  22
ATOM     22  C   UNL     1       1.470   7.424  20.129  0.00  0.00    +0.000 C 
ATOM     23  C   UNL     1       1.233   8.726  19.931  0.00  0.00    +0.000 C 
BRANCH  23  24
ATOM     24  C   UNL     1       0.560   9.490  20.984  0.00  0.00    +0.000 A 
ATOM     25  C   UNL     1       0.584   8.953  22.279  0.00  0.00    +0.000 A 
ATOM     26  C   UNL     1      -0.104   9.577  23.318  0.00  0.00    +0.000 A 
ATOM     27  C   UNL     1      -0.815  10.750  23.071  0.00  0.00    +0.000 A 
ATOM     28  C   UNL     1      -0.841  11.291  21.784  0.00  0.00    +0.000 A 
ATOM     29  C   UNL     1      -0.162  10.659  20.738  0.00  0.00    +0.000 A 
ENDBRANCH  23  24
ENDBRANCH   6  22
TORSDOF 8
ENDMDL
MODEL 9
REMARK VINA RESULT:      -8.2      1.320      1.693
REMARK  Name = 
REMARK  9 active torsions:
REMARK  status: ('A' for Active; 'I' for Inactive)
REMARK    1  A    between atoms: C_1  and  S_2
REMARK    2  A    between atoms: S_2  and  N_5
REMARK    3  A    between atoms: N_5  and  C_6
REMARK    4  A    between atoms: C_8  and  C_9
REMARK    5  A    between atoms: C_9  and  P_12
REMARK    6  A    between atoms: P_12  and  O_14
REMARK    7  A    between atoms: P_12  and  O_15
REMARK    8  A    between atoms: C_18  and  C_19
REMARK    9  A    between atoms: C_20  and  C_21
REMARK                            x       y       z     vdW  Elec       q    Type
REMARK                         _______ _______ _______ _____ _____    ______ ____
ROOT
ATOM      1  C   UNL     1       3.542   5.569  19.473  0.00  0.00    +0.000 A 
ATOM      2  C   UNL     1       4.703   5.170  18.795  0.00  0.00    +0.000 A 
ATOM      3  C   UNL     1       5.202   5.922  17.714  0.00  0.00    +0.000 A 
ATOM      4  C   UNL     1       4.485   7.043  17.283  0.00  0.00    +0.000 A 
ATOM      5  C   UNL     1       3.354   7.460  17.978  0.00  0.00    +0.000 A 
ATOM      6  C   UNL     1       2.902   6.761  19.107  0.00  0.00    +0.000 A 
ENDROOT
BRANCH   3   7
ATOM      7  C   UNL     1       6.529   5.613  17.080  0.00  0.00    +0.000 C 
ATOM      8  F   UNL     1       7.296   6.728  16.882  0.00  0.00    +0.000 F 
ATOM      9  F   UNL     1       7.319   4.762  17.797  0.00  0.00    +0.000 F 
BRANCH   7  10
ATOM     10  P   UNL     1       6.617   4.890  15.420  0.00  0.00    +0.000 P 
ATOM     11  O   UNL     1       7.785   5.263  14.558  0.00  0.00    +0.000 OA
BRANCH  10  12
ATOM     12  O   UNL     1       6.507   3.288  15.605  0.00  0.00    +0.000 OA
ATOM     13  H   UNL     1       6.515   2.800  14.756  0.00  0.00    +0.000 HD
ENDBRANCH  10  12
BRANCH  10  14
ATOM     14  O   UNL     1       5.210   5.177  14.690  0.00  0.00    +0.000 OA
ATOM     15  H   UNL     1       5.335   5.236  13.722  0.00  0.00    +0.000 HD
ENDBRANCH  10  14
ENDBRANCH   7  10
ENDBRANCH   3   7
BRANCH   1  16
ATOM     16  N   UNL     1       3.086   4.796  20.595  0.00  0.00    +0.000 N 
ATOM     17  H   UNL     1       3.761   4.783  21.365  0.00  0.00    +0.000 HD
BRANCH  16  19
ATOM     18  C   UNL     1       1.509   2.881  21.608  0.00  0.00    +0.000 C 
ATOM     19  S   UNL     1       2.654   3.184  20.277  0.00  0.00    +0.000 S 
ATOM     20  O   UNL     1       3.839   2.394  20.523  0.00  0.00    +0.000 OA
ATOM     21  O   UNL     1       1.929   3.101  19.029  0.00  0.00    +0.000 OA
ENDBRANCH  16  19
ENDBRANCH   1  16
BRANCH   6  22
ATOM     22  C   UNL     1       1.820   7.406  19.860  0.00  0.00    +0.000 C 
ATOM     23  C   UNL     1       1.440   8.667  19.621  0.00  0.00    +0.000 C 
BRANCH  23  24
ATOM     24  C   UNL     1       0.779   9.421  20.689  0.00  0.00    +0.000 A 
ATOM     25  C   UNL     1       0.572   8.757  21.907  0.00  0.00    +0.000 A 
ATOM     26  C   UNL     1      -0.124   9.377  22.943  0.00  0.00    +0.000 A 
ATOM     27  C   UNL     1      -0.609  10.673  22.771  0.00  0.00    +0.000 A 
ATOM     28  C   UNL     1      -0.404  11.340  21.562  0.00  0.00    +0.000 A 
ATOM     29  C   UNL     1       0.282  10.714  20.517  0.00  0.00    +0.000 A 
ENDBRANCH  23  24
ENDBRANCH   6  22
TORSDOF 8
ENDMDL
