MODEL 1
REMARK VINA RESULT:      -7.6      0.000      0.000
REMARK  Name = 
REMARK  6 active torsions:
REMARK  status: ('A' for Active; 'I' for Inactive)
REMARK    1  A    between atoms: C_1  and  O_2
REMARK    2  A    between atoms: O_2  and  C_3
REMARK    3  A    between atoms: C_3  and  C_5
REMARK    4  A    between atoms: C_7  and  O_8
REMARK    5  A    between atoms: C_12  and  C_13
REMARK    6  A    between atoms: C_16  and  O_17
REMARK                            x       y       z     vdW  Elec       q    Type
REMARK                         _______ _______ _______ _____ _____    ______ ____
ROOT
ATOM      1  C   UNL     1       6.804   5.734  16.678  0.00  0.00    +0.000 A 
ATOM      2  C   UNL     1       7.255   5.624  15.348  0.00  0.00    +0.000 A 
ATOM      3  C   UNL     1       6.643   4.743  14.456  0.00  0.00    +0.000 A 
ATOM      4  C   UNL     1       5.568   3.938  14.832  0.00  0.00    +0.000 A 
ATOM      5  C   UNL     1       5.101   4.043  16.148  0.00  0.00    +0.000 A 
ATOM      6  N   UNL     1       4.082   3.381  16.788  0.00  0.00    +0.000 NA
ATOM      7  C   UNL     1       4.105   3.875  18.012  0.00  0.00    +0.000 A 
ATOM      8  O   UNL     1       5.071   4.826  18.218  0.00  0.00    +0.000 OA
ATOM      9  C   UNL     1       5.719   4.928  17.020  0.00  0.00    +0.000 A 
ENDROOT
BRANCH   7  10
ATOM     10  C   UNL     1       3.269   3.541  19.163  0.00  0.00    +0.000 A 
ATOM     11  C   UNL     1       1.939   3.992  19.224  0.00  0.00    +0.000 A 
ATOM     12  C   UNL     1       1.125   3.680  20.318  0.00  0.00    +0.000 A 
ATOM     13  C   UNL     1       1.642   2.918  21.359  0.00  0.00    +0.000 A 
ATOM     14  C   UNL     1       2.950   2.453  21.315  0.00  0.00    +0.000 A 
ATOM     15  C   UNL     1       3.760   2.764  20.223  0.00  0.00    +0.000 A 
BRANCH  13  16
ATOM     16  O   UNL     1       0.895   2.602  22.454  0.00  0.00    +0.000 OA
ATOM     17  H   UNL     1       1.265   3.059  23.226  0.00  0.00    +0.000 HD
ENDBRANCH  13  16
ENDBRANCH   7  10
BRANCH   1  18
ATOM     18  C   UNL     1       7.442   6.619  17.676  0.00  0.00    +0.000 C 
ATOM     19  O   UNL     1       7.807   6.274  18.786  0.00  0.00    +0.000 OA
BRANCH  18  21
ATOM     20  C   UNL     1       8.188   8.815  18.027  0.00  0.00    +0.000 C 
ATOM     21  O   UNL     1       7.576   7.866  17.152  0.00  0.00    +0.000 OA
ENDBRANCH  18  21
ENDBRANCH   1  18
BRANCH   3  22
ATOM     22  O   UNL     1       7.085   4.631  13.169  0.00  0.00    +0.000 OA
ATOM     23  H   UNL     1       6.668   3.862  12.746  0.00  0.00    +0.000 HD
ENDBRANCH   3  22
TORSDOF 5
ENDMDL
MODEL 2
REMARK VINA RESULT:      -7.6      0.049      1.055
REMARK  Name = 
REMARK  6 active torsions:
REMARK  status: ('A' for Active; 'I' for Inactive)
REMARK    1  A    between atoms: C_1  and  O_2
REMARK    2  A    between atoms: O_2  and  C_3
REMARK    3  A    between atoms: C_3  and  C_5
REMARK    4  A    between atoms: C_7  and  O_8
REMARK    5  A    between atoms: C_12  and  C_13
REMARK    6  A    between atoms: C_16  and  O_17
REMARK                            x       y       z     vdW  Elec       q    Type
REMARK                         _______ _______ _______ _____ _____    ______ ____
ROOT
ATOM      1  C   UNL     1       6.805   5.764  16.714  0.00  0.00    +0.000 A 
ATOM      2  C   UNL     1       7.271   5.651  15.388  0.00  0.00    +0.000 A 
ATOM      3  C   UNL     1       6.678   4.757  14.496  0.00  0.00    +0.000 A 
ATOM      4  C   UNL     1       5.607   3.943  14.867  0.00  0.00    +0.000 A 
ATOM      5  C   UNL     1       5.126   4.051  16.177  0.00  0.00    +0.000 A 
ATOM      6  N   UNL     1       4.108   3.382  16.811  0.00  0.00    +0.000 NA
ATOM      7  C   UNL     1       4.113   3.884  18.032  0.00  0.00    +0.000 A 
ATOM      8  O   UNL     1       5.067   4.847  18.241  0.00  0.00    +0.000 OA
ATOM      9  C   UNL     1       5.725   4.948  17.049  0.00  0.00    +0.000 A 
ENDROOT
BRANCH   7  10
ATOM     10  C   UNL     1       3.269   3.548  19.177  0.00  0.00    +0.000 A 
ATOM     11  C   UNL     1       3.782   2.769  20.228  0.00  0.00    +0.000 A 
ATOM     12  C   UNL     1       2.987   2.439  21.331  0.00  0.00    +0.000 A 
ATOM     13  C   UNL     1       1.671   2.884  21.382  0.00  0.00    +0.000 A 
ATOM     14  C   UNL     1       1.146   3.664  20.359  0.00  0.00    +0.000 A 
ATOM     15  C   UNL     1       1.941   3.992  19.261  0.00  0.00    +0.000 A 
BRANCH  13  16
ATOM     16  O   UNL     1       0.852   2.575  22.427  0.00  0.00    +0.000 OA
ATOM     17  H   UNL     1       0.855   3.315  23.054  0.00  0.00    +0.000 HD
ENDBRANCH  13  16
ENDBRANCH   7  10
BRANCH   1  18
ATOM     18  C   UNL     1       7.424   6.662  17.712  0.00  0.00    +0.000 C 
ATOM     19  O   UNL     1       7.819   6.319  18.812  0.00  0.00    +0.000 OA
BRANCH  18  21
ATOM     20  C   UNL     1       8.196   8.854  18.028  0.00  0.00    +0.000 C 
ATOM     21  O   UNL     1       7.501   7.919  17.201  0.00  0.00    +0.000 OA
ENDBRANCH  18  21
ENDBRANCH   1  18
BRANCH   3  22
ATOM     22  O   UNL     1       7.133   4.642  13.214  0.00  0.00    +0.000 OA
ATOM     23  H   UNL     1       6.398   4.399  12.626  0.00  0.00    +0.000 HD
ENDBRANCH   3  22
TORSDOF 5
ENDMDL
MODEL 3
REMARK VINA RESULT:      -7.3      4.138      5.936
REMARK  Name = 
REMARK  6 active torsions:
REMARK  status: ('A' for Active; 'I' for Inactive)
REMARK    1  A    between atoms: C_1  and  O_2
REMARK    2  A    between atoms: O_2  and  C_3
REMARK    3  A    between atoms: C_3  and  C_5
REMARK    4  A    between atoms: C_7  and  O_8
REMARK    5  A    between atoms: C_12  and  C_13
REMARK    6  A    between atoms: C_16  and  O_17
REMARK                            x       y       z     vdW  Elec       q    Type
REMARK                         _______ _______ _______ _____ _____    ______ ____
ROOT
ATOM      1  C   UNL     1       2.965   3.744  18.067  0.00  0.00    +0.000 A 
ATOM      2  C   UNL     1       3.993   3.122  17.330  0.00  0.00    +0.000 A 
ATOM      3  C   UNL     1       4.958   3.882  16.668  0.00  0.00    +0.000 A 
ATOM      4  C   UNL     1       4.955   5.276  16.704  0.00  0.00    +0.000 A 
ATOM      5  C   UNL     1       3.946   5.909  17.441  0.00  0.00    +0.000 A 
ATOM      6  N   UNL     1       3.694   7.243  17.643  0.00  0.00    +0.000 NA
ATOM      7  C   UNL     1       2.616   7.248  18.407  0.00  0.00    +0.000 A 
ATOM      8  O   UNL     1       2.146   6.001  18.725  0.00  0.00    +0.000 OA
ATOM      9  C   UNL     1       2.997   5.138  18.096  0.00  0.00    +0.000 A 
ENDROOT
BRANCH   7  10
ATOM     10  C   UNL     1       1.859   8.382  18.934  0.00  0.00    +0.000 A 
ATOM     11  C   UNL     1       1.478   8.407  20.287  0.00  0.00    +0.000 A 
ATOM     12  C   UNL     1       0.753   9.484  20.808  0.00  0.00    +0.000 A 
ATOM     13  C   UNL     1       0.402  10.540  19.973  0.00  0.00    +0.000 A 
ATOM     14  C   UNL     1       0.778  10.540  18.636  0.00  0.00    +0.000 A 
ATOM     15  C   UNL     1       1.501   9.465  18.119  0.00  0.00    +0.000 A 
BRANCH  13  16
ATOM     16  O   UNL     1      -0.317  11.603  20.429  0.00  0.00    +0.000 OA
ATOM     17  H   UNL     1      -1.091  11.271  20.911  0.00  0.00    +0.000 HD
ENDBRANCH  13  16
ENDBRANCH   7  10
BRANCH   1  18
ATOM     18  C   UNL     1       1.893   2.990  18.751  0.00  0.00    +0.000 C 
ATOM     19  O   UNL     1       0.827   2.678  18.248  0.00  0.00    +0.000 OA
BRANCH  18  21
ATOM     20  C   UNL     1       1.376   3.075  21.036  0.00  0.00    +0.000 C 
ATOM     21  O   UNL     1       2.292   2.683  20.013  0.00  0.00    +0.000 OA
ENDBRANCH  18  21
ENDBRANCH   1  18
BRANCH   3  22
ATOM     22  O   UNL     1       5.950   3.279  15.948  0.00  0.00    +0.000 OA
ATOM     23  H   UNL     1       5.735   2.340  15.818  0.00  0.00    +0.000 HD
ENDBRANCH   3  22
TORSDOF 5
ENDMDL
MODEL 4
REMARK VINA RESULT:      -7.3      3.731      5.220
REMARK  Name = 
REMARK  6 active torsions:
REMARK  status: ('A' for Active; 'I' for Inactive)
REMARK    1  A    between atoms: C_1  and  O_2
REMARK    2  A    between atoms: O_2  and  C_3
REMARK    3  A    between atoms: C_3  and  C_5
REMARK    4  A    between atoms: C_7  and  O_8
REMARK    5  A    between atoms: C_12  and  C_13
REMARK    6  A    between atoms: C_16  and  O_17
REMARK                            x       y       z     vdW  Elec       q    Type
REMARK                         _______ _______ _______ _____ _____    ______ ____
ROOT
ATOM      1  C   UNL     1       4.098   3.842  17.271  0.00  0.00    +0.000 A 
ATOM      2  C   UNL     1       5.128   3.563  16.351  0.00  0.00    +0.000 A 
ATOM      3  C   UNL     1       5.813   4.596  15.709  0.00  0.00    +0.000 A 
ATOM      4  C   UNL     1       5.516   5.938  15.945  0.00  0.00    +0.000 A 
ATOM      5  C   UNL     1       4.501   6.233  16.864  0.00  0.00    +0.000 A 
ATOM      6  N   UNL     1       3.998   7.440  17.280  0.00  0.00    +0.000 NA
ATOM      7  C   UNL     1       3.055   7.109  18.142  0.00  0.00    +0.000 A 
ATOM      8  O   UNL     1       2.908   5.758  18.326  0.00  0.00    +0.000 OA
ATOM      9  C   UNL     1       3.834   5.193  17.495  0.00  0.00    +0.000 A 
ENDROOT
BRANCH   7  10
ATOM     10  C   UNL     1       2.149   7.968  18.902  0.00  0.00    +0.000 A 
ATOM     11  C   UNL     1       1.868   7.682  20.249  0.00  0.00    +0.000 A 
ATOM     12  C   UNL     1       1.003   8.495  20.989  0.00  0.00    +0.000 A 
ATOM     13  C   UNL     1       0.412   9.597  20.381  0.00  0.00    +0.000 A 
ATOM     14  C   UNL     1       0.684   9.904  19.054  0.00  0.00    +0.000 A 
ATOM     15  C   UNL     1       1.547   9.093  18.318  0.00  0.00    +0.000 A 
BRANCH  13  16
ATOM     16  O   UNL     1      -0.450  10.409  21.056  0.00  0.00    +0.000 OA
ATOM     17  H   UNL     1      -0.380  10.216  22.004  0.00  0.00    +0.000 HD
ENDBRANCH  13  16
ENDBRANCH   7  10
BRANCH   1  18
ATOM     18  C   UNL     1       3.312   2.787  17.945  0.00  0.00    +0.000 C 
ATOM     19  O   UNL     1       3.755   1.998  18.761  0.00  0.00    +0.000 OA
BRANCH  18  21
ATOM     20  C   UNL     1       1.053   2.645  18.561  0.00  0.00    +0.000 C 
ATOM     21  O   UNL     1       2.020   2.852  17.529  0.00  0.00    +0.000 OA
ENDBRANCH  18  21
ENDBRANCH   1  18
BRANCH   3  22
ATOM     22  O   UNL     1       6.807   4.325  14.812  0.00  0.00    +0.000 OA
ATOM     23  H   UNL     1       6.729   4.922  14.049  0.00  0.00    +0.000 HD
ENDBRANCH   3  22
TORSDOF 5
ENDMDL
MODEL 5
REMARK VINA RESULT:      -7.2      3.781      5.214
REMARK  Name = 
REMARK  6 active torsions:
REMARK  status: ('A' for Active; 'I' for Inactive)
REMARK    1  A    between atoms: C_1  and  O_2
REMARK    2  A    between atoms: O_2  and  C_3
REMARK    3  A    between atoms: C_3  and  C_5
REMARK    4  A    between atoms: C_7  and  O_8
REMARK    5  A    between atoms: C_12  and  C_13
REMARK    6  A    between atoms: C_16  and  O_17
REMARK                            x       y       z     vdW  Elec       q    Type
REMARK                         _______ _______ _______ _____ _____    ______ ____
ROOT
ATOM      1  C   UNL     1       3.894   3.812  17.250  0.00  0.00    +0.000 A 
ATOM      2  C   UNL     1       4.960   3.489  16.386  0.00  0.00    +0.000 A 
ATOM      3  C   UNL     1       5.747   4.491  15.817  0.00  0.00    +0.000 A 
ATOM      4  C   UNL     1       5.522   5.844  16.073  0.00  0.00    +0.000 A 
ATOM      5  C   UNL     1       4.473   6.180  16.937  0.00  0.00    +0.000 A 
ATOM      6  N   UNL     1       4.023   7.407  17.357  0.00  0.00    +0.000 NA
ATOM      7  C   UNL     1       3.009   7.116  18.152  0.00  0.00    +0.000 A 
ATOM      8  O   UNL     1       2.766   5.774  18.287  0.00  0.00    +0.000 OA
ATOM      9  C   UNL     1       3.704   5.170  17.497  0.00  0.00    +0.000 A 
ENDROOT
BRANCH   7  10
ATOM     10  C   UNL     1       2.114   8.013  18.880  0.00  0.00    +0.000 A 
ATOM     11  C   UNL     1       1.820   7.772  20.233  0.00  0.00    +0.000 A 
ATOM     12  C   UNL     1       0.966   8.621  20.944  0.00  0.00    +0.000 A 
ATOM     13  C   UNL     1       0.398   9.715  20.300  0.00  0.00    +0.000 A 
ATOM     14  C   UNL     1       0.683   9.978  18.967  0.00  0.00    +0.000 A 
ATOM     15  C   UNL     1       1.535   9.130  18.260  0.00  0.00    +0.000 A 
BRANCH  13  16
ATOM     16  O   UNL     1      -0.453  10.562  20.945  0.00  0.00    +0.000 OA
ATOM     17  H   UNL     1      -0.932  11.085  20.283  0.00  0.00    +0.000 HD
ENDBRANCH  13  16
ENDBRANCH   7  10
BRANCH   1  18
ATOM     18  C   UNL     1       3.003   2.793  17.845  0.00  0.00    +0.000 C 
ATOM     19  O   UNL     1       1.803   2.711  17.646  0.00  0.00    +0.000 OA
BRANCH  18  21
ATOM     20  C   UNL     1       4.047   2.476  19.921  0.00  0.00    +0.000 C 
ATOM     21  O   UNL     1       3.734   1.957  18.628  0.00  0.00    +0.000 OA
ENDBRANCH  18  21
ENDBRANCH   1  18
BRANCH   3  22
ATOM     22  O   UNL     1       6.775   4.179  14.974  0.00  0.00    +0.000 OA
ATOM     23  H   UNL     1       7.157   4.995  14.608  0.00  0.00    +0.000 HD
ENDBRANCH   3  22
TORSDOF 5
ENDMDL
MODEL 6
REMARK VINA RESULT:      -7.2      4.112      5.870
REMARK  Name = 
REMARK  6 active torsions:
REMARK  status: ('A' for Active; 'I' for Inactive)
REMARK    1  A    between atoms: C_1  and  O_2
REMARK    2  A    between atoms: O_2  and  C_3
REMARK    3  A    between atoms: C_3  and  C_5
REMARK    4  A    between atoms: C_7  and  O_8
REMARK    5  A    between atoms: C_12  and  C_13
REMARK    6  A    between atoms: C_16  and  O_17
REMARK                            x       y       z     vdW  Elec       q    Type
REMARK                         _______ _______ _______ _____ _____    ______ ____
ROOT
ATOM      1  C   UNL     1       3.053   3.733  18.197  0.00  0.00    +0.000 A 
ATOM      2  C   UNL     1       4.049   3.112  17.417  0.00  0.00    +0.000 A 
ATOM      3  C   UNL     1       4.953   3.871  16.675  0.00  0.00    +0.000 A 
ATOM      4  C   UNL     1       4.919   5.265  16.669  0.00  0.00    +0.000 A 
ATOM      5  C   UNL     1       3.942   5.899  17.447  0.00  0.00    +0.000 A 
ATOM      6  N   UNL     1       3.670   7.233  17.625  0.00  0.00    +0.000 NA
ATOM      7  C   UNL     1       2.641   7.238  18.452  0.00  0.00    +0.000 A 
ATOM      8  O   UNL     1       2.221   5.991  18.837  0.00  0.00    +0.000 OA
ATOM      9  C   UNL     1       3.053   5.127  18.182  0.00  0.00    +0.000 A 
ENDROOT
BRANCH   7  10
ATOM     10  C   UNL     1       1.890   8.370  18.992  0.00  0.00    +0.000 A 
ATOM     11  C   UNL     1       1.595   9.474  18.174  0.00  0.00    +0.000 A 
ATOM     12  C   UNL     1       0.877  10.566  18.675  0.00  0.00    +0.000 A 
ATOM     13  C   UNL     1       0.456  10.557  20.000  0.00  0.00    +0.000 A 
ATOM     14  C   UNL     1       0.728   9.471  20.823  0.00  0.00    +0.000 A 
ATOM     15  C   UNL     1       1.443   8.384  20.321  0.00  0.00    +0.000 A 
BRANCH  13  16
ATOM     16  O   UNL     1      -0.232  11.603  20.538  0.00  0.00    +0.000 OA
ATOM     17  H   UNL     1       0.372  12.357  20.631  0.00  0.00    +0.000 HD
ENDBRANCH  13  16
ENDBRANCH   7  10
BRANCH   1  18
ATOM     18  C   UNL     1       2.043   2.977  18.968  0.00  0.00    +0.000 C 
ATOM     19  O   UNL     1       1.008   2.524  18.509  0.00  0.00    +0.000 OA
BRANCH  18  21
ATOM     20  C   UNL     1       1.407   2.808  21.218  0.00  0.00    +0.000 C 
ATOM     21  O   UNL     1       2.460   2.849  20.254  0.00  0.00    +0.000 OA
ENDBRANCH  18  21
ENDBRANCH   1  18
BRANCH   3  22
ATOM     22  O   UNL     1       5.914   3.268  15.913  0.00  0.00    +0.000 OA
ATOM     23  H   UNL     1       6.305   3.919  15.306  0.00  0.00    +0.000 HD
ENDBRANCH   3  22
TORSDOF 5
ENDMDL
MODEL 7
REMARK VINA RESULT:      -7.2      3.866      5.211
REMARK  Name = 
REMARK  6 active torsions:
REMARK  status: ('A' for Active; 'I' for Inactive)
REMARK    1  A    between atoms: C_1  and  O_2
REMARK    2  A    between atoms: O_2  and  C_3
REMARK    3  A    between atoms: C_3  and  C_5
REMARK    4  A    between atoms: C_7  and  O_8
REMARK    5  A    between atoms: C_12  and  C_13
REMARK    6  A    between atoms: C_16  and  O_17
REMARK                            x       y       z     vdW  Elec       q    Type
REMARK                         _______ _______ _______ _____ _____    ______ ____
ROOT
ATOM      1  C   UNL     1       3.874   3.936  17.160  0.00  0.00    +0.000 A 
ATOM      2  C   UNL     1       4.966   3.613  16.329  0.00  0.00    +0.000 A 
ATOM      3  C   UNL     1       5.790   4.612  15.810  0.00  0.00    +0.000 A 
ATOM      4  C   UNL     1       5.577   5.963  16.086  0.00  0.00    +0.000 A 
ATOM      5  C   UNL     1       4.503   6.300  16.918  0.00  0.00    +0.000 A 
ATOM      6  N   UNL     1       4.058   7.526  17.347  0.00  0.00    +0.000 NA
ATOM      7  C   UNL     1       3.011   7.237  18.098  0.00  0.00    +0.000 A 
ATOM      8  O   UNL     1       2.741   5.896  18.195  0.00  0.00    +0.000 OA
ATOM      9  C   UNL     1       3.697   5.293  17.429  0.00  0.00    +0.000 A 
ENDROOT
BRANCH   7  10
ATOM     10  C   UNL     1       2.105   8.134  18.811  0.00  0.00    +0.000 A 
ATOM     11  C   UNL     1       1.502   9.210  18.137  0.00  0.00    +0.000 A 
ATOM     12  C   UNL     1       0.632  10.079  18.805  0.00  0.00    +0.000 A 
ATOM     13  C   UNL     1       0.366   9.875  20.155  0.00  0.00    +0.000 A 
ATOM     14  C   UNL     1       0.943   8.812  20.838  0.00  0.00    +0.000 A 
ATOM     15  C   UNL     1       1.810   7.947  20.169  0.00  0.00    +0.000 A 
BRANCH  13  16
ATOM     16  O   UNL     1      -0.461  10.703  20.853  0.00  0.00    +0.000 OA
ATOM     17  H   UNL     1      -1.305  10.248  20.998  0.00  0.00    +0.000 HD
ENDBRANCH  13  16
ENDBRANCH   7  10
BRANCH   1  18
ATOM     18  C   UNL     1       2.945   2.922  17.701  0.00  0.00    +0.000 C 
ATOM     19  O   UNL     1       1.742   2.898  17.504  0.00  0.00    +0.000 OA
BRANCH  18  21
ATOM     20  C   UNL     1       3.896   2.406  19.782  0.00  0.00    +0.000 C 
ATOM     21  O   UNL     1       3.643   2.014  18.432  0.00  0.00    +0.000 OA
ENDBRANCH  18  21
ENDBRANCH   1  18
BRANCH   3  22
ATOM     22  O   UNL     1       6.843   4.299  14.999  0.00  0.00    +0.000 OA
ATOM     23  H   UNL     1       7.590   4.890  15.193  0.00  0.00    +0.000 HD
ENDBRANCH   3  22
TORSDOF 5
ENDMDL
MODEL 8
REMARK VINA RESULT:      -7.2      3.788      5.204
REMARK  Name = 
REMARK  6 active torsions:
REMARK  status: ('A' for Active; 'I' for Inactive)
REMARK    1  A    between atoms: C_1  and  O_2
REMARK    2  A    between atoms: O_2  and  C_3
REMARK    3  A    between atoms: C_3  and  C_5
REMARK    4  A    between atoms: C_7  and  O_8
REMARK    5  A    between atoms: C_12  and  C_13
REMARK    6  A    between atoms: C_16  and  O_17
REMARK                            x       y       z     vdW  Elec       q    Type
REMARK                         _______ _______ _______ _____ _____    ______ ____
ROOT
ATOM      1  C   UNL     1       4.045   3.887  17.406  0.00  0.00    +0.000 A 
ATOM      2  C   UNL     1       5.056   3.593  16.469  0.00  0.00    +0.000 A 
ATOM      3  C   UNL     1       5.713   4.614  15.782  0.00  0.00    +0.000 A 
ATOM      4  C   UNL     1       5.406   5.959  15.987  0.00  0.00    +0.000 A 
ATOM      5  C   UNL     1       4.411   6.269  16.922  0.00  0.00    +0.000 A 
ATOM      6  N   UNL     1       3.904   7.482  17.317  0.00  0.00    +0.000 NA
ATOM      7  C   UNL     1       2.986   7.165  18.211  0.00  0.00    +0.000 A 
ATOM      8  O   UNL     1       2.860   5.818  18.436  0.00  0.00    +0.000 OA
ATOM      9  C   UNL     1       3.772   5.240  17.599  0.00  0.00    +0.000 A 
ENDROOT
BRANCH   7  10
ATOM     10  C   UNL     1       2.089   8.036  18.968  0.00  0.00    +0.000 A 
ATOM     11  C   UNL     1       1.517   9.164  18.355  0.00  0.00    +0.000 A 
ATOM     12  C   UNL     1       0.657  10.008  19.066  0.00  0.00    +0.000 A 
ATOM     13  C   UNL     1       0.369   9.726  20.397  0.00  0.00    +0.000 A 
ATOM     14  C   UNL     1       0.915   8.611  21.020  0.00  0.00    +0.000 A 
ATOM     15  C   UNL     1       1.772   7.771  20.309  0.00  0.00    +0.000 A 
BRANCH  13  16
ATOM     16  O   UNL     1      -0.450  10.526  21.136  0.00  0.00    +0.000 OA
ATOM     17  H   UNL     1       0.022  10.796  21.940  0.00  0.00    +0.000 HD
ENDBRANCH  13  16
ENDBRANCH   7  10
BRANCH   1  18
ATOM     18  C   UNL     1       3.288   2.843  18.130  0.00  0.00    +0.000 C 
ATOM     19  O   UNL     1       3.721   2.182  19.058  0.00  0.00    +0.000 OA
BRANCH  18  21
ATOM     20  C   UNL     1       1.000   2.611  18.586  0.00  0.00    +0.000 C 
ATOM     21  O   UNL     1       2.035   2.754  17.612  0.00  0.00    +0.000 OA
ENDBRANCH  18  21
ENDBRANCH   1  18
BRANCH   3  22
ATOM     22  O   UNL     1       6.687   4.329  14.869  0.00  0.00    +0.000 OA
ATOM     23  H   UNL     1       6.824   3.368  14.826  0.00  0.00    +0.000 HD
ENDBRANCH   3  22
TORSDOF 5
ENDMDL
MODEL 9
REMARK VINA RESULT:      -7.1      4.112      5.148
REMARK  Name = 
REMARK  6 active torsions:
REMARK  status: ('A' for Active; 'I' for Inactive)
REMARK    1  A    between atoms: C_1  and  O_2
REMARK    2  A    between atoms: O_2  and  C_3
REMARK    3  A    between atoms: C_3  and  C_5
REMARK    4  A    between atoms: C_7  and  O_8
REMARK    5  A    between atoms: C_12  and  C_13
REMARK    6  A    between atoms: C_16  and  O_17
REMARK                            x       y       z     vdW  Elec       q    Type
REMARK                         _______ _______ _______ _____ _____    ______ ____
ROOT
ATOM      1  C   UNL     1       4.732   5.282  16.827  0.00  0.00    +0.000 A 
ATOM      2  C   UNL     1       4.885   3.881  16.864  0.00  0.00    +0.000 A 
ATOM      3  C   UNL     1       4.096   3.098  17.707  0.00  0.00    +0.000 A 
ATOM      4  C   UNL     1       3.129   3.656  18.544  0.00  0.00    +0.000 A 
ATOM      5  C   UNL     1       2.958   5.045  18.511  0.00  0.00    +0.000 A 
ATOM      6  N   UNL     1       2.103   5.855  19.217  0.00  0.00    +0.000 NA
ATOM      7  C   UNL     1       2.390   7.070  18.785  0.00  0.00    +0.000 A 
ATOM      8  O   UNL     1       3.376   7.111  17.834  0.00  0.00    +0.000 OA
ATOM      9  C   UNL     1       3.748   5.807  17.663  0.00  0.00    +0.000 A 
ENDROOT
BRANCH   7  10
ATOM     10  C   UNL     1       1.823   8.355  19.188  0.00  0.00    +0.000 A 
ATOM     11  C   UNL     1       1.353   8.539  20.500  0.00  0.00    +0.000 A 
ATOM     12  C   UNL     1       0.808   9.764  20.901  0.00  0.00    +0.000 A 
ATOM     13  C   UNL     1       0.727  10.808  19.987  0.00  0.00    +0.000 A 
ATOM     14  C   UNL     1       1.195  10.652  18.688  0.00  0.00    +0.000 A 
ATOM     15  C   UNL     1       1.739   9.430  18.291  0.00  0.00    +0.000 A 
BRANCH  13  16
ATOM     16  O   UNL     1       0.190  12.014  20.325  0.00  0.00    +0.000 OA
ATOM     17  H   UNL     1       0.682  12.713  19.865  0.00  0.00    +0.000 HD
ENDBRANCH  13  16
ENDBRANCH   7  10
BRANCH   1  18
ATOM     18  C   UNL     1       5.570   6.162  15.985  0.00  0.00    +0.000 C 
ATOM     19  O   UNL     1       5.154   6.880  15.093  0.00  0.00    +0.000 OA
BRANCH  18  21
ATOM     20  C   UNL     1       7.258   6.991  17.386  0.00  0.00    +0.000 C 
ATOM     21  O   UNL     1       6.867   6.059  16.376  0.00  0.00    +0.000 OA
ENDBRANCH  18  21
ENDBRANCH   1  18
BRANCH   3  22
ATOM     22  O   UNL     1       4.248   1.742  17.749  0.00  0.00    +0.000 OA
ATOM     23  H   UNL     1       3.645   1.366  18.412  0.00  0.00    +0.000 HD
ENDBRANCH   3  22
TORSDOF 5
ENDMDL
