MODEL 1
REMARK VINA RESULT:      -7.3      0.000      0.000
REMARK  Name = 
REMARK  8 active torsions:
REMARK  status: ('A' for Active; 'I' for Inactive)
REMARK    1  A    between atoms: C_1  and  C_2
REMARK    2  A    between atoms: C_3  and  C_4
REMARK    3  A    between atoms: C_4  and  N_5
REMARK    4  A    between atoms: C_6  and  N_7
REMARK    5  A    between atoms: C_11  and  N_12
REMARK    6  A    between atoms: N_17  and  C_18
REMARK    7  A    between atoms: C_18  and  C_19
REMARK    8  A    between atoms: C_19  and  C_20
REMARK                            x       y       z     vdW  Elec       q    Type
REMARK                         _______ _______ _______ _____ _____    ______ ____
ROOT
ATOM      1  N   UNL     1       4.142   5.455  18.026  0.00  0.00    +0.000 N 
ATOM      2  C   UNL     1       4.488   4.169  18.480  0.00  0.00    +0.000 A 
ATOM      3  C   UNL     1       5.784   3.848  18.440  0.00  0.00    +0.000 A 
ATOM      4  C   UNL     1       6.819   4.779  17.959  0.00  0.00    +0.000 A 
ATOM      5  O   UNL     1       7.974   4.393  17.947  0.00  0.00    +0.000 OA
ATOM      6  N   UNL     1       6.405   6.038  17.569  0.00  0.00    +0.000 N 
ATOM      7  C   UNL     1       5.048   6.407  17.590  0.00  0.00    +0.000 A 
ATOM      8  O   UNL     1       4.714   7.535  17.243  0.00  0.00    +0.000 OA
ENDROOT
BRANCH   2   9
ATOM      9  N   UNL     1       3.549   3.223  18.930  0.00  0.00    +0.000 N 
ATOM     10  C   UNL     1       2.569   2.530  18.089  0.00  0.00    +0.000 C 
ATOM     11  C   UNL     1       1.157   3.064  18.413  0.00  0.00    +0.000 C 
ATOM     12  C   UNL     1       0.838   2.764  19.880  0.00  0.00    +0.000 C 
ATOM     13  C   UNL     1       1.945   3.324  20.801  0.00  0.00    +0.000 C 
ATOM     14  C   UNL     1       3.354   2.875  20.347  0.00  0.00    +0.000 C 
BRANCH  13  15
ATOM     15  N   UNL     1       1.673   2.902  22.174  0.00  0.00    +0.000 NA
ATOM     16  H   UNL     1       2.131   2.005  22.337  0.00  0.00    +0.000 HD
ATOM     17  H   UNL     1       0.673   2.726  22.269  0.00  0.00    +0.000 HD
ENDBRANCH  13  15
ENDBRANCH   2   9
BRANCH   1  18
ATOM     18  C   UNL     1       2.742   5.829  17.843  0.00  0.00    +0.000 C 
BRANCH  18  21
ATOM     19  C   UNL     1       1.503   8.154  21.296  0.00  0.00    +0.000 C 
ATOM     20  C   UNL     1       1.936   7.340  20.087  0.00  0.00    +0.000 C 
ATOM     21  C   UNL     1       2.308   6.642  19.052  0.00  0.00    +0.000 C 
ENDBRANCH  18  21
ENDBRANCH   1  18
BRANCH   6  22
ATOM     22  C   UNL     1       7.436   6.958  17.141  0.00  0.00    +0.000 C 
BRANCH  22  23
ATOM     23  C   UNL     1       8.104   7.753  18.284  0.00  0.00    +0.000 C 
ATOM     24  C   UNL     1       8.259   9.234  18.003  0.00  0.00    +0.000 C 
ENDBRANCH  22  23
ENDBRANCH   6  22
TORSDOF 6
ENDMDL
MODEL 2
REMARK VINA RESULT:      -6.9      1.223      1.756
REMARK  Name = 
REMARK  8 active torsions:
REMARK  status: ('A' for Active; 'I' for Inactive)
REMARK    1  A    between atoms: C_1  and  C_2
REMARK    2  A    between atoms: C_3  and  C_4
REMARK    3  A    between atoms: C_4  and  N_5
REMARK    4  A    between atoms: C_6  and  N_7
REMARK    5  A    between atoms: C_11  and  N_12
REMARK    6  A    between atoms: N_17  and  C_18
REMARK    7  A    between atoms: C_18  and  C_19
REMARK    8  A    between atoms: C_19  and  C_20
REMARK                            x       y       z     vdW  Elec       q    Type
REMARK                         _______ _______ _______ _____ _____    ______ ____
ROOT
ATOM      1  N   UNL     1       3.767   6.406  18.283  0.00  0.00    +0.000 N 
ATOM      2  C   UNL     1       3.719   5.185  18.981  0.00  0.00    +0.000 A 
ATOM      3  C   UNL     1       4.861   4.496  19.062  0.00  0.00    +0.000 A 
ATOM      4  C   UNL     1       6.122   4.974  18.470  0.00  0.00    +0.000 A 
ATOM      5  O   UNL     1       7.109   4.271  18.585  0.00  0.00    +0.000 OA
ATOM      6  N   UNL     1       6.098   6.202  17.838  0.00  0.00    +0.000 N 
ATOM      7  C   UNL     1       4.912   6.950  17.725  0.00  0.00    +0.000 A 
ATOM      8  O   UNL     1       4.925   8.039  17.163  0.00  0.00    +0.000 OA
ENDROOT
BRANCH   2   9
ATOM      9  N   UNL     1       2.545   4.659  19.550  0.00  0.00    +0.000 N 
ATOM     10  C   UNL     1       2.228   4.639  20.980  0.00  0.00    +0.000 C 
ATOM     11  C   UNL     1       2.306   3.185  21.495  0.00  0.00    +0.000 C 
ATOM     12  C   UNL     1       1.265   2.340  20.755  0.00  0.00    +0.000 C 
ATOM     13  C   UNL     1       1.448   2.474  19.226  0.00  0.00    +0.000 C 
ATOM     14  C   UNL     1       1.508   3.953  18.780  0.00  0.00    +0.000 C 
BRANCH  13  15
ATOM     15  N   UNL     1       0.358   1.765  18.558  0.00  0.00    +0.000 NA
ATOM     16  H   UNL     1      -0.023   2.365  17.827  0.00  0.00    +0.000 HD
ATOM     17  H   UNL     1      -0.398   1.626  19.228  0.00  0.00    +0.000 HD
ENDBRANCH  13  15
ENDBRANCH   2   9
BRANCH   1  18
ATOM     18  C   UNL     1       2.541   7.133  17.968  0.00  0.00    +0.000 C 
BRANCH  18  21
ATOM     19  C   UNL     1       1.082   8.971  21.623  0.00  0.00    +0.000 C 
ATOM     20  C   UNL     1       1.593   8.328  20.344  0.00  0.00    +0.000 C 
ATOM     21  C   UNL     1       2.030   7.776  19.247  0.00  0.00    +0.000 C 
ENDBRANCH  18  21
ENDBRANCH   1  18
BRANCH   6  22
ATOM     22  C   UNL     1       7.352   6.681  17.300  0.00  0.00    +0.000 C 
BRANCH  22  23
ATOM     23  C   UNL     1       8.190   7.531  18.279  0.00  0.00    +0.000 C 
ATOM     24  C   UNL     1       8.197   9.014  17.965  0.00  0.00    +0.000 C 
ENDBRANCH  22  23
ENDBRANCH   6  22
TORSDOF 6
ENDMDL
MODEL 3
REMARK VINA RESULT:      -6.8      2.358      4.847
REMARK  Name = 
REMARK  8 active torsions:
REMARK  status: ('A' for Active; 'I' for Inactive)
REMARK    1  A    between atoms: C_1  and  C_2
REMARK    2  A    between atoms: C_3  and  C_4
REMARK    3  A    between atoms: C_4  and  N_5
REMARK    4  A    between atoms: C_6  and  N_7
REMARK    5  A    between atoms: C_11  and  N_12
REMARK    6  A    between atoms: N_17  and  C_18
REMARK    7  A    between atoms: C_18  and  C_19
REMARK    8  A    between atoms: C_19  and  C_20
REMARK                            x       y       z     vdW  Elec       q    Type
REMARK                         _______ _______ _______ _____ _____    ______ ____
ROOT
ATOM      1  N   UNL     1       3.170   6.871  17.830  0.00  0.00    +0.000 N 
ATOM      2  C   UNL     1       3.021   5.711  18.613  0.00  0.00    +0.000 A 
ATOM      3  C   UNL     1       2.330   5.840  19.749  0.00  0.00    +0.000 A 
ATOM      4  C   UNL     1       1.734   7.117  20.177  0.00  0.00    +0.000 A 
ATOM      5  O   UNL     1       1.132   7.140  21.235  0.00  0.00    +0.000 OA
ATOM      6  N   UNL     1       1.888   8.200  19.334  0.00  0.00    +0.000 N 
ATOM      7  C   UNL     1       2.617   8.104  18.135  0.00  0.00    +0.000 A 
ATOM      8  O   UNL     1       2.730   9.083  17.406  0.00  0.00    +0.000 OA
ENDROOT
BRANCH   2   9
ATOM      9  N   UNL     1       3.583   4.466  18.275  0.00  0.00    +0.000 N 
ATOM     10  C   UNL     1       3.135   3.600  17.182  0.00  0.00    +0.000 C 
ATOM     11  C   UNL     1       2.447   2.352  17.776  0.00  0.00    +0.000 C 
ATOM     12  C   UNL     1       3.464   1.580  18.623  0.00  0.00    +0.000 C 
ATOM     13  C   UNL     1       4.099   2.508  19.683  0.00  0.00    +0.000 C 
ATOM     14  C   UNL     1       4.646   3.811  19.054  0.00  0.00    +0.000 C 
BRANCH  13  15
ATOM     15  N   UNL     1       5.156   1.774  20.377  0.00  0.00    +0.000 NA
ATOM     16  H   UNL     1       5.316   2.211  21.285  0.00  0.00    +0.000 HD
ATOM     17  H   UNL     1       6.026   1.885  19.857  0.00  0.00    +0.000 HD
ENDBRANCH  13  15
ENDBRANCH   2   9
BRANCH   1  18
ATOM     18  C   UNL     1       4.069   6.883  16.680  0.00  0.00    +0.000 C 
BRANCH  18  21
ATOM     19  C   UNL     1       8.130   7.357  18.146  0.00  0.00    +0.000 C 
ATOM     20  C   UNL     1       6.709   7.191  17.633  0.00  0.00    +0.000 C 
ATOM     21  C   UNL     1       5.490   7.049  17.193  0.00  0.00    +0.000 C 
ENDBRANCH  18  21
ENDBRANCH   1  18
BRANCH   6  22
ATOM     22  C   UNL     1       1.260   9.437  19.744  0.00  0.00    +0.000 C 
BRANCH  22  23
ATOM     23  C   UNL     1      -0.072   9.751  19.028  0.00  0.00    +0.000 C 
ATOM     24  C   UNL     1      -0.348  11.231  18.851  0.00  0.00    +0.000 C 
ENDBRANCH  22  23
ENDBRANCH   6  22
TORSDOF 6
ENDMDL
MODEL 4
REMARK VINA RESULT:      -6.6      2.726      5.841
REMARK  Name = 
REMARK  8 active torsions:
REMARK  status: ('A' for Active; 'I' for Inactive)
REMARK    1  A    between atoms: C_1  and  C_2
REMARK    2  A    between atoms: C_3  and  C_4
REMARK    3  A    between atoms: C_4  and  N_5
REMARK    4  A    between atoms: C_6  and  N_7
REMARK    5  A    between atoms: C_11  and  N_12
REMARK    6  A    between atoms: N_17  and  C_18
REMARK    7  A    between atoms: C_18  and  C_19
REMARK    8  A    between atoms: C_19  and  C_20
REMARK                            x       y       z     vdW  Elec       q    Type
REMARK                         _______ _______ _______ _____ _____    ______ ____
ROOT
ATOM      1  N   UNL     1       2.443   6.778  19.933  0.00  0.00    +0.000 N 
ATOM      2  C   UNL     1       3.221   6.699  18.763  0.00  0.00    +0.000 A 
ATOM      3  C   UNL     1       3.090   7.701  17.889  0.00  0.00    +0.000 A 
ATOM      4  C   UNL     1       2.192   8.846  18.120  0.00  0.00    +0.000 A 
ATOM      5  O   UNL     1       2.130   9.706  17.260  0.00  0.00    +0.000 OA
ATOM      6  N   UNL     1       1.494   8.871  19.311  0.00  0.00    +0.000 N 
ATOM      7  C   UNL     1       1.600   7.829  20.251  0.00  0.00    +0.000 A 
ATOM      8  O   UNL     1       0.972   7.885  21.302  0.00  0.00    +0.000 OA
ENDROOT
BRANCH   2   9
ATOM      9  N   UNL     1       4.080   5.625  18.468  0.00  0.00    +0.000 N 
ATOM     10  C   UNL     1       5.225   5.204  19.281  0.00  0.00    +0.000 C 
ATOM     11  C   UNL     1       6.530   5.553  18.534  0.00  0.00    +0.000 C 
ATOM     12  C   UNL     1       6.565   4.785  17.210  0.00  0.00    +0.000 C 
ATOM     13  C   UNL     1       5.283   5.060  16.391  0.00  0.00    +0.000 C 
ATOM     14  C   UNL     1       4.004   4.833  17.230  0.00  0.00    +0.000 C 
BRANCH  13  15
ATOM     15  N   UNL     1       5.293   4.208  15.203  0.00  0.00    +0.000 NA
ATOM     16  H   UNL     1       6.200   3.746  15.138  0.00  0.00    +0.000 HD
ATOM     17  H   UNL     1       5.222   4.801  14.377  0.00  0.00    +0.000 HD
ENDBRANCH  13  15
ENDBRANCH   2   9
BRANCH   1  18
ATOM     18  C   UNL     1       2.364   5.645  20.851  0.00  0.00    +0.000 C 
BRANCH  18  21
ATOM     19  C   UNL     1       0.554   2.312  18.735  0.00  0.00    +0.000 C 
ATOM     20  C   UNL     1       1.187   3.479  19.475  0.00  0.00    +0.000 C 
ATOM     21  C   UNL     1       1.731   4.479  20.110  0.00  0.00    +0.000 C 
ENDBRANCH  18  21
ENDBRANCH   1  18
BRANCH   6  22
ATOM     22  C   UNL     1       0.650  10.022  19.547  0.00  0.00    +0.000 C 
BRANCH  22  23
ATOM     23  C   UNL     1      -0.730   9.960  18.856  0.00  0.00    +0.000 C 
ATOM     24  C   UNL     1      -1.259  11.307  18.403  0.00  0.00    +0.000 C 
ENDBRANCH  22  23
ENDBRANCH   6  22
TORSDOF 6
ENDMDL
MODEL 5
REMARK VINA RESULT:      -6.4      2.073      3.616
REMARK  Name = 
REMARK  8 active torsions:
REMARK  status: ('A' for Active; 'I' for Inactive)
REMARK    1  A    between atoms: C_1  and  C_2
REMARK    2  A    between atoms: C_3  and  C_4
REMARK    3  A    between atoms: C_4  and  N_5
REMARK    4  A    between atoms: C_6  and  N_7
REMARK    5  A    between atoms: C_11  and  N_12
REMARK    6  A    between atoms: N_17  and  C_18
REMARK    7  A    between atoms: C_18  and  C_19
REMARK    8  A    between atoms: C_19  and  C_20
REMARK                            x       y       z     vdW  Elec       q    Type
REMARK                         _______ _______ _______ _____ _____    ______ ____
ROOT
ATOM      1  N   UNL     1       5.451   6.196  17.302  0.00  0.00    +0.000 N 
ATOM      2  C   UNL     1       5.109   5.177  18.211  0.00  0.00    +0.000 A 
ATOM      3  C   UNL     1       5.949   4.976  19.230  0.00  0.00    +0.000 A 
ATOM      4  C   UNL     1       7.173   5.775  19.420  0.00  0.00    +0.000 A 
ATOM      5  O   UNL     1       7.884   5.510  20.372  0.00  0.00    +0.000 OA
ATOM      6  N   UNL     1       7.418   6.783  18.509  0.00  0.00    +0.000 N 
ATOM      7  C   UNL     1       6.560   7.017  17.419  0.00  0.00    +0.000 A 
ATOM      8  O   UNL     1       6.802   7.925  16.632  0.00  0.00    +0.000 OA
ENDROOT
BRANCH   2   9
ATOM      9  N   UNL     1       3.969   4.363  18.076  0.00  0.00    +0.000 N 
ATOM     10  C   UNL     1       2.597   4.762  18.397  0.00  0.00    +0.000 C 
ATOM     11  C   UNL     1       2.135   4.011  19.665  0.00  0.00    +0.000 C 
ATOM     12  C   UNL     1       2.151   2.506  19.382  0.00  0.00    +0.000 C 
ATOM     13  C   UNL     1       3.540   2.067  18.865  0.00  0.00    +0.000 C 
ATOM     14  C   UNL     1       4.019   2.945  17.686  0.00  0.00    +0.000 C 
BRANCH  13  15
ATOM     15  N   UNL     1       3.474   0.657  18.481  0.00  0.00    +0.000 NA
ATOM     16  H   UNL     1       3.008   0.586  17.577  0.00  0.00    +0.000 HD
ATOM     17  H   UNL     1       2.874   0.167  19.143  0.00  0.00    +0.000 HD
ENDBRANCH  13  15
ENDBRANCH   2   9
BRANCH   1  18
ATOM     18  C   UNL     1       4.710   6.360  16.055  0.00  0.00    +0.000 C 
BRANCH  18  21
ATOM     19  C   UNL     1       6.302   3.546  13.156  0.00  0.00    +0.000 C 
ATOM     20  C   UNL     1       5.745   4.531  14.170  0.00  0.00    +0.000 C 
ATOM     21  C   UNL     1       5.267   5.376  15.040  0.00  0.00    +0.000 C 
ENDBRANCH  18  21
ENDBRANCH   1  18
BRANCH   6  22
ATOM     22  C   UNL     1       8.598   7.589  18.732  0.00  0.00    +0.000 C 
BRANCH  22  23
ATOM     23  C   UNL     1       8.435   9.082  18.376  0.00  0.00    +0.000 C 
ATOM     24  C   UNL     1       9.247  10.021  19.247  0.00  0.00    +0.000 C 
ENDBRANCH  22  23
ENDBRANCH   6  22
TORSDOF 6
ENDMDL
MODEL 6
REMARK VINA RESULT:      -6.4      1.890      3.248
REMARK  Name = 
REMARK  8 active torsions:
REMARK  status: ('A' for Active; 'I' for Inactive)
REMARK    1  A    between atoms: C_1  and  C_2
REMARK    2  A    between atoms: C_3  and  C_4
REMARK    3  A    between atoms: C_4  and  N_5
REMARK    4  A    between atoms: C_6  and  N_7
REMARK    5  A    between atoms: C_11  and  N_12
REMARK    6  A    between atoms: N_17  and  C_18
REMARK    7  A    between atoms: C_18  and  C_19
REMARK    8  A    between atoms: C_19  and  C_20
REMARK                            x       y       z     vdW  Elec       q    Type
REMARK                         _______ _______ _______ _____ _____    ______ ____
ROOT
ATOM      1  N   UNL     1       5.038   5.281  17.422  0.00  0.00    +0.000 N 
ATOM      2  C   UNL     1       4.894   4.491  18.578  0.00  0.00    +0.000 A 
ATOM      3  C   UNL     1       5.847   4.611  19.507  0.00  0.00    +0.000 A 
ATOM      4  C   UNL     1       6.994   5.523  19.357  0.00  0.00    +0.000 A 
ATOM      5  O   UNL     1       7.819   5.555  20.252  0.00  0.00    +0.000 OA
ATOM      6  N   UNL     1       7.042   6.295  18.213  0.00  0.00    +0.000 N 
ATOM      7  C   UNL     1       6.062   6.189  17.209  0.00  0.00    +0.000 A 
ATOM      8  O   UNL     1       6.130   6.893  16.208  0.00  0.00    +0.000 OA
ENDROOT
BRANCH   2   9
ATOM      9  N   UNL     1       3.838   3.584  18.775  0.00  0.00    +0.000 N 
ATOM     10  C   UNL     1       2.753   3.321  17.826  0.00  0.00    +0.000 C 
ATOM     11  C   UNL     1       1.439   3.908  18.386  0.00  0.00    +0.000 C 
ATOM     12  C   UNL     1       1.108   3.209  19.707  0.00  0.00    +0.000 C 
ATOM     13  C   UNL     1       2.302   3.305  20.684  0.00  0.00    +0.000 C 
ATOM     14  C   UNL     1       3.622   2.840  20.027  0.00  0.00    +0.000 C 
BRANCH  13  15
ATOM     15  N   UNL     1       1.998   2.515  21.876  0.00  0.00    +0.000 NA
ATOM     16  H   UNL     1       1.832   1.549  21.595  0.00  0.00    +0.000 HD
ATOM     17  H   UNL     1       1.119   2.846  22.271  0.00  0.00    +0.000 HD
ENDBRANCH  13  15
ENDBRANCH   2   9
BRANCH   1  18
ATOM     18  C   UNL     1       4.165   5.078  16.269  0.00  0.00    +0.000 C 
BRANCH  18  21
ATOM     19  C   UNL     1       6.596   3.652  12.964  0.00  0.00    +0.000 C 
ATOM     20  C   UNL     1       5.745   4.152  14.121  0.00  0.00    +0.000 C 
ATOM     21  C   UNL     1       5.016   4.579  15.113  0.00  0.00    +0.000 C 
ENDBRANCH  18  21
ENDBRANCH   1  18
BRANCH   6  22
ATOM     22  C   UNL     1       8.149   7.220  18.098  0.00  0.00    +0.000 C 
BRANCH  22  23
ATOM     23  C   UNL     1       7.738   8.687  17.848  0.00  0.00    +0.000 C 
ATOM     24  C   UNL     1       8.698   9.708  18.426  0.00  0.00    +0.000 C 
ENDBRANCH  22  23
ENDBRANCH   6  22
TORSDOF 6
ENDMDL
MODEL 7
REMARK VINA RESULT:      -6.3      2.037      3.333
REMARK  Name = 
REMARK  8 active torsions:
REMARK  status: ('A' for Active; 'I' for Inactive)
REMARK    1  A    between atoms: C_1  and  C_2
REMARK    2  A    between atoms: C_3  and  C_4
REMARK    3  A    between atoms: C_4  and  N_5
REMARK    4  A    between atoms: C_6  and  N_7
REMARK    5  A    between atoms: C_11  and  N_12
REMARK    6  A    between atoms: N_17  and  C_18
REMARK    7  A    between atoms: C_18  and  C_19
REMARK    8  A    between atoms: C_19  and  C_20
REMARK                            x       y       z     vdW  Elec       q    Type
REMARK                         _______ _______ _______ _____ _____    ______ ____
ROOT
ATOM      1  N   UNL     1       5.101   5.291  17.439  0.00  0.00    +0.000 N 
ATOM      2  C   UNL     1       5.162   4.578  18.651  0.00  0.00    +0.000 A 
ATOM      3  C   UNL     1       6.213   4.824  19.438  0.00  0.00    +0.000 A 
ATOM      4  C   UNL     1       7.262   5.795  19.084  0.00  0.00    +0.000 A 
ATOM      5  O   UNL     1       8.189   5.943  19.859  0.00  0.00    +0.000 OA
ATOM      6  N   UNL     1       7.110   6.485  17.897  0.00  0.00    +0.000 N 
ATOM      7  C   UNL     1       6.021   6.246  17.039  0.00  0.00    +0.000 A 
ATOM      8  O   UNL     1       5.911   6.880  15.996  0.00  0.00    +0.000 OA
ENDROOT
BRANCH   2   9
ATOM      9  N   UNL     1       4.208   3.620  19.040  0.00  0.00    +0.000 N 
ATOM     10  C   UNL     1       4.075   2.274  18.478  0.00  0.00    +0.000 C 
ATOM     11  C   UNL     1       2.786   2.205  17.631  0.00  0.00    +0.000 C 
ATOM     12  C   UNL     1       1.582   2.474  18.537  0.00  0.00    +0.000 C 
ATOM     13  C   UNL     1       1.762   3.809  19.294  0.00  0.00    +0.000 C 
ATOM     14  C   UNL     1       3.132   3.886  20.008  0.00  0.00    +0.000 C 
BRANCH  13  15
ATOM     15  N   UNL     1       0.661   3.963  20.244  0.00  0.00    +0.000 NA
ATOM     16  H   UNL     1      -0.136   3.421  19.912  0.00  0.00    +0.000 HD
ATOM     17  H   UNL     1       0.359   4.937  20.237  0.00  0.00    +0.000 HD
ENDBRANCH  13  15
ENDBRANCH   2   9
BRANCH   1  18
ATOM     18  C   UNL     1       4.107   4.952  16.425  0.00  0.00    +0.000 C 
BRANCH  18  21
ATOM     19  C   UNL     1       6.204   3.535  12.895  0.00  0.00    +0.000 C 
ATOM     20  C   UNL     1       5.470   4.031  14.131  0.00  0.00    +0.000 C 
ATOM     21  C   UNL     1       4.841   4.455  15.190  0.00  0.00    +0.000 C 
ENDBRANCH  18  21
ENDBRANCH   1  18
BRANCH   6  22
ATOM     22  C   UNL     1       8.123   7.468  17.581  0.00  0.00    +0.000 C 
BRANCH  22  23
ATOM     23  C   UNL     1       7.721   8.927  17.888  0.00  0.00    +0.000 C 
ATOM     24  C   UNL     1       8.816   9.749  18.540  0.00  0.00    +0.000 C 
ENDBRANCH  22  23
ENDBRANCH   6  22
TORSDOF 6
ENDMDL
MODEL 8
REMARK VINA RESULT:      -6.3      2.459      5.151
REMARK  Name = 
REMARK  8 active torsions:
REMARK  status: ('A' for Active; 'I' for Inactive)
REMARK    1  A    between atoms: C_1  and  C_2
REMARK    2  A    between atoms: C_3  and  C_4
REMARK    3  A    between atoms: C_4  and  N_5
REMARK    4  A    between atoms: C_6  and  N_7
REMARK    5  A    between atoms: C_11  and  N_12
REMARK    6  A    between atoms: N_17  and  C_18
REMARK    7  A    between atoms: C_18  and  C_19
REMARK    8  A    between atoms: C_19  and  C_20
REMARK                            x       y       z     vdW  Elec       q    Type
REMARK                         _______ _______ _______ _____ _____    ______ ____
ROOT
ATOM      1  N   UNL     1       2.456   6.827  18.487  0.00  0.00    +0.000 N 
ATOM      2  C   UNL     1       2.286   6.098  19.679  0.00  0.00    +0.000 A 
ATOM      3  C   UNL     1       1.818   6.774  20.732  0.00  0.00    +0.000 A 
ATOM      4  C   UNL     1       1.479   8.206  20.672  0.00  0.00    +0.000 A 
ATOM      5  O   UNL     1       1.071   8.740  21.687  0.00  0.00    +0.000 OA
ATOM      6  N   UNL     1       1.634   8.842  19.455  0.00  0.00    +0.000 N 
ATOM      7  C   UNL     1       2.132   8.164  18.327  0.00  0.00    +0.000 A 
ATOM      8  O   UNL     1       2.252   8.755  17.260  0.00  0.00    +0.000 OA
ENDROOT
BRANCH   2   9
ATOM      9  N   UNL     1       2.611   4.736  19.812  0.00  0.00    +0.000 N 
ATOM     10  C   UNL     1       3.956   4.200  20.039  0.00  0.00    +0.000 C 
ATOM     11  C   UNL     1       4.435   3.480  18.760  0.00  0.00    +0.000 C 
ATOM     12  C   UNL     1       3.490   2.312  18.465  0.00  0.00    +0.000 C 
ATOM     13  C   UNL     1       2.027   2.805  18.394  0.00  0.00    +0.000 C 
ATOM     14  C   UNL     1       1.641   3.644  19.635  0.00  0.00    +0.000 C 
BRANCH  13  15
ATOM     15  N   UNL     1       1.147   1.646  18.246  0.00  0.00    +0.000 NA
ATOM     16  H   UNL     1       1.237   1.287  17.296  0.00  0.00    +0.000 HD
ATOM     17  H   UNL     1       0.180   1.958  18.336  0.00  0.00    +0.000 HD
ENDBRANCH  13  15
ENDBRANCH   2   9
BRANCH   1  18
ATOM     18  C   UNL     1       3.144   6.234  17.343  0.00  0.00    +0.000 C 
BRANCH  18  21
ATOM     19  C   UNL     1       7.327   7.384  17.536  0.00  0.00    +0.000 C 
ATOM     20  C   UNL     1       5.863   6.982  17.468  0.00  0.00    +0.000 C 
ATOM     21  C   UNL     1       4.608   6.637  17.411  0.00  0.00    +0.000 C 
ENDBRANCH  18  21
ENDBRANCH   1  18
BRANCH   6  22
ATOM     22  C   UNL     1       1.256  10.237  19.397  0.00  0.00    +0.000 C 
BRANCH  22  23
ATOM     23  C   UNL     1      -0.266  10.489  19.346  0.00  0.00    +0.000 C 
ATOM     24  C   UNL     1      -0.901  10.192  18.001  0.00  0.00    +0.000 C 
ENDBRANCH  22  23
ENDBRANCH   6  22
TORSDOF 6
ENDMDL
MODEL 9
REMARK VINA RESULT:      -6.2      1.054      1.143
REMARK  Name = 
REMARK  8 active torsions:
REMARK  status: ('A' for Active; 'I' for Inactive)
REMARK    1  A    between atoms: C_1  and  C_2
REMARK    2  A    between atoms: C_3  and  C_4
REMARK    3  A    between atoms: C_4  and  N_5
REMARK    4  A    between atoms: C_6  and  N_7
REMARK    5  A    between atoms: C_11  and  N_12
REMARK    6  A    between atoms: N_17  and  C_18
REMARK    7  A    between atoms: C_18  and  C_19
REMARK    8  A    between atoms: C_19  and  C_20
REMARK                            x       y       z     vdW  Elec       q    Type
REMARK                         _______ _______ _______ _____ _____    ______ ____
ROOT
ATOM      1  N   UNL     1       4.513   5.582  17.956  0.00  0.00    +0.000 N 
ATOM      2  C   UNL     1       4.847   4.461  18.740  0.00  0.00    +0.000 A 
ATOM      3  C   UNL     1       6.141   4.299  19.030  0.00  0.00    +0.000 A 
ATOM      4  C   UNL     1       7.183   5.236  18.574  0.00  0.00    +0.000 A 
ATOM      5  O   UNL     1       8.337   4.998  18.877  0.00  0.00    +0.000 OA
ATOM      6  N   UNL     1       6.770   6.333  17.845  0.00  0.00    +0.000 N 
ATOM      7  C   UNL     1       5.417   6.533  17.513  0.00  0.00    +0.000 A 
ATOM      8  O   UNL     1       5.082   7.520  16.869  0.00  0.00    +0.000 OA
ENDROOT
BRANCH   2   9
ATOM      9  N   UNL     1       3.908   3.516  19.188  0.00  0.00    +0.000 N 
ATOM     10  C   UNL     1       3.747   2.159  18.659  0.00  0.00    +0.000 C 
ATOM     11  C   UNL     1       2.422   2.079  17.869  0.00  0.00    +0.000 C 
ATOM     12  C   UNL     1       1.259   2.370  18.821  0.00  0.00    +0.000 C 
ATOM     13  C   UNL     1       1.476   3.719  19.543  0.00  0.00    +0.000 C 
ATOM     14  C   UNL     1       2.875   3.804  20.196  0.00  0.00    +0.000 C 
BRANCH  13  15
ATOM     15  N   UNL     1       0.418   3.896  20.537  0.00  0.00    +0.000 NA
ATOM     16  H   UNL     1      -0.138   4.712  20.281  0.00  0.00    +0.000 HD
ATOM     17  H   UNL     1       0.848   4.120  21.433  0.00  0.00    +0.000 HD
ENDBRANCH  13  15
ENDBRANCH   2   9
BRANCH   1  18
ATOM     18  C   UNL     1       3.163   5.739  17.421  0.00  0.00    +0.000 C 
BRANCH  18  21
ATOM     19  C   UNL     1       1.363   9.220  19.293  0.00  0.00    +0.000 C 
ATOM     20  C   UNL     1       1.993   8.002  18.638  0.00  0.00    +0.000 C 
ATOM     21  C   UNL     1       2.533   6.957  18.076  0.00  0.00    +0.000 C 
ENDBRANCH  18  21
ENDBRANCH   1  18
BRANCH   6  22
ATOM     22  C   UNL     1       7.795   7.270  17.441  0.00  0.00    +0.000 C 
BRANCH  22  23
ATOM     23  C   UNL     1       8.320   8.178  18.574  0.00  0.00    +0.000 C 
ATOM     24  C   UNL     1       8.454   9.638  18.189  0.00  0.00    +0.000 C 
ENDBRANCH  22  23
ENDBRANCH   6  22
TORSDOF 6
ENDMDL
