MODEL 1
REMARK VINA RESULT:      -7.4      0.000      0.000
REMARK  Name = 
REMARK  6 active torsions:
REMARK  status: ('A' for Active; 'I' for Inactive)
REMARK    1  A    between atoms: C_1  and  C_2
REMARK    2  A    between atoms: C_2  and  C_3
REMARK    3  A    between atoms: C_6  and  C_7
REMARK    4  A    between atoms: C_7  and  N_8
REMARK    5  A    between atoms: C_10  and  C_11
REMARK    6  A    between atoms: C_14  and  N_15
REMARK                            x       y       z     vdW  Elec       q    Type
REMARK                         _______ _______ _______ _____ _____    ______ ____
ROOT
ATOM      1  N   UNL     1       1.650   7.314  20.428  0.00  0.00    +0.000 N 
ATOM      2  C   UNL     1       2.422   7.500  19.322  0.00  0.00    +0.000 A 
ATOM      3  C   UNL     1       2.882   6.237  19.028  0.00  0.00    +0.000 A 
ATOM      4  N   UNL     1       2.378   5.351  19.945  0.00  0.00    +0.000 NA
ATOM      5  N   UNL     1       1.630   6.028  20.807  0.00  0.00    +0.000 NA
ENDROOT
BRANCH   3   6
ATOM      6  C   UNL     1       3.731   5.868  17.915  0.00  0.00    +0.000 A 
ATOM      7  C   UNL     1       3.854   4.532  17.508  0.00  0.00    +0.000 A 
ATOM      8  C   UNL     1       4.691   4.185  16.444  0.00  0.00    +0.000 A 
ATOM      9  C   UNL     1       5.415   5.184  15.781  0.00  0.00    +0.000 A 
ATOM     10  C   UNL     1       5.297   6.524  16.169  0.00  0.00    +0.000 A 
ATOM     11  C   UNL     1       4.450   6.861  17.232  0.00  0.00    +0.000 A 
BRANCH   9  12
ATOM     12  N   UNL     1       6.306   4.818  14.671  0.00  0.00    +0.000 N 
ATOM     13  O   UNL     1       5.881   4.012  13.835  0.00  0.00    +0.000 OA
ATOM     14  O   UNL     1       7.432   5.336  14.645  0.00  0.00    +0.000 OA
ENDBRANCH   9  12
ENDBRANCH   3   6
BRANCH   1  15
ATOM     15  C   UNL     1       0.918   8.310  21.166  0.00  0.00    +0.000 C 
BRANCH  15  21
ATOM     16  C   UNL     1      -0.941  11.217  22.634  0.00  0.00    +0.000 C 
ATOM     17  C   UNL     1      -0.067  11.547  21.423  0.00  0.00    +0.000 C 
ATOM     18  C   UNL     1       0.382  12.999  21.458  0.00  0.00    +0.000 C 
ATOM     19  O   UNL     1      -0.796  11.312  20.219  0.00  0.00    +0.000 OA
ATOM     20  C   UNL     1      -0.504   9.966  19.857  0.00  0.00    +0.000 C 
ATOM     21  C   UNL     1       0.850   9.666  20.473  0.00  0.00    +0.000 C 
ATOM     22  O   UNL     1       1.076  10.690  21.454  0.00  0.00    +0.000 OA
ENDBRANCH  15  21
ENDBRANCH   1  15
TORSDOF 4
ENDMDL
MODEL 2
REMARK VINA RESULT:      -7.3      0.094      1.229
REMARK  Name = 
REMARK  6 active torsions:
REMARK  status: ('A' for Active; 'I' for Inactive)
REMARK    1  A    between atoms: C_1  and  C_2
REMARK    2  A    between atoms: C_2  and  C_3
REMARK    3  A    between atoms: C_6  and  C_7
REMARK    4  A    between atoms: C_7  and  N_8
REMARK    5  A    between atoms: C_10  and  C_11
REMARK    6  A    between atoms: C_14  and  N_15
REMARK                            x       y       z     vdW  Elec       q    Type
REMARK                         _______ _______ _______ _____ _____    ______ ____
ROOT
ATOM      1  N   UNL     1       1.633   7.355  20.480  0.00  0.00    +0.000 N 
ATOM      2  C   UNL     1       2.433   7.553  19.396  0.00  0.00    +0.000 A 
ATOM      3  C   UNL     1       2.875   6.288  19.081  0.00  0.00    +0.000 A 
ATOM      4  N   UNL     1       2.334   5.390  19.965  0.00  0.00    +0.000 NA
ATOM      5  N   UNL     1       1.581   6.061  20.827  0.00  0.00    +0.000 NA
ENDROOT
BRANCH   3   6
ATOM      6  C   UNL     1       3.742   5.930  17.979  0.00  0.00    +0.000 A 
ATOM      7  C   UNL     1       4.388   6.913  17.214  0.00  0.00    +0.000 A 
ATOM      8  C   UNL     1       5.208   6.557  16.140  0.00  0.00    +0.000 A 
ATOM      9  C   UNL     1       5.383   5.203  15.825  0.00  0.00    +0.000 A 
ATOM     10  C   UNL     1       4.753   4.210  16.584  0.00  0.00    +0.000 A 
ATOM     11  C   UNL     1       3.940   4.578  17.661  0.00  0.00    +0.000 A 
BRANCH   9  12
ATOM     12  N   UNL     1       6.234   4.829  14.687  0.00  0.00    +0.000 N 
ATOM     13  O   UNL     1       7.371   5.312  14.636  0.00  0.00    +0.000 OA
ATOM     14  O   UNL     1       5.757   4.054  13.845  0.00  0.00    +0.000 OA
ENDBRANCH   9  12
ENDBRANCH   3   6
BRANCH   1  15
ATOM     15  C   UNL     1       0.904   8.347  21.227  0.00  0.00    +0.000 C 
BRANCH  15  21
ATOM     16  C   UNL     1      -1.006  11.225  22.685  0.00  0.00    +0.000 C 
ATOM     17  C   UNL     1      -0.120  11.571  21.487  0.00  0.00    +0.000 C 
ATOM     18  C   UNL     1       0.312  13.027  21.536  0.00  0.00    +0.000 C 
ATOM     19  O   UNL     1      -0.831  11.334  20.272  0.00  0.00    +0.000 OA
ATOM     20  C   UNL     1      -0.520   9.994  19.907  0.00  0.00    +0.000 C 
ATOM     21  C   UNL     1       0.830   9.705  20.539  0.00  0.00    +0.000 C 
ATOM     22  O   UNL     1       1.031  10.727  21.529  0.00  0.00    +0.000 OA
ENDBRANCH  15  21
ENDBRANCH   1  15
TORSDOF 4
ENDMDL
MODEL 3
REMARK VINA RESULT:      -7.1      2.257      8.180
REMARK  Name = 
REMARK  6 active torsions:
REMARK  status: ('A' for Active; 'I' for Inactive)
REMARK    1  A    between atoms: C_1  and  C_2
REMARK    2  A    between atoms: C_2  and  C_3
REMARK    3  A    between atoms: C_6  and  C_7
REMARK    4  A    between atoms: C_7  and  N_8
REMARK    5  A    between atoms: C_10  and  C_11
REMARK    6  A    between atoms: C_14  and  N_15
REMARK                            x       y       z     vdW  Elec       q    Type
REMARK                         _______ _______ _______ _____ _____    ______ ____
ROOT
ATOM      1  N   UNL     1       3.354   5.689  18.165  0.00  0.00    +0.000 N 
ATOM      2  C   UNL     1       2.994   6.995  18.295  0.00  0.00    +0.000 A 
ATOM      3  C   UNL     1       2.219   7.010  19.431  0.00  0.00    +0.000 A 
ATOM      4  N   UNL     1       2.143   5.738  19.940  0.00  0.00    +0.000 NA
ATOM      5  N   UNL     1       2.836   4.934  19.145  0.00  0.00    +0.000 NA
ENDROOT
BRANCH   3   6
ATOM      6  C   UNL     1       1.601   8.171  20.037  0.00  0.00    +0.000 A 
ATOM      7  C   UNL     1       1.277   8.192  21.401  0.00  0.00    +0.000 A 
ATOM      8  C   UNL     1       0.664   9.312  21.971  0.00  0.00    +0.000 A 
ATOM      9  C   UNL     1       0.370  10.421  21.168  0.00  0.00    +0.000 A 
ATOM     10  C   UNL     1       0.696  10.419  19.807  0.00  0.00    +0.000 A 
ATOM     11  C   UNL     1       1.315   9.296  19.248  0.00  0.00    +0.000 A 
BRANCH   9  12
ATOM     12  N   UNL     1      -0.286  11.593  21.765  0.00  0.00    +0.000 N 
ATOM     13  O   UNL     1      -0.595  12.524  21.012  0.00  0.00    +0.000 OA
ATOM     14  O   UNL     1      -0.486  11.577  22.988  0.00  0.00    +0.000 OA
ENDBRANCH   9  12
ENDBRANCH   3   6
BRANCH   1  15
ATOM     15  C   UNL     1       4.173   5.101  17.138  0.00  0.00    +0.000 C 
BRANCH  15  21
ATOM     16  C   UNL     1       7.301   7.109  17.626  0.00  0.00    +0.000 C 
ATOM     17  C   UNL     1       7.340   5.694  18.202  0.00  0.00    +0.000 C 
ATOM     18  C   UNL     1       8.311   5.609  19.368  0.00  0.00    +0.000 C 
ATOM     19  O   UNL     1       7.741   4.769  17.191  0.00  0.00    +0.000 OA
ATOM     20  C   UNL     1       6.532   4.316  16.591  0.00  0.00    +0.000 C 
ATOM     21  C   UNL     1       5.465   4.481  17.658  0.00  0.00    +0.000 C 
ATOM     22  O   UNL     1       6.024   5.360  18.646  0.00  0.00    +0.000 OA
ENDBRANCH  15  21
ENDBRANCH   1  15
TORSDOF 4
ENDMDL
MODEL 4
REMARK VINA RESULT:      -7.0      2.926      3.564
REMARK  Name = 
REMARK  6 active torsions:
REMARK  status: ('A' for Active; 'I' for Inactive)
REMARK    1  A    between atoms: C_1  and  C_2
REMARK    2  A    between atoms: C_2  and  C_3
REMARK    3  A    between atoms: C_6  and  C_7
REMARK    4  A    between atoms: C_7  and  N_8
REMARK    5  A    between atoms: C_10  and  C_11
REMARK    6  A    between atoms: C_14  and  N_15
REMARK                            x       y       z     vdW  Elec       q    Type
REMARK                         _______ _______ _______ _____ _____    ______ ____
ROOT
ATOM      1  N   UNL     1       1.488   9.560  18.655  0.00  0.00    +0.000 N 
ATOM      2  C   UNL     1       1.600   8.370  19.306  0.00  0.00    +0.000 A 
ATOM      3  C   UNL     1       2.409   7.621  18.482  0.00  0.00    +0.000 A 
ATOM      4  N   UNL     1       2.754   8.371  17.388  0.00  0.00    +0.000 NA
ATOM      5  N   UNL     1       2.172   9.559  17.501  0.00  0.00    +0.000 NA
ENDROOT
BRANCH   3   6
ATOM      6  C   UNL     1       2.868   6.270  18.725  0.00  0.00    +0.000 A 
ATOM      7  C   UNL     1       3.707   5.613  17.813  0.00  0.00    +0.000 A 
ATOM      8  C   UNL     1       4.130   4.302  18.048  0.00  0.00    +0.000 A 
ATOM      9  C   UNL     1       3.708   3.639  19.207  0.00  0.00    +0.000 A 
ATOM     10  C   UNL     1       2.878   4.283  20.133  0.00  0.00    +0.000 A 
ATOM     11  C   UNL     1       2.467   5.598  19.890  0.00  0.00    +0.000 A 
BRANCH   9  12
ATOM     12  N   UNL     1       4.141   2.255  19.448  0.00  0.00    +0.000 N 
ATOM     13  O   UNL     1       3.673   1.371  18.722  0.00  0.00    +0.000 OA
ATOM     14  O   UNL     1       4.947   2.059  20.370  0.00  0.00    +0.000 OA
ENDBRANCH   9  12
ENDBRANCH   3   6
BRANCH   1  15
ATOM     15  C   UNL     1       0.749  10.723  19.070  0.00  0.00    +0.000 C 
BRANCH  15  21
ATOM     16  C   UNL     1      -2.007  12.550  20.838  0.00  0.00    +0.000 C 
ATOM     17  C   UNL     1      -0.996  11.857  21.750  0.00  0.00    +0.000 C 
ATOM     18  C   UNL     1      -1.628  11.494  23.084  0.00  0.00    +0.000 C 
ATOM     19  O   UNL     1       0.120  12.717  21.981  0.00  0.00    +0.000 OA
ATOM     20  C   UNL     1       1.063  12.395  20.964  0.00  0.00    +0.000 C 
ATOM     21  C   UNL     1       0.763  10.958  20.576  0.00  0.00    +0.000 C 
ATOM     22  O   UNL     1      -0.545  10.672  21.094  0.00  0.00    +0.000 OA
ENDBRANCH  15  21
ENDBRANCH   1  15
TORSDOF 4
ENDMDL
MODEL 5
REMARK VINA RESULT:      -7.0      3.180      8.930
REMARK  Name = 
REMARK  6 active torsions:
REMARK  status: ('A' for Active; 'I' for Inactive)
REMARK    1  A    between atoms: C_1  and  C_2
REMARK    2  A    between atoms: C_2  and  C_3
REMARK    3  A    between atoms: C_6  and  C_7
REMARK    4  A    between atoms: C_7  and  N_8
REMARK    5  A    between atoms: C_10  and  C_11
REMARK    6  A    between atoms: C_14  and  N_15
REMARK                            x       y       z     vdW  Elec       q    Type
REMARK                         _______ _______ _______ _____ _____    ______ ____
ROOT
ATOM      1  N   UNL     1       2.292   7.472  19.452  0.00  0.00    +0.000 N 
ATOM      2  C   UNL     1       1.659   7.889  20.583  0.00  0.00    +0.000 A 
ATOM      3  C   UNL     1       1.036   9.054  20.200  0.00  0.00    +0.000 A 
ATOM      4  N   UNL     1       1.305   9.293  18.876  0.00  0.00    +0.000 NA
ATOM      5  N   UNL     1       2.087   8.317  18.431  0.00  0.00    +0.000 NA
ENDROOT
BRANCH   3   6
ATOM      6  C   UNL     1       0.196   9.893  21.028  0.00  0.00    +0.000 A 
ATOM      7  C   UNL     1      -0.095   9.545  22.355  0.00  0.00    +0.000 A 
ATOM      8  C   UNL     1      -0.922  10.353  23.139  0.00  0.00    +0.000 A 
ATOM      9  C   UNL     1      -1.466  11.521  22.591  0.00  0.00    +0.000 A 
ATOM     10  C   UNL     1      -1.178  11.889  21.271  0.00  0.00    +0.000 A 
ATOM     11  C   UNL     1      -0.343  11.075  20.497  0.00  0.00    +0.000 A 
BRANCH   9  12
ATOM     12  N   UNL     1      -2.347  12.364  23.412  0.00  0.00    +0.000 N 
ATOM     13  O   UNL     1      -3.424  11.883  23.779  0.00  0.00    +0.000 OA
ATOM     14  O   UNL     1      -1.956  13.510  23.681  0.00  0.00    +0.000 OA
ENDBRANCH   9  12
ENDBRANCH   3   6
BRANCH   1  15
ATOM     15  C   UNL     1       3.102   6.294  19.281  0.00  0.00    +0.000 C 
BRANCH  15  21
ATOM     16  C   UNL     1       2.624   2.737  20.366  0.00  0.00    +0.000 C 
ATOM     17  C   UNL     1       1.943   3.114  19.051  0.00  0.00    +0.000 C 
ATOM     18  C   UNL     1       0.730   2.233  18.797  0.00  0.00    +0.000 C 
ATOM     19  O   UNL     1       2.861   2.968  17.968  0.00  0.00    +0.000 OA
ATOM     20  C   UNL     1       3.480   4.242  17.823  0.00  0.00    +0.000 C 
ATOM     21  C   UNL     1       2.478   5.243  18.371  0.00  0.00    +0.000 C 
ATOM     22  O   UNL     1       1.534   4.480  19.138  0.00  0.00    +0.000 OA
ENDBRANCH  15  21
ENDBRANCH   1  15
TORSDOF 4
ENDMDL
MODEL 6
REMARK VINA RESULT:      -7.0      2.917      3.524
REMARK  Name = 
REMARK  6 active torsions:
REMARK  status: ('A' for Active; 'I' for Inactive)
REMARK    1  A    between atoms: C_1  and  C_2
REMARK    2  A    between atoms: C_2  and  C_3
REMARK    3  A    between atoms: C_6  and  C_7
REMARK    4  A    between atoms: C_7  and  N_8
REMARK    5  A    between atoms: C_10  and  C_11
REMARK    6  A    between atoms: C_14  and  N_15
REMARK                            x       y       z     vdW  Elec       q    Type
REMARK                         _______ _______ _______ _____ _____    ______ ____
ROOT
ATOM      1  N   UNL     1       1.474   9.660  18.668  0.00  0.00    +0.000 N 
ATOM      2  C   UNL     1       1.566   8.465  19.314  0.00  0.00    +0.000 A 
ATOM      3  C   UNL     1       2.344   7.699  18.475  0.00  0.00    +0.000 A 
ATOM      4  N   UNL     1       2.691   8.445  17.378  0.00  0.00    +0.000 NA
ATOM      5  N   UNL     1       2.140   9.646  17.504  0.00  0.00    +0.000 NA
ENDROOT
BRANCH   3   6
ATOM      6  C   UNL     1       2.773   6.336  18.707  0.00  0.00    +0.000 A 
ATOM      7  C   UNL     1       2.421   5.653  19.880  0.00  0.00    +0.000 A 
ATOM      8  C   UNL     1       2.856   4.344  20.101  0.00  0.00    +0.000 A 
ATOM      9  C   UNL     1       3.654   3.710  19.140  0.00  0.00    +0.000 A 
ATOM     10  C   UNL     1       4.006   4.374  17.959  0.00  0.00    +0.000 A 
ATOM     11  C   UNL     1       3.559   5.683  17.745  0.00  0.00    +0.000 A 
BRANCH   9  12
ATOM     12  N   UNL     1       4.123   2.338  19.379  0.00  0.00    +0.000 N 
ATOM     13  O   UNL     1       3.681   1.444  18.648  0.00  0.00    +0.000 OA
ATOM     14  O   UNL     1       4.930   2.161  20.303  0.00  0.00    +0.000 OA
ENDBRANCH   9  12
ENDBRANCH   3   6
BRANCH   1  15
ATOM     15  C   UNL     1       0.770  10.839  19.099  0.00  0.00    +0.000 C 
BRANCH  15  21
ATOM     16  C   UNL     1      -2.062  12.486  20.924  0.00  0.00    +0.000 C 
ATOM     17  C   UNL     1      -1.002  11.837  21.814  0.00  0.00    +0.000 C 
ATOM     18  C   UNL     1      -1.598  11.421  23.149  0.00  0.00    +0.000 C 
ATOM     19  O   UNL     1       0.067  12.754  22.045  0.00  0.00    +0.000 OA
ATOM     20  C   UNL     1       1.014  12.499  21.014  0.00  0.00    +0.000 C 
ATOM     21  C   UNL     1       0.790  11.053  20.608  0.00  0.00    +0.000 C 
ATOM     22  O   UNL     1      -0.495  10.688  21.135  0.00  0.00    +0.000 OA
ENDBRANCH  15  21
ENDBRANCH   1  15
TORSDOF 4
ENDMDL
MODEL 7
REMARK VINA RESULT:      -7.0      2.597      9.081
REMARK  Name = 
REMARK  6 active torsions:
REMARK  status: ('A' for Active; 'I' for Inactive)
REMARK    1  A    between atoms: C_1  and  C_2
REMARK    2  A    between atoms: C_2  and  C_3
REMARK    3  A    between atoms: C_6  and  C_7
REMARK    4  A    between atoms: C_7  and  N_8
REMARK    5  A    between atoms: C_10  and  C_11
REMARK    6  A    between atoms: C_14  and  N_15
REMARK                            x       y       z     vdW  Elec       q    Type
REMARK                         _______ _______ _______ _____ _____    ______ ____
ROOT
ATOM      1  N   UNL     1       2.246   7.079  19.699  0.00  0.00    +0.000 N 
ATOM      2  C   UNL     1       1.536   7.530  20.769  0.00  0.00    +0.000 A 
ATOM      3  C   UNL     1       1.099   8.773  20.372  0.00  0.00    +0.000 A 
ATOM      4  N   UNL     1       1.548   9.022  19.101  0.00  0.00    +0.000 NA
ATOM      5  N   UNL     1       2.261   7.977  18.702  0.00  0.00    +0.000 NA
ENDROOT
BRANCH   3   6
ATOM      6  C   UNL     1       0.268   9.677  21.138  0.00  0.00    +0.000 A 
ATOM      7  C   UNL     1      -0.074   9.398  22.469  0.00  0.00    +0.000 A 
ATOM      8  C   UNL     1      -0.892  10.269  23.193  0.00  0.00    +0.000 A 
ATOM      9  C   UNL     1      -1.375  11.432  22.580  0.00  0.00    +0.000 A 
ATOM     10  C   UNL     1      -1.035  11.730  21.255  0.00  0.00    +0.000 A 
ATOM     11  C   UNL     1      -0.210  10.855  20.542  0.00  0.00    +0.000 A 
BRANCH   9  12
ATOM     12  N   UNL     1      -2.247  12.341  23.337  0.00  0.00    +0.000 N 
ATOM     13  O   UNL     1      -1.818  13.474  23.587  0.00  0.00    +0.000 OA
ATOM     14  O   UNL     1      -3.358  11.914  23.684  0.00  0.00    +0.000 OA
ENDBRANCH   9  12
ENDBRANCH   3   6
BRANCH   1  15
ATOM     15  C   UNL     1       2.932   5.820  19.566  0.00  0.00    +0.000 C 
BRANCH  15  21
ATOM     16  C   UNL     1       3.994   2.897  17.472  0.00  0.00    +0.000 C 
ATOM     17  C   UNL     1       4.717   4.210  17.172  0.00  0.00    +0.000 C 
ATOM     18  C   UNL     1       5.207   4.242  15.733  0.00  0.00    +0.000 C 
ATOM     19  O   UNL     1       5.833   4.362  18.049  0.00  0.00    +0.000 OA
ATOM     20  C   UNL     1       5.336   5.082  19.172  0.00  0.00    +0.000 C 
ATOM     21  C   UNL     1       4.150   5.874  18.651  0.00  0.00    +0.000 C 
ATOM     22  O   UNL     1       3.799   5.282  17.391  0.00  0.00    +0.000 OA
ENDBRANCH  15  21
ENDBRANCH   1  15
TORSDOF 4
ENDMDL
MODEL 8
REMARK VINA RESULT:      -6.9      3.130      4.014
REMARK  Name = 
REMARK  6 active torsions:
REMARK  status: ('A' for Active; 'I' for Inactive)
REMARK    1  A    between atoms: C_1  and  C_2
REMARK    2  A    between atoms: C_2  and  C_3
REMARK    3  A    between atoms: C_6  and  C_7
REMARK    4  A    between atoms: C_7  and  N_8
REMARK    5  A    between atoms: C_10  and  C_11
REMARK    6  A    between atoms: C_14  and  N_15
REMARK                            x       y       z     vdW  Elec       q    Type
REMARK                         _______ _______ _______ _____ _____    ______ ____
ROOT
ATOM      1  N   UNL     1       1.375   9.683  18.862  0.00  0.00    +0.000 N 
ATOM      2  C   UNL     1       1.525   8.488  19.496  0.00  0.00    +0.000 A 
ATOM      3  C   UNL     1       2.224   7.723  18.592  0.00  0.00    +0.000 A 
ATOM      4  N   UNL     1       2.471   8.469  17.468  0.00  0.00    +0.000 NA
ATOM      5  N   UNL     1       1.934   9.669  17.643  0.00  0.00    +0.000 NA
ENDROOT
BRANCH   3   6
ATOM      6  C   UNL     1       2.673   6.359  18.783  0.00  0.00    +0.000 A 
ATOM      7  C   UNL     1       2.460   5.689  19.996  0.00  0.00    +0.000 A 
ATOM      8  C   UNL     1       2.914   4.379  20.177  0.00  0.00    +0.000 A 
ATOM      9  C   UNL     1       3.589   3.734  19.134  0.00  0.00    +0.000 A 
ATOM     10  C   UNL     1       3.802   4.386  17.913  0.00  0.00    +0.000 A 
ATOM     11  C   UNL     1       3.338   5.694  17.741  0.00  0.00    +0.000 A 
BRANCH   9  12
ATOM     12  N   UNL     1       4.079   2.362  19.328  0.00  0.00    +0.000 N 
ATOM     13  O   UNL     1       3.696   1.497  18.531  0.00  0.00    +0.000 OA
ATOM     14  O   UNL     1       4.841   2.154  20.283  0.00  0.00    +0.000 OA
ENDBRANCH   9  12
ENDBRANCH   3   6
BRANCH   1  15
ATOM     15  C   UNL     1       0.712  10.862  19.354  0.00  0.00    +0.000 C 
BRANCH  15  21
ATOM     16  C   UNL     1      -1.982  11.549  16.839  0.00  0.00    +0.000 C 
ATOM     17  C   UNL     1      -2.443  10.829  18.106  0.00  0.00    +0.000 C 
ATOM     18  C   UNL     1      -3.677   9.986  17.831  0.00  0.00    +0.000 C 
ATOM     19  O   UNL     1      -2.744  11.782  19.125  0.00  0.00    +0.000 OA
ATOM     20  C   UNL     1      -1.534  11.950  19.856  0.00  0.00    +0.000 C 
ATOM     21  C   UNL     1      -0.765  10.654  19.667  0.00  0.00    +0.000 C 
ATOM     22  O   UNL     1      -1.377   9.989  18.551  0.00  0.00    +0.000 OA
ENDBRANCH  15  21
ENDBRANCH   1  15
TORSDOF 4
ENDMDL
MODEL 9
REMARK VINA RESULT:      -6.9      2.254      8.169
REMARK  Name = 
REMARK  6 active torsions:
REMARK  status: ('A' for Active; 'I' for Inactive)
REMARK    1  A    between atoms: C_1  and  C_2
REMARK    2  A    between atoms: C_2  and  C_3
REMARK    3  A    between atoms: C_6  and  C_7
REMARK    4  A    between atoms: C_7  and  N_8
REMARK    5  A    between atoms: C_10  and  C_11
REMARK    6  A    between atoms: C_14  and  N_15
REMARK                            x       y       z     vdW  Elec       q    Type
REMARK                         _______ _______ _______ _____ _____    ______ ____
ROOT
ATOM      1  N   UNL     1       3.293   5.687  18.282  0.00  0.00    +0.000 N 
ATOM      2  C   UNL     1       2.904   6.991  18.319  0.00  0.00    +0.000 A 
ATOM      3  C   UNL     1       2.203   7.090  19.498  0.00  0.00    +0.000 A 
ATOM      4  N   UNL     1       2.197   5.868  20.122  0.00  0.00    +0.000 NA
ATOM      5  N   UNL     1       2.862   5.011  19.357  0.00  0.00    +0.000 NA
ENDROOT
BRANCH   3   6
ATOM      6  C   UNL     1       1.591   8.286  20.037  0.00  0.00    +0.000 A 
ATOM      7  C   UNL     1       1.291   9.382  19.215  0.00  0.00    +0.000 A 
ATOM      8  C   UNL     1       0.718  10.539  19.749  0.00  0.00    +0.000 A 
ATOM      9  C   UNL     1       0.443  10.603  21.121  0.00  0.00    +0.000 A 
ATOM     10  C   UNL     1       0.727   9.514  21.954  0.00  0.00    +0.000 A 
ATOM     11  C   UNL     1       1.295   8.358  21.407  0.00  0.00    +0.000 A 
BRANCH   9  12
ATOM     12  N   UNL     1      -0.148  11.824  21.686  0.00  0.00    +0.000 N 
ATOM     13  O   UNL     1      -1.327  11.776  22.053  0.00  0.00    +0.000 OA
ATOM     14  O   UNL     1       0.573  12.831  21.754  0.00  0.00    +0.000 OA
ENDBRANCH   9  12
ENDBRANCH   3   6
BRANCH   1  15
ATOM     15  C   UNL     1       4.062   5.028  17.259  0.00  0.00    +0.000 C 
BRANCH  15  21
ATOM     16  C   UNL     1       7.123   7.176  17.535  0.00  0.00    +0.000 C 
ATOM     17  C   UNL     1       7.243   5.788  18.163  0.00  0.00    +0.000 C 
ATOM     18  C   UNL     1       8.263   5.789  19.290  0.00  0.00    +0.000 C 
ATOM     19  O   UNL     1       7.640   4.839  17.174  0.00  0.00    +0.000 OA
ATOM     20  C   UNL     1       6.427   4.314  16.644  0.00  0.00    +0.000 C 
ATOM     21  C   UNL     1       5.398   4.481  17.748  0.00  0.00    +0.000 C 
ATOM     22  O   UNL     1       5.961   5.420  18.677  0.00  0.00    +0.000 OA
ENDBRANCH  15  21
ENDBRANCH   1  15
TORSDOF 4
ENDMDL
