MODEL 1
REMARK VINA RESULT:      -5.7      0.000      0.000
REMARK  Name = 
REMARK  13 active torsions:
REMARK  status: ('A' for Active; 'I' for Inactive)
REMARK    1  A    between atoms: C_1  and  C_2
REMARK    2  A    between atoms: C_2  and  C_3
REMARK    3  A    between atoms: C_2  and  N_4
REMARK    4  A    between atoms: N_4  and  C_5
REMARK    5  A    between atoms: N_4  and  C_27
REMARK    6  A    between atoms: C_5  and  C_6
REMARK    7  A    between atoms: C_6  and  O_7
REMARK    8  A    between atoms: C_6  and  C_8
REMARK    9  A    between atoms: C_8  and  N_9
REMARK   10  A    between atoms: C_22  and  C_23
REMARK   11  A    between atoms: C_23  and  O_25
REMARK   12  A    between atoms: C_27  and  C_28
REMARK   13  A    between atoms: C_27  and  C_29
REMARK                            x       y       z     vdW  Elec       q    Type
REMARK                         _______ _______ _______ _____ _____    ______ ____
ROOT
ATOM      1  N   UNL     1      -3.426  12.246  20.049  0.00  0.00    +0.000 N 
ATOM      2  C   UNL     1      -3.412  11.788  18.681  0.00  0.00    +0.000 A 
ATOM      3  C   UNL     1      -2.244  11.609  17.898  0.00  0.00    +0.000 A 
ATOM      4  C   UNL     1      -2.287  11.257  16.539  0.00  0.00    +0.000 A 
ATOM      5  C   UNL     1      -3.501  11.035  15.911  0.00  0.00    +0.000 A 
ATOM      6  C   UNL     1      -4.666  11.145  16.654  0.00  0.00    +0.000 A 
ATOM      7  C   UNL     1      -4.610  11.506  18.016  0.00  0.00    +0.000 A 
ATOM      8  C   UNL     1      -5.870  11.607  18.749  0.00  0.00    +0.000 A 
ATOM      9  O   UNL     1      -6.922  11.277  18.210  0.00  0.00    +0.000 OA
ATOM     10  C   UNL     1      -5.861  12.121  20.132  0.00  0.00    +0.000 A 
ATOM     11  C   UNL     1      -7.135  12.255  20.722  0.00  0.00    +0.000 A 
ATOM     12  C   UNL     1      -7.265  12.736  22.005  0.00  0.00    +0.000 A 
ATOM     13  C   UNL     1      -6.119  13.099  22.686  0.00  0.00    +0.000 A 
ATOM     14  C   UNL     1      -4.824  13.014  22.095  0.00  0.00    +0.000 A 
ATOM     15  C   UNL     1      -4.642  12.475  20.780  0.00  0.00    +0.000 A 
ENDROOT
BRANCH  14  16
ATOM     16  C   UNL     1      -3.790  13.534  23.039  0.00  0.00    +0.000 C 
ATOM     17  O   UNL     1      -3.202  14.592  22.939  0.00  0.00    +0.000 OA
BRANCH  16  18
ATOM     18  O   UNL     1      -3.493  12.652  24.027  0.00  0.00    +0.000 OA
ATOM     19  H   UNL     1      -2.902  11.910  23.792  0.00  0.00    +0.000 HD
ENDBRANCH  16  18
ENDBRANCH  14  16
BRANCH   1  20
ATOM     20  C   UNL     1      -2.136  12.794  20.551  0.00  0.00    +0.000 C 
BRANCH  20  21
ATOM     21  C   UNL     1      -1.322  11.723  21.313  0.00  0.00    +0.000 C 
BRANCH  21  22
ATOM     22  O   UNL     1      -1.117  12.177  22.659  0.00  0.00    +0.000 OA
ATOM     23  H   UNL     1      -1.260  11.420  23.252  0.00  0.00    +0.000 HD
ENDBRANCH  21  22
BRANCH  21  24
ATOM     24  C   UNL     1       0.023  11.369  20.616  0.00  0.00    +0.000 C 
BRANCH  24  25
ATOM     25  N   UNL     1       0.124  10.031  19.925  0.00  0.00    +0.000 NA
BRANCH  25  27
ATOM     26  C   UNL     1       1.487   9.575  22.002  0.00  0.00    +0.000 C 
ATOM     27  C   UNL     1       0.583   8.980  20.893  0.00  0.00    +0.000 C 
ATOM     28  C   UNL     1      -0.512   8.220  21.658  0.00  0.00    +0.000 C 
ENDBRANCH  25  27
BRANCH  25  29
ATOM     29  C   UNL     1       0.879  10.133  18.631  0.00  0.00    +0.000 C 
ATOM     30  C   UNL     1       1.820  11.336  18.446  0.00  0.00    +0.000 C 
ATOM     31  C   UNL     1       1.774   8.893  18.378  0.00  0.00    +0.000 C 
ENDBRANCH  25  29
ENDBRANCH  24  25
ENDBRANCH  21  24
ENDBRANCH  20  21
ENDBRANCH   1  20
TORSDOF 9
ENDMDL
MODEL 2
REMARK VINA RESULT:      -5.7      3.276      5.985
REMARK  Name = 
REMARK  13 active torsions:
REMARK  status: ('A' for Active; 'I' for Inactive)
REMARK    1  A    between atoms: C_1  and  C_2
REMARK    2  A    between atoms: C_2  and  C_3
REMARK    3  A    between atoms: C_2  and  N_4
REMARK    4  A    between atoms: N_4  and  C_5
REMARK    5  A    between atoms: N_4  and  C_27
REMARK    6  A    between atoms: C_5  and  C_6
REMARK    7  A    between atoms: C_6  and  O_7
REMARK    8  A    between atoms: C_6  and  C_8
REMARK    9  A    between atoms: C_8  and  N_9
REMARK   10  A    between atoms: C_22  and  C_23
REMARK   11  A    between atoms: C_23  and  O_25
REMARK   12  A    between atoms: C_27  and  C_28
REMARK   13  A    between atoms: C_27  and  C_29
REMARK                            x       y       z     vdW  Elec       q    Type
REMARK                         _______ _______ _______ _____ _____    ______ ____
ROOT
ATOM      1  N   UNL     1      -0.306  12.144  20.393  0.00  0.00    +0.000 N 
ATOM      2  C   UNL     1      -1.030  13.016  21.285  0.00  0.00    +0.000 A 
ATOM      3  C   UNL     1      -0.457  13.719  22.375  0.00  0.00    +0.000 A 
ATOM      4  C   UNL     1      -1.220  14.478  23.276  0.00  0.00    +0.000 A 
ATOM      5  C   UNL     1      -2.589  14.596  23.108  0.00  0.00    +0.000 A 
ATOM      6  C   UNL     1      -3.184  13.971  22.022  0.00  0.00    +0.000 A 
ATOM      7  C   UNL     1      -2.408  13.206  21.128  0.00  0.00    +0.000 A 
ATOM      8  C   UNL     1      -3.088  12.569  20.004  0.00  0.00    +0.000 A 
ATOM      9  O   UNL     1      -4.276  12.796  19.797  0.00  0.00    +0.000 OA
ATOM     10  C   UNL     1      -2.336  11.646  19.133  0.00  0.00    +0.000 A 
ATOM     11  C   UNL     1      -3.103  11.023  18.126  0.00  0.00    +0.000 A 
ATOM     12  C   UNL     1      -2.522  10.129  17.256  0.00  0.00    +0.000 A 
ATOM     13  C   UNL     1      -1.177   9.848  17.408  0.00  0.00    +0.000 A 
ATOM     14  C   UNL     1      -0.391  10.431  18.445  0.00  0.00    +0.000 A 
ATOM     15  C   UNL     1      -0.947  11.401  19.341  0.00  0.00    +0.000 A 
ENDROOT
BRANCH  14  16
ATOM     16  C   UNL     1       1.002   9.894  18.403  0.00  0.00    +0.000 C 
ATOM     17  O   UNL     1       1.454   9.030  19.128  0.00  0.00    +0.000 OA
BRANCH  16  18
ATOM     18  O   UNL     1       1.781  10.531  17.492  0.00  0.00    +0.000 OA
ATOM     19  H   UNL     1       2.641  10.117  17.281  0.00  0.00    +0.000 HD
ENDBRANCH  16  18
ENDBRANCH  14  16
BRANCH   1  20
ATOM     20  C   UNL     1       1.072  11.787  20.829  0.00  0.00    +0.000 C 
BRANCH  20  21
ATOM     21  C   UNL     1       2.126  12.734  20.210  0.00  0.00    +0.000 C 
BRANCH  21  22
ATOM     22  O   UNL     1       2.822  13.401  21.272  0.00  0.00    +0.000 OA
ATOM     23  H   UNL     1       2.233  13.424  22.044  0.00  0.00    +0.000 HD
ENDBRANCH  21  22
BRANCH  21  24
ATOM     24  C   UNL     1       1.516  13.748  19.198  0.00  0.00    +0.000 C 
BRANCH  24  25
ATOM     25  N   UNL     1       2.049  15.160  19.212  0.00  0.00    +0.000 NA
BRANCH  25  27
ATOM     26  C   UNL     1      -0.415  15.493  18.769  0.00  0.00    +0.000 C 
ATOM     27  C   UNL     1       0.915  16.142  19.226  0.00  0.00    +0.000 C 
ATOM     28  C   UNL     1       0.580  16.792  20.578  0.00  0.00    +0.000 C 
ENDBRANCH  25  27
BRANCH  25  29
ATOM     29  C   UNL     1       3.105  15.361  18.164  0.00  0.00    +0.000 C 
ATOM     30  C   UNL     1       3.031  16.639  17.311  0.00  0.00    +0.000 C 
ATOM     31  C   UNL     1       4.532  15.376  18.769  0.00  0.00    +0.000 C 
ENDBRANCH  25  29
ENDBRANCH  24  25
ENDBRANCH  21  24
ENDBRANCH  20  21
ENDBRANCH   1  20
TORSDOF 9
ENDMDL
MODEL 3
REMARK VINA RESULT:      -5.7      1.962      5.971
REMARK  Name = 
REMARK  13 active torsions:
REMARK  status: ('A' for Active; 'I' for Inactive)
REMARK    1  A    between atoms: C_1  and  C_2
REMARK    2  A    between atoms: C_2  and  C_3
REMARK    3  A    between atoms: C_2  and  N_4
REMARK    4  A    between atoms: N_4  and  C_5
REMARK    5  A    between atoms: N_4  and  C_27
REMARK    6  A    between atoms: C_5  and  C_6
REMARK    7  A    between atoms: C_6  and  O_7
REMARK    8  A    between atoms: C_6  and  C_8
REMARK    9  A    between atoms: C_8  and  N_9
REMARK   10  A    between atoms: C_22  and  C_23
REMARK   11  A    between atoms: C_23  and  O_25
REMARK   12  A    between atoms: C_27  and  C_28
REMARK   13  A    between atoms: C_27  and  C_29
REMARK                            x       y       z     vdW  Elec       q    Type
REMARK                         _______ _______ _______ _____ _____    ______ ____
ROOT
ATOM      1  N   UNL     1      -2.582  12.149  19.892  0.00  0.00    +0.000 N 
ATOM      2  C   UNL     1      -3.772  12.152  19.076  0.00  0.00    +0.000 A 
ATOM      3  C   UNL     1      -4.962  12.857  19.382  0.00  0.00    +0.000 A 
ATOM      4  C   UNL     1      -6.129  12.751  18.608  0.00  0.00    +0.000 A 
ATOM      5  C   UNL     1      -6.146  11.959  17.472  0.00  0.00    +0.000 A 
ATOM      6  C   UNL     1      -4.985  11.295  17.105  0.00  0.00    +0.000 A 
ATOM      7  C   UNL     1      -3.822  11.405  17.894  0.00  0.00    +0.000 A 
ATOM      8  C   UNL     1      -2.629  10.683  17.459  0.00  0.00    +0.000 A 
ATOM      9  O   UNL     1      -2.626  10.097  16.381  0.00  0.00    +0.000 OA
ATOM     10  C   UNL     1      -1.441  10.658  18.333  0.00  0.00    +0.000 A 
ATOM     11  C   UNL     1      -0.373   9.868  17.859  0.00  0.00    +0.000 A 
ATOM     12  C   UNL     1       0.788   9.750  18.588  0.00  0.00    +0.000 A 
ATOM     13  C   UNL     1       0.868  10.410  19.800  0.00  0.00    +0.000 A 
ATOM     14  C   UNL     1      -0.214  11.178  20.322  0.00  0.00    +0.000 A 
ATOM     15  C   UNL     1      -1.421  11.363  19.572  0.00  0.00    +0.000 A 
ENDROOT
BRANCH  14  16
ATOM     16  C   UNL     1       0.136  11.715  21.670  0.00  0.00    +0.000 C 
ATOM     17  O   UNL     1      -0.175  11.222  22.736  0.00  0.00    +0.000 OA
BRANCH  16  18
ATOM     18  O   UNL     1       0.800  12.898  21.606  0.00  0.00    +0.000 OA
ATOM     19  H   UNL     1       0.784  13.366  20.749  0.00  0.00    +0.000 HD
ENDBRANCH  16  18
ENDBRANCH  14  16
BRANCH   1  20
ATOM     20  C   UNL     1      -2.742  12.727  21.255  0.00  0.00    +0.000 C 
BRANCH  20  21
ATOM     21  C   UNL     1      -2.659  14.270  21.230  0.00  0.00    +0.000 C 
BRANCH  21  22
ATOM     22  O   UNL     1      -1.302  14.660  21.485  0.00  0.00    +0.000 OA
ATOM     23  H   UNL     1      -0.958  14.091  22.193  0.00  0.00    +0.000 HD
ENDBRANCH  21  22
BRANCH  21  24
ATOM     24  C   UNL     1      -3.647  14.949  22.223  0.00  0.00    +0.000 C 
BRANCH  24  25
ATOM     25  N   UNL     1      -4.745  14.099  22.812  0.00  0.00    +0.000 NA
BRANCH  25  27
ATOM     26  C   UNL     1      -7.151  13.520  22.306  0.00  0.00    +0.000 C 
ATOM     27  C   UNL     1      -6.088  14.642  22.421  0.00  0.00    +0.000 C 
ATOM     28  C   UNL     1      -6.719  15.673  23.369  0.00  0.00    +0.000 C 
ENDBRANCH  25  27
BRANCH  25  29
ATOM     29  C   UNL     1      -4.520  13.841  24.274  0.00  0.00    +0.000 C 
ATOM     30  C   UNL     1      -4.378  12.378  24.729  0.00  0.00    +0.000 C 
ATOM     31  C   UNL     1      -3.239  14.540  24.798  0.00  0.00    +0.000 C 
ENDBRANCH  25  29
ENDBRANCH  24  25
ENDBRANCH  21  24
ENDBRANCH  20  21
ENDBRANCH   1  20
TORSDOF 9
ENDMDL
MODEL 4
REMARK VINA RESULT:      -5.6      5.756     10.542
REMARK  Name = 
REMARK  13 active torsions:
REMARK  status: ('A' for Active; 'I' for Inactive)
REMARK    1  A    between atoms: C_1  and  C_2
REMARK    2  A    between atoms: C_2  and  C_3
REMARK    3  A    between atoms: C_2  and  N_4
REMARK    4  A    between atoms: N_4  and  C_5
REMARK    5  A    between atoms: N_4  and  C_27
REMARK    6  A    between atoms: C_5  and  C_6
REMARK    7  A    between atoms: C_6  and  O_7
REMARK    8  A    between atoms: C_6  and  C_8
REMARK    9  A    between atoms: C_8  and  N_9
REMARK   10  A    between atoms: C_22  and  C_23
REMARK   11  A    between atoms: C_23  and  O_25
REMARK   12  A    between atoms: C_27  and  C_28
REMARK   13  A    between atoms: C_27  and  C_29
REMARK                            x       y       z     vdW  Elec       q    Type
REMARK                         _______ _______ _______ _____ _____    ______ ____
ROOT
ATOM      1  N   UNL     1       3.485   5.445  18.303  0.00  0.00    +0.000 N 
ATOM      2  C   UNL     1       2.691   4.611  19.171  0.00  0.00    +0.000 A 
ATOM      3  C   UNL     1       1.854   5.088  20.210  0.00  0.00    +0.000 A 
ATOM      4  C   UNL     1       1.176   4.233  21.094  0.00  0.00    +0.000 A 
ATOM      5  C   UNL     1       1.278   2.859  20.955  0.00  0.00    +0.000 A 
ATOM      6  C   UNL     1       2.041   2.349  19.916  0.00  0.00    +0.000 A 
ATOM      7  C   UNL     1       2.723   3.218  19.040  0.00  0.00    +0.000 A 
ATOM      8  C   UNL     1       3.513   2.624  17.964  0.00  0.00    +0.000 A 
ATOM      9  O   UNL     1       3.482   1.412  17.777  0.00  0.00    +0.000 OA
ATOM     10  C   UNL     1       4.352   3.495  17.119  0.00  0.00    +0.000 A 
ATOM     11  C   UNL     1       5.136   2.816  16.163  0.00  0.00    +0.000 A 
ATOM     12  C   UNL     1       5.973   3.512  15.322  0.00  0.00    +0.000 A 
ATOM     13  C   UNL     1       6.036   4.887  15.453  0.00  0.00    +0.000 A 
ATOM     14  C   UNL     1       5.287   5.591  16.441  0.00  0.00    +0.000 A 
ATOM     15  C   UNL     1       4.370   4.908  17.304  0.00  0.00    +0.000 A 
ENDROOT
BRANCH  14  16
ATOM     16  C   UNL     1       5.606   7.049  16.389  0.00  0.00    +0.000 C 
ATOM     17  O   UNL     1       6.440   7.620  17.063  0.00  0.00    +0.000 OA
BRANCH  16  18
ATOM     18  O   UNL     1       4.798   7.731  15.537  0.00  0.00    +0.000 OA
ATOM     19  H   UNL     1       3.836   7.593  15.636  0.00  0.00    +0.000 HD
ENDBRANCH  16  18
ENDBRANCH  14  16
BRANCH   1  20
ATOM     20  C   UNL     1       3.603   6.869  18.719  0.00  0.00    +0.000 C 
BRANCH  20  21
ATOM     21  C   UNL     1       2.320   7.665  18.392  0.00  0.00    +0.000 C 
BRANCH  21  22
ATOM     22  O   UNL     1       2.450   8.224  17.077  0.00  0.00    +0.000 OA
ATOM     23  H   UNL     1       1.575   8.196  16.655  0.00  0.00    +0.000 HD
ENDBRANCH  21  22
BRANCH  21  24
ATOM     24  C   UNL     1       1.994   8.759  19.450  0.00  0.00    +0.000 C 
BRANCH  24  25
ATOM     25  N   UNL     1       0.542   9.015  19.771  0.00  0.00    +0.000 NA
BRANCH  25  27
ATOM     26  C   UNL     1       1.241  11.169  18.653  0.00  0.00    +0.000 C 
ATOM     27  C   UNL     1       0.064  10.250  19.065  0.00  0.00    +0.000 C 
ATOM     28  C   UNL     1      -0.733  10.040  17.768  0.00  0.00    +0.000 C 
ENDBRANCH  25  27
BRANCH  25  29
ATOM     29  C   UNL     1       0.281   8.936  21.248  0.00  0.00    +0.000 C 
ATOM     30  C   UNL     1       1.499   8.864  22.186  0.00  0.00    +0.000 C 
ATOM     31  C   UNL     1      -0.536  10.149  21.761  0.00  0.00    +0.000 C 
ENDBRANCH  25  29
ENDBRANCH  24  25
ENDBRANCH  21  24
ENDBRANCH  20  21
ENDBRANCH   1  20
TORSDOF 9
ENDMDL
MODEL 5
REMARK VINA RESULT:      -5.6      2.324      6.434
REMARK  Name = 
REMARK  13 active torsions:
REMARK  status: ('A' for Active; 'I' for Inactive)
REMARK    1  A    between atoms: C_1  and  C_2
REMARK    2  A    between atoms: C_2  and  C_3
REMARK    3  A    between atoms: C_2  and  N_4
REMARK    4  A    between atoms: N_4  and  C_5
REMARK    5  A    between atoms: N_4  and  C_27
REMARK    6  A    between atoms: C_5  and  C_6
REMARK    7  A    between atoms: C_6  and  O_7
REMARK    8  A    between atoms: C_6  and  C_8
REMARK    9  A    between atoms: C_8  and  N_9
REMARK   10  A    between atoms: C_22  and  C_23
REMARK   11  A    between atoms: C_23  and  O_25
REMARK   12  A    between atoms: C_27  and  C_28
REMARK   13  A    between atoms: C_27  and  C_29
REMARK                            x       y       z     vdW  Elec       q    Type
REMARK                         _______ _______ _______ _____ _____    ______ ____
ROOT
ATOM      1  N   UNL     1      -3.364  12.066  19.561  0.00  0.00    +0.000 N 
ATOM      2  C   UNL     1      -2.147  12.079  20.335  0.00  0.00    +0.000 A 
ATOM      3  C   UNL     1      -2.005  12.674  21.614  0.00  0.00    +0.000 A 
ATOM      4  C   UNL     1      -0.775  12.748  22.286  0.00  0.00    +0.000 A 
ATOM      5  C   UNL     1       0.365  12.199  21.723  0.00  0.00    +0.000 A 
ATOM      6  C   UNL     1       0.260  11.556  20.499  0.00  0.00    +0.000 A 
ATOM      7  C   UNL     1      -0.980  11.495  19.831  0.00  0.00    +0.000 A 
ATOM      8  C   UNL     1      -1.029  10.807  18.543  0.00  0.00    +0.000 A 
ATOM      9  O   UNL     1      -0.040  10.212  18.127  0.00  0.00    +0.000 OA
ATOM     10  C   UNL     1      -2.273  10.848  17.750  0.00  0.00    +0.000 A 
ATOM     11  C   UNL     1      -2.192  10.221  16.489  0.00  0.00    +0.000 A 
ATOM     12  C   UNL     1      -3.280  10.202  15.646  0.00  0.00    +0.000 A 
ATOM     13  C   UNL     1      -4.441  10.826  16.063  0.00  0.00    +0.000 A 
ATOM     14  C   UNL     1      -4.534  11.503  17.314  0.00  0.00    +0.000 A 
ATOM     15  C   UNL     1      -3.439  11.506  18.239  0.00  0.00    +0.000 A 
ENDROOT
BRANCH  14  16
ATOM     16  C   UNL     1      -5.879  12.134  17.463  0.00  0.00    +0.000 C 
ATOM     17  O   UNL     1      -6.869  11.600  17.923  0.00  0.00    +0.000 OA
BRANCH  16  18
ATOM     18  O   UNL     1      -5.927  13.389  16.949  0.00  0.00    +0.000 OA
ATOM     19  H   UNL     1      -5.125  13.711  16.494  0.00  0.00    +0.000 HD
ENDBRANCH  16  18
ENDBRANCH  14  16
BRANCH   1  20
ATOM     20  C   UNL     1      -4.444  12.962  20.057  0.00  0.00    +0.000 C 
BRANCH  20  21
ATOM     21  C   UNL     1      -5.206  12.331  21.244  0.00  0.00    +0.000 C 
BRANCH  21  22
ATOM     22  O   UNL     1      -6.294  11.551  20.729  0.00  0.00    +0.000 OA
ATOM     23  H   UNL     1      -5.980  10.638  20.622  0.00  0.00    +0.000 HD
ENDBRANCH  21  22
BRANCH  21  24
ATOM     24  C   UNL     1      -5.695  13.383  22.283  0.00  0.00    +0.000 C 
BRANCH  24  25
ATOM     25  N   UNL     1      -4.695  14.400  22.776  0.00  0.00    +0.000 NA
BRANCH  25  27
ATOM     26  C   UNL     1      -4.422  12.628  24.555  0.00  0.00    +0.000 C 
ATOM     27  C   UNL     1      -4.356  14.138  24.214  0.00  0.00    +0.000 C 
ATOM     28  C   UNL     1      -2.961  14.577  24.685  0.00  0.00    +0.000 C 
ENDBRANCH  25  27
BRANCH  25  29
ATOM     29  C   UNL     1      -5.112  15.799  22.424  0.00  0.00    +0.000 C 
ATOM     30  C   UNL     1      -5.685  16.678  23.548  0.00  0.00    +0.000 C 
ATOM     31  C   UNL     1      -3.939  16.626  21.839  0.00  0.00    +0.000 C 
ENDBRANCH  25  29
ENDBRANCH  24  25
ENDBRANCH  21  24
ENDBRANCH  20  21
ENDBRANCH   1  20
TORSDOF 9
ENDMDL
MODEL 6
REMARK VINA RESULT:      -5.6      2.091      5.984
REMARK  Name = 
REMARK  13 active torsions:
REMARK  status: ('A' for Active; 'I' for Inactive)
REMARK    1  A    between atoms: C_1  and  C_2
REMARK    2  A    between atoms: C_2  and  C_3
REMARK    3  A    between atoms: C_2  and  N_4
REMARK    4  A    between atoms: N_4  and  C_5
REMARK    5  A    between atoms: N_4  and  C_27
REMARK    6  A    between atoms: C_5  and  C_6
REMARK    7  A    between atoms: C_6  and  O_7
REMARK    8  A    between atoms: C_6  and  C_8
REMARK    9  A    between atoms: C_8  and  N_9
REMARK   10  A    between atoms: C_22  and  C_23
REMARK   11  A    between atoms: C_23  and  O_25
REMARK   12  A    between atoms: C_27  and  C_28
REMARK   13  A    between atoms: C_27  and  C_29
REMARK                            x       y       z     vdW  Elec       q    Type
REMARK                         _______ _______ _______ _____ _____    ______ ____
ROOT
ATOM      1  N   UNL     1      -2.255  11.874  19.950  0.00  0.00    +0.000 N 
ATOM      2  C   UNL     1      -3.492  12.032  19.225  0.00  0.00    +0.000 A 
ATOM      3  C   UNL     1      -4.624  12.740  19.699  0.00  0.00    +0.000 A 
ATOM      4  C   UNL     1      -5.841  12.783  19.000  0.00  0.00    +0.000 A 
ATOM      5  C   UNL     1      -5.969  12.145  17.777  0.00  0.00    +0.000 A 
ATOM      6  C   UNL     1      -4.868  11.488  17.250  0.00  0.00    +0.000 A 
ATOM      7  C   UNL     1      -3.654  11.447  17.965  0.00  0.00    +0.000 A 
ATOM      8  C   UNL     1      -2.528  10.739  17.361  0.00  0.00    +0.000 A 
ATOM      9  O   UNL     1      -2.622  10.297  16.219  0.00  0.00    +0.000 OA
ATOM     10  C   UNL     1      -1.290  10.552  18.141  0.00  0.00    +0.000 A 
ATOM     11  C   UNL     1      -0.294   9.787  17.498  0.00  0.00    +0.000 A 
ATOM     12  C   UNL     1       0.903   9.528  18.124  0.00  0.00    +0.000 A 
ATOM     13  C   UNL     1       1.093  10.022  19.402  0.00  0.00    +0.000 A 
ATOM     14  C   UNL     1       0.085  10.760  20.089  0.00  0.00    +0.000 A 
ATOM     15  C   UNL     1      -1.156  11.089  19.454  0.00  0.00    +0.000 A 
ENDROOT
BRANCH  14  16
ATOM     16  C   UNL     1       0.545  11.103  21.467  0.00  0.00    +0.000 C 
ATOM     17  O   UNL     1       0.397  10.418  22.459  0.00  0.00    +0.000 OA
BRANCH  16  18
ATOM     18  O   UNL     1       1.106  12.337  21.539  0.00  0.00    +0.000 OA
ATOM     19  H   UNL     1       2.083  12.377  21.557  0.00  0.00    +0.000 HD
ENDBRANCH  16  18
ENDBRANCH  14  16
BRANCH   1  20
ATOM     20  C   UNL     1      -2.299  12.277  21.383  0.00  0.00    +0.000 C 
BRANCH  20  21
ATOM     21  C   UNL     1      -2.192  13.810  21.545  0.00  0.00    +0.000 C 
BRANCH  21  22
ATOM     22  O   UNL     1      -1.000  14.259  20.886  0.00  0.00    +0.000 OA
ATOM     23  H   UNL     1      -0.239  13.885  21.361  0.00  0.00    +0.000 HD
ENDBRANCH  21  22
BRANCH  21  24
ATOM     24  C   UNL     1      -2.233  14.270  23.032  0.00  0.00    +0.000 C 
BRANCH  24  25
ATOM     25  N   UNL     1      -3.569  14.681  23.602  0.00  0.00    +0.000 NA
BRANCH  25  27
ATOM     26  C   UNL     1      -1.893  15.370  25.362  0.00  0.00    +0.000 C 
ATOM     27  C   UNL     1      -3.381  15.355  24.930  0.00  0.00    +0.000 C 
ATOM     28  C   UNL     1      -3.824  16.823  25.028  0.00  0.00    +0.000 C 
ENDBRANCH  25  27
BRANCH  25  29
ATOM     29  C   UNL     1      -4.561  13.554  23.550  0.00  0.00    +0.000 C 
ATOM     30  C   UNL     1      -4.463  12.466  24.633  0.00  0.00    +0.000 C 
ATOM     31  C   UNL     1      -6.023  14.061  23.636  0.00  0.00    +0.000 C 
ENDBRANCH  25  29
ENDBRANCH  24  25
ENDBRANCH  21  24
ENDBRANCH  20  21
ENDBRANCH   1  20
TORSDOF 9
ENDMDL
MODEL 7
REMARK VINA RESULT:      -5.5      3.133      5.545
REMARK  Name = 
REMARK  13 active torsions:
REMARK  status: ('A' for Active; 'I' for Inactive)
REMARK    1  A    between atoms: C_1  and  C_2
REMARK    2  A    between atoms: C_2  and  C_3
REMARK    3  A    between atoms: C_2  and  N_4
REMARK    4  A    between atoms: N_4  and  C_5
REMARK    5  A    between atoms: N_4  and  C_27
REMARK    6  A    between atoms: C_5  and  C_6
REMARK    7  A    between atoms: C_6  and  O_7
REMARK    8  A    between atoms: C_6  and  C_8
REMARK    9  A    between atoms: C_8  and  N_9
REMARK   10  A    between atoms: C_22  and  C_23
REMARK   11  A    between atoms: C_23  and  O_25
REMARK   12  A    between atoms: C_27  and  C_28
REMARK   13  A    between atoms: C_27  and  C_29
REMARK                            x       y       z     vdW  Elec       q    Type
REMARK                         _______ _______ _______ _____ _____    ______ ____
ROOT
ATOM      1  N   UNL     1      -2.411  12.453  20.082  0.00  0.00    +0.000 N 
ATOM      2  C   UNL     1      -2.552  12.998  21.410  0.00  0.00    +0.000 A 
ATOM      3  C   UNL     1      -1.474  13.368  22.253  0.00  0.00    +0.000 A 
ATOM      4  C   UNL     1      -1.658  13.802  23.575  0.00  0.00    +0.000 A 
ATOM      5  C   UNL     1      -2.932  13.917  24.104  0.00  0.00    +0.000 A 
ATOM      6  C   UNL     1      -4.019  13.619  23.296  0.00  0.00    +0.000 A 
ATOM      7  C   UNL     1      -3.821  13.178  21.971  0.00  0.00    +0.000 A 
ATOM      8  C   UNL     1      -5.002  12.877  21.167  0.00  0.00    +0.000 A 
ATOM      9  O   UNL     1      -6.122  13.114  21.609  0.00  0.00    +0.000 OA
ATOM     10  C   UNL     1      -4.832  12.278  19.830  0.00  0.00    +0.000 A 
ATOM     11  C   UNL     1      -6.035  11.953  19.168  0.00  0.00    +0.000 A 
ATOM     12  C   UNL     1      -6.013  11.376  17.919  0.00  0.00    +0.000 A 
ATOM     13  C   UNL     1      -4.785  11.109  17.344  0.00  0.00    +0.000 A 
ATOM     14  C   UNL     1      -3.556  11.388  18.011  0.00  0.00    +0.000 A 
ATOM     15  C   UNL     1      -3.536  12.031  19.291  0.00  0.00    +0.000 A 
ENDROOT
BRANCH  14  16
ATOM     16  C   UNL     1      -2.402  10.935  17.179  0.00  0.00    +0.000 C 
ATOM     17  O   UNL     1      -1.832   9.866  17.272  0.00  0.00    +0.000 OA
BRANCH  16  18
ATOM     18  O   UNL     1      -1.972  11.890  16.315  0.00  0.00    +0.000 OA
ATOM     19  H   UNL     1      -2.337  11.861  15.409  0.00  0.00    +0.000 HD
ENDBRANCH  16  18
ENDBRANCH  14  16
BRANCH   1  20
ATOM     20  C   UNL     1      -1.033  12.032  19.708  0.00  0.00    +0.000 C 
BRANCH  20  21
ATOM     21  C   UNL     1      -0.275  13.159  18.970  0.00  0.00    +0.000 C 
BRANCH  21  22
ATOM     22  O   UNL     1       0.378  12.597  17.823  0.00  0.00    +0.000 OA
ATOM     23  H   UNL     1       0.125  11.660  17.767  0.00  0.00    +0.000 HD
ENDBRANCH  21  22
BRANCH  21  24
ATOM     24  C   UNL     1       0.727  13.920  19.886  0.00  0.00    +0.000 C 
BRANCH  24  25
ATOM     25  N   UNL     1       0.652  15.428  19.907  0.00  0.00    +0.000 NA
BRANCH  25  27
ATOM     26  C   UNL     1      -1.575  16.533  20.353  0.00  0.00    +0.000 C 
ATOM     27  C   UNL     1      -0.639  15.891  19.298  0.00  0.00    +0.000 C 
ATOM     28  C   UNL     1      -0.539  16.944  18.183  0.00  0.00    +0.000 C 
ENDBRANCH  25  27
BRANCH  25  29
ATOM     29  C   UNL     1       1.911  16.050  19.376  0.00  0.00    +0.000 C 
ATOM     30  C   UNL     1       2.636  17.070  20.271  0.00  0.00    +0.000 C 
ATOM     31  C   UNL     1       2.989  14.989  19.039  0.00  0.00    +0.000 C 
ENDBRANCH  25  29
ENDBRANCH  24  25
ENDBRANCH  21  24
ENDBRANCH  20  21
ENDBRANCH   1  20
TORSDOF 9
ENDMDL
MODEL 8
REMARK VINA RESULT:      -5.5      2.808      5.188
REMARK  Name = 
REMARK  13 active torsions:
REMARK  status: ('A' for Active; 'I' for Inactive)
REMARK    1  A    between atoms: C_1  and  C_2
REMARK    2  A    between atoms: C_2  and  C_3
REMARK    3  A    between atoms: C_2  and  N_4
REMARK    4  A    between atoms: N_4  and  C_5
REMARK    5  A    between atoms: N_4  and  C_27
REMARK    6  A    between atoms: C_5  and  C_6
REMARK    7  A    between atoms: C_6  and  O_7
REMARK    8  A    between atoms: C_6  and  C_8
REMARK    9  A    between atoms: C_8  and  N_9
REMARK   10  A    between atoms: C_22  and  C_23
REMARK   11  A    between atoms: C_23  and  O_25
REMARK   12  A    between atoms: C_27  and  C_28
REMARK   13  A    between atoms: C_27  and  C_29
REMARK                            x       y       z     vdW  Elec       q    Type
REMARK                         _______ _______ _______ _____ _____    ______ ____
ROOT
ATOM      1  N   UNL     1      -3.182  12.544  20.284  0.00  0.00    +0.000 N 
ATOM      2  C   UNL     1      -3.169  13.083  21.623  0.00  0.00    +0.000 A 
ATOM      3  C   UNL     1      -2.004  13.484  22.324  0.00  0.00    +0.000 A 
ATOM      4  C   UNL     1      -2.031  13.910  23.661  0.00  0.00    +0.000 A 
ATOM      5  C   UNL     1      -3.231  13.986  24.348  0.00  0.00    +0.000 A 
ATOM      6  C   UNL     1      -4.402  13.658  23.682  0.00  0.00    +0.000 A 
ATOM      7  C   UNL     1      -4.361  13.225  22.341  0.00  0.00    +0.000 A 
ATOM      8  C   UNL     1      -5.626  12.890  21.692  0.00  0.00    +0.000 A 
ATOM      9  O   UNL     1      -6.687  13.093  22.274  0.00  0.00    +0.000 OA
ATOM     10  C   UNL     1      -5.610  12.299  20.341  0.00  0.00    +0.000 A 
ATOM     11  C   UNL     1      -6.877  11.939  19.836  0.00  0.00    +0.000 A 
ATOM     12  C   UNL     1      -6.997  11.364  18.591  0.00  0.00    +0.000 A 
ATOM     13  C   UNL     1      -5.844  11.135  17.863  0.00  0.00    +0.000 A 
ATOM     14  C   UNL     1      -4.549  11.449  18.370  0.00  0.00    +0.000 A 
ATOM     15  C   UNL     1      -4.385  12.090  19.640  0.00  0.00    +0.000 A 
ENDROOT
BRANCH  14  16
ATOM     16  C   UNL     1      -3.498  11.031  17.396  0.00  0.00    +0.000 C 
ATOM     17  O   UNL     1      -2.735  10.095  17.528  0.00  0.00    +0.000 OA
BRANCH  16  18
ATOM     18  O   UNL     1      -3.410  11.868  16.330  0.00  0.00    +0.000 OA
ATOM     19  H   UNL     1      -3.851  11.582  15.507  0.00  0.00    +0.000 HD
ENDBRANCH  16  18
ENDBRANCH  14  16
BRANCH   1  20
ATOM     20  C   UNL     1      -1.852  12.165  19.737  0.00  0.00    +0.000 C 
BRANCH  20  21
ATOM     21  C   UNL     1      -1.227  13.314  18.914  0.00  0.00    +0.000 C 
BRANCH  21  22
ATOM     22  O   UNL     1      -0.998  12.849  17.576  0.00  0.00    +0.000 OA
ATOM     23  H   UNL     1      -1.056  11.879  17.586  0.00  0.00    +0.000 HD
ENDBRANCH  21  22
BRANCH  21  24
ATOM     24  C   UNL     1       0.072  13.886  19.552  0.00  0.00    +0.000 C 
BRANCH  24  25
ATOM     25  N   UNL     1       1.050  14.590  18.643  0.00  0.00    +0.000 NA
BRANCH  25  27
ATOM     26  C   UNL     1       2.926  13.838  20.157  0.00  0.00    +0.000 C 
ATOM     27  C   UNL     1       2.391  13.920  18.706  0.00  0.00    +0.000 C 
ATOM     28  C   UNL     1       2.467  12.476  18.186  0.00  0.00    +0.000 C 
ENDBRANCH  25  27
BRANCH  25  29
ATOM     29  C   UNL     1       1.026  16.077  18.853  0.00  0.00    +0.000 C 
ATOM     30  C   UNL     1       2.109  16.915  18.151  0.00  0.00    +0.000 C 
ATOM     31  C   UNL     1      -0.314  16.708  18.398  0.00  0.00    +0.000 C 
ENDBRANCH  25  29
ENDBRANCH  24  25
ENDBRANCH  21  24
ENDBRANCH  20  21
ENDBRANCH   1  20
TORSDOF 9
ENDMDL
MODEL 9
REMARK VINA RESULT:      -5.5      2.753      5.226
REMARK  Name = 
REMARK  13 active torsions:
REMARK  status: ('A' for Active; 'I' for Inactive)
REMARK    1  A    between atoms: C_1  and  C_2
REMARK    2  A    between atoms: C_2  and  C_3
REMARK    3  A    between atoms: C_2  and  N_4
REMARK    4  A    between atoms: N_4  and  C_5
REMARK    5  A    between atoms: N_4  and  C_27
REMARK    6  A    between atoms: C_5  and  C_6
REMARK    7  A    between atoms: C_6  and  O_7
REMARK    8  A    between atoms: C_6  and  C_8
REMARK    9  A    between atoms: C_8  and  N_9
REMARK   10  A    between atoms: C_22  and  C_23
REMARK   11  A    between atoms: C_23  and  O_25
REMARK   12  A    between atoms: C_27  and  C_28
REMARK   13  A    between atoms: C_27  and  C_29
REMARK                            x       y       z     vdW  Elec       q    Type
REMARK                         _______ _______ _______ _____ _____    ______ ____
ROOT
ATOM      1  N   UNL     1      -3.125  12.422  20.161  0.00  0.00    +0.000 N 
ATOM      2  C   UNL     1      -2.993  12.992  21.479  0.00  0.00    +0.000 A 
ATOM      3  C   UNL     1      -1.761  13.310  22.105  0.00  0.00    +0.000 A 
ATOM      4  C   UNL     1      -1.678  13.771  23.428  0.00  0.00    +0.000 A 
ATOM      5  C   UNL     1      -2.827  13.968  24.175  0.00  0.00    +0.000 A 
ATOM      6  C   UNL     1      -4.057  13.724  23.583  0.00  0.00    +0.000 A 
ATOM      7  C   UNL     1      -4.127  13.254  22.255  0.00  0.00    +0.000 A 
ATOM      8  C   UNL     1      -5.449  13.013  21.684  0.00  0.00    +0.000 A 
ATOM      9  O   UNL     1      -6.456  13.321  22.315  0.00  0.00    +0.000 OA
ATOM     10  C   UNL     1      -5.558  12.387  20.353  0.00  0.00    +0.000 A 
ATOM     11  C   UNL     1      -6.877  12.124  19.927  0.00  0.00    +0.000 A 
ATOM     12  C   UNL     1      -7.114  11.530  18.709  0.00  0.00    +0.000 A 
ATOM     13  C   UNL     1      -6.027  11.183  17.928  0.00  0.00    +0.000 A 
ATOM     14  C   UNL     1      -4.684  11.398  18.356  0.00  0.00    +0.000 A 
ATOM     15  C   UNL     1      -4.396  12.056  19.595  0.00  0.00    +0.000 A 
ENDROOT
BRANCH  14  16
ATOM     16  C   UNL     1      -3.726  10.867  17.340  0.00  0.00    +0.000 C 
ATOM     17  O   UNL     1      -3.357  11.445  16.338  0.00  0.00    +0.000 OA
BRANCH  16  18
ATOM     18  O   UNL     1      -3.339   9.592  17.603  0.00  0.00    +0.000 OA
ATOM     19  H   UNL     1      -3.999   9.009  18.025  0.00  0.00    +0.000 HD
ENDBRANCH  16  18
ENDBRANCH  14  16
BRANCH   1  20
ATOM     20  C   UNL     1      -1.864  11.915  19.555  0.00  0.00    +0.000 C 
BRANCH  20  21
ATOM     21  C   UNL     1      -1.105  13.033  18.804  0.00  0.00    +0.000 C 
BRANCH  21  22
ATOM     22  O   UNL     1      -1.092  12.718  17.405  0.00  0.00    +0.000 OA
ATOM     23  H   UNL     1      -2.006  12.776  17.079  0.00  0.00    +0.000 HD
ENDBRANCH  21  22
BRANCH  21  24
ATOM     24  C   UNL     1       0.333  13.269  19.352  0.00  0.00    +0.000 C 
BRANCH  24  25
ATOM     25  N   UNL     1       0.779  14.695  19.560  0.00  0.00    +0.000 NA
BRANCH  25  27
ATOM     26  C   UNL     1      -0.522  16.500  20.755  0.00  0.00    +0.000 C 
ATOM     27  C   UNL     1      -0.397  15.624  19.484  0.00  0.00    +0.000 C 
ATOM     28  C   UNL     1      -0.410  16.629  18.321  0.00  0.00    +0.000 C 
ENDBRANCH  25  27
BRANCH  25  29
ATOM     29  C   UNL     1       1.964  15.033  18.700  0.00  0.00    +0.000 C 
ATOM     30  C   UNL     1       3.126  15.799  19.355  0.00  0.00    +0.000 C 
ATOM     31  C   UNL     1       2.621  13.769  18.091  0.00  0.00    +0.000 C 
ENDBRANCH  25  29
ENDBRANCH  24  25
ENDBRANCH  21  24
ENDBRANCH  20  21
ENDBRANCH   1  20
TORSDOF 9
ENDMDL
