MODEL 1
REMARK VINA RESULT:      -7.7      0.000      0.000
REMARK  Name = 
REMARK  3 active torsions:
REMARK  status: ('A' for Active; 'I' for Inactive)
REMARK    1  A    between atoms: N_1  and  C_2
REMARK    2  A    between atoms: C_2  and  C_3
REMARK    3  A    between atoms: C_11  and  C_12
REMARK                            x       y       z     vdW  Elec       q    Type
REMARK                         _______ _______ _______ _____ _____    ______ ____
ROOT
ATOM      1  C   UNL     1       3.765   3.232  19.373  0.00  0.00    +0.000 C 
ATOM      2  C   UNL     1       3.088   4.521  19.886  0.00  0.00    +0.000 C 
ATOM      3  N   UNL     1       3.158   5.609  18.924  0.00  0.00    +0.000 N 
ATOM      4  C   UNL     1       3.988   5.568  17.832  0.00  0.00    +0.000 A 
ATOM      5  C   UNL     1       3.826   6.760  17.153  0.00  0.00    +0.000 A 
ATOM      6  C   UNL     1       2.978   7.591  17.929  0.00  0.00    +0.000 A 
ATOM      7  C   UNL     1       2.562   8.931  17.806  0.00  0.00    +0.000 A 
ATOM      8  C   UNL     1       1.767   9.504  18.804  0.00  0.00    +0.000 A 
ATOM      9  C   UNL     1       1.350   8.745  19.903  0.00  0.00    +0.000 A 
ATOM     10  C   UNL     1       1.745   7.401  20.037  0.00  0.00    +0.000 A 
ATOM     11  C   UNL     1       2.567   6.849  19.041  0.00  0.00    +0.000 A 
ATOM     12  C   UNL     1       4.883   4.475  17.543  0.00  0.00    +0.000 C 
ATOM     13  O   UNL     1       5.622   4.423  16.566  0.00  0.00    +0.000 OA
ATOM     14  N   UNL     1       4.900   3.480  18.483  0.00  0.00    +0.000 N 
ATOM     15  H   UNL     1       5.420   2.679  18.157  0.00  0.00    +0.000 HD
ENDROOT
BRANCH   9  16
ATOM     16  C   UNL     1       0.521   9.347  20.991  0.00  0.00    +0.000 C 
ATOM     17  O   UNL     1       0.470   8.761  22.067  0.00  0.00    +0.000 OA
ATOM     18  N   UNL     1      -0.158  10.489  20.632  0.00  0.00    +0.000 N 
ATOM     19  C   UNL     1      -0.971  11.164  21.500  0.00  0.00    +0.000 A 
ATOM     20  N   UNL     1      -1.124  11.022  22.791  0.00  0.00    +0.000 NA
ATOM     21  C   UNL     1      -2.092  11.901  23.236  0.00  0.00    +0.000 A 
ATOM     22  C   UNL     1      -2.665  12.694  22.265  0.00  0.00    +0.000 A 
ATOM     23  S   UNL     1      -1.926  12.368  20.751  0.00  0.00    +0.000 S 
ATOM     24  H   UNL     1      -0.181  10.799  19.674  0.00  0.00    +0.000 HD
ENDBRANCH   9  16
BRANCH   1  25
ATOM     25  C   UNL     1       4.199   2.354  20.569  0.00  0.00    +0.000 C 
BRANCH  25  26
ATOM     26  N   UNL     1       5.274   1.417  20.227  0.00  0.00    +0.000 NA
ATOM     27  H   UNL     1       4.861   0.522  19.957  0.00  0.00    +0.000 HD
ATOM     28  H   UNL     1       5.820   1.206  21.063  0.00  0.00    +0.000 HD
ENDBRANCH  25  26
ENDBRANCH   1  25
TORSDOF 3
ENDMDL
MODEL 2
REMARK VINA RESULT:      -7.6      3.883      8.935
REMARK  Name = 
REMARK  3 active torsions:
REMARK  status: ('A' for Active; 'I' for Inactive)
REMARK    1  A    between atoms: N_1  and  C_2
REMARK    2  A    between atoms: C_2  and  C_3
REMARK    3  A    between atoms: C_11  and  C_12
REMARK                            x       y       z     vdW  Elec       q    Type
REMARK                         _______ _______ _______ _____ _____    ______ ____
ROOT
ATOM      1  C   UNL     1       0.720  10.385  18.899  0.00  0.00    +0.000 C 
ATOM      2  C   UNL     1       1.889   9.581  18.291  0.00  0.00    +0.000 C 
ATOM      3  N   UNL     1       2.075   8.291  18.936  0.00  0.00    +0.000 N 
ATOM      4  C   UNL     1       1.473   7.978  20.129  0.00  0.00    +0.000 A 
ATOM      5  C   UNL     1       1.881   6.700  20.465  0.00  0.00    +0.000 A 
ATOM      6  C   UNL     1       2.856   6.291  19.520  0.00  0.00    +0.000 A 
ATOM      7  C   UNL     1       3.691   5.162  19.420  0.00  0.00    +0.000 A 
ATOM      8  C   UNL     1       4.630   5.083  18.385  0.00  0.00    +0.000 A 
ATOM      9  C   UNL     1       4.716   6.099  17.427  0.00  0.00    +0.000 A 
ATOM     10  C   UNL     1       3.881   7.229  17.502  0.00  0.00    +0.000 A 
ATOM     11  C   UNL     1       2.964   7.307  18.564  0.00  0.00    +0.000 A 
ATOM     12  C   UNL     1       0.632   8.885  20.870  0.00  0.00    +0.000 C 
ATOM     13  O   UNL     1       0.082   8.611  21.931  0.00  0.00    +0.000 OA
ATOM     14  N   UNL     1       0.515  10.135  20.326  0.00  0.00    +0.000 N 
ATOM     15  H   UNL     1      -0.199  10.671  20.796  0.00  0.00    +0.000 HD
ENDROOT
BRANCH   9  16
ATOM     16  C   UNL     1       5.729   6.045  16.329  0.00  0.00    +0.000 C 
ATOM     17  O   UNL     1       6.603   6.903  16.309  0.00  0.00    +0.000 OA
ATOM     18  N   UNL     1       5.522   5.045  15.406  0.00  0.00    +0.000 N 
ATOM     19  C   UNL     1       6.346   4.857  14.331  0.00  0.00    +0.000 A 
ATOM     20  N   UNL     1       7.509   5.389  14.060  0.00  0.00    +0.000 NA
ATOM     21  C   UNL     1       7.948   4.929  12.833  0.00  0.00    +0.000 A 
ATOM     22  C   UNL     1       7.097   4.056  12.188  0.00  0.00    +0.000 A 
ATOM     23  S   UNL     1       5.727   3.756  13.177  0.00  0.00    +0.000 S 
ATOM     24  H   UNL     1       4.679   4.494  15.419  0.00  0.00    +0.000 HD
ENDBRANCH   9  16
BRANCH   1  25
ATOM     25  C   UNL     1       0.928  11.895  18.639  0.00  0.00    +0.000 C 
BRANCH  25  26
ATOM     26  N   UNL     1       2.133  12.175  17.851  0.00  0.00    +0.000 NA
ATOM     27  H   UNL     1       2.818  11.436  18.017  0.00  0.00    +0.000 HD
ATOM     28  H   UNL     1       2.579  13.023  18.202  0.00  0.00    +0.000 HD
ENDBRANCH  25  26
ENDBRANCH   1  25
TORSDOF 3
ENDMDL
MODEL 3
REMARK VINA RESULT:      -7.6      3.323      8.522
REMARK  Name = 
REMARK  3 active torsions:
REMARK  status: ('A' for Active; 'I' for Inactive)
REMARK    1  A    between atoms: N_1  and  C_2
REMARK    2  A    between atoms: C_2  and  C_3
REMARK    3  A    between atoms: C_11  and  C_12
REMARK                            x       y       z     vdW  Elec       q    Type
REMARK                         _______ _______ _______ _____ _____    ______ ____
ROOT
ATOM      1  C   UNL     1       0.855  11.691  19.116  0.00  0.00    +0.000 C 
ATOM      2  C   UNL     1       1.505  10.348  18.721  0.00  0.00    +0.000 C 
ATOM      3  N   UNL     1       1.259   9.300  19.698  0.00  0.00    +0.000 N 
ATOM      4  C   UNL     1       0.768   9.569  20.951  0.00  0.00    +0.000 A 
ATOM      5  C   UNL     1       0.682   8.363  21.621  0.00  0.00    +0.000 A 
ATOM      6  C   UNL     1       1.263   7.365  20.797  0.00  0.00    +0.000 A 
ATOM      7  C   UNL     1       1.558   6.002  20.992  0.00  0.00    +0.000 A 
ATOM      8  C   UNL     1       2.223   5.286  19.991  0.00  0.00    +0.000 A 
ATOM      9  C   UNL     1       2.561   5.904  18.783  0.00  0.00    +0.000 A 
ATOM     10  C   UNL     1       2.262   7.262  18.563  0.00  0.00    +0.000 A 
ATOM     11  C   UNL     1       1.620   7.974  19.590  0.00  0.00    +0.000 A 
ATOM     12  C   UNL     1       0.475  10.896  21.433  0.00  0.00    +0.000 C 
ATOM     13  O   UNL     1       0.026  11.147  22.546  0.00  0.00    +0.000 OA
ATOM     14  N   UNL     1       0.783  11.905  20.562  0.00  0.00    +0.000 N 
ATOM     15  H   UNL     1       0.418  12.789  20.885  0.00  0.00    +0.000 HD
ENDROOT
BRANCH   9  16
ATOM     16  C   UNL     1       3.293   5.163  17.711  0.00  0.00    +0.000 C 
ATOM     17  O   UNL     1       2.801   4.122  17.291  0.00  0.00    +0.000 OA
ATOM     18  N   UNL     1       4.500   5.718  17.351  0.00  0.00    +0.000 N 
ATOM     19  C   UNL     1       5.306   5.165  16.394  0.00  0.00    +0.000 A 
ATOM     20  N   UNL     1       5.062   4.203  15.543  0.00  0.00    +0.000 NA
ATOM     21  C   UNL     1       6.197   3.955  14.796  0.00  0.00    +0.000 A 
ATOM     22  C   UNL     1       7.292   4.735  15.102  0.00  0.00    +0.000 A 
ATOM     23  S   UNL     1       6.868   5.858  16.329  0.00  0.00    +0.000 S 
ATOM     24  H   UNL     1       4.895   6.484  17.872  0.00  0.00    +0.000 HD
ENDBRANCH   9  16
BRANCH   1  25
ATOM     25  C   UNL     1       1.602  12.859  18.433  0.00  0.00    +0.000 C 
BRANCH  25  26
ATOM     26  N   UNL     1       2.671  12.403  17.537  0.00  0.00    +0.000 NA
ATOM     27  H   UNL     1       2.749  13.056  16.755  0.00  0.00    +0.000 HD
ATOM     28  H   UNL     1       2.400  11.519  17.107  0.00  0.00    +0.000 HD
ENDBRANCH  25  26
ENDBRANCH   1  25
TORSDOF 3
ENDMDL
MODEL 4
REMARK VINA RESULT:      -7.4      2.233      3.360
REMARK  Name = 
REMARK  3 active torsions:
REMARK  status: ('A' for Active; 'I' for Inactive)
REMARK    1  A    between atoms: N_1  and  C_2
REMARK    2  A    between atoms: C_2  and  C_3
REMARK    3  A    between atoms: C_11  and  C_12
REMARK                            x       y       z     vdW  Elec       q    Type
REMARK                         _______ _______ _______ _____ _____    ______ ____
ROOT
ATOM      1  C   UNL     1       5.265   4.500  16.658  0.00  0.00    +0.000 C 
ATOM      2  C   UNL     1       4.406   5.741  16.981  0.00  0.00    +0.000 C 
ATOM      3  N   UNL     1       3.690   5.611  18.240  0.00  0.00    +0.000 N 
ATOM      4  C   UNL     1       3.569   4.410  18.892  0.00  0.00    +0.000 A 
ATOM      5  C   UNL     1       2.816   4.639  20.028  0.00  0.00    +0.000 A 
ATOM      6  C   UNL     1       2.361   5.982  19.986  0.00  0.00    +0.000 A 
ATOM      7  C   UNL     1       1.480   6.729  20.791  0.00  0.00    +0.000 A 
ATOM      8  C   UNL     1       1.161   8.044  20.434  0.00  0.00    +0.000 A 
ATOM      9  C   UNL     1       1.742   8.633  19.306  0.00  0.00    +0.000 A 
ATOM     10  C   UNL     1       2.635   7.907  18.496  0.00  0.00    +0.000 A 
ATOM     11  C   UNL     1       2.922   6.579  18.852  0.00  0.00    +0.000 A 
ATOM     12  C   UNL     1       4.104   3.167  18.395  0.00  0.00    +0.000 C 
ATOM     13  O   UNL     1       4.011   2.090  18.974  0.00  0.00    +0.000 OA
ATOM     14  N   UNL     1       4.704   3.248  17.167  0.00  0.00    +0.000 N 
ATOM     15  H   UNL     1       5.190   2.393  16.942  0.00  0.00    +0.000 HD
ENDROOT
BRANCH   9  16
ATOM     16  C   UNL     1       1.396  10.028  18.895  0.00  0.00    +0.000 C 
ATOM     17  O   UNL     1       1.974  10.502  17.923  0.00  0.00    +0.000 OA
ATOM     18  N   UNL     1       0.487  10.659  19.713  0.00  0.00    +0.000 N 
ATOM     19  C   UNL     1       0.066  11.941  19.490  0.00  0.00    +0.000 A 
ATOM     20  N   UNL     1       0.246  12.717  18.454  0.00  0.00    +0.000 NA
ATOM     21  C   UNL     1      -0.329  13.949  18.699  0.00  0.00    +0.000 A 
ATOM     22  C   UNL     1      -0.934  14.087  19.931  0.00  0.00    +0.000 A 
ATOM     23  S   UNL     1      -0.827  12.605  20.789  0.00  0.00    +0.000 S 
ATOM     24  H   UNL     1       0.195  10.243  20.582  0.00  0.00    +0.000 HD
ENDBRANCH   9  16
BRANCH   1  25
ATOM     25  C   UNL     1       5.499   4.405  15.132  0.00  0.00    +0.000 C 
BRANCH  25  26
ATOM     26  N   UNL     1       6.638   5.212  14.680  0.00  0.00    +0.000 NA
ATOM     27  H   UNL     1       7.347   5.225  15.415  0.00  0.00    +0.000 HD
ATOM     28  H   UNL     1       6.348   6.186  14.585  0.00  0.00    +0.000 HD
ENDBRANCH  25  26
ENDBRANCH   1  25
TORSDOF 3
ENDMDL
MODEL 5
REMARK VINA RESULT:      -7.3      1.298      1.343
REMARK  Name = 
REMARK  3 active torsions:
REMARK  status: ('A' for Active; 'I' for Inactive)
REMARK    1  A    between atoms: N_1  and  C_2
REMARK    2  A    between atoms: C_2  and  C_3
REMARK    3  A    between atoms: C_11  and  C_12
REMARK                            x       y       z     vdW  Elec       q    Type
REMARK                         _______ _______ _______ _____ _____    ______ ____
ROOT
ATOM      1  C   UNL     1       2.647   3.744  19.955  0.00  0.00    +0.000 C 
ATOM      2  C   UNL     1       2.202   5.150  20.409  0.00  0.00    +0.000 C 
ATOM      3  N   UNL     1       2.346   6.147  19.359  0.00  0.00    +0.000 N 
ATOM      4  C   UNL     1       3.071   5.908  18.219  0.00  0.00    +0.000 A 
ATOM      5  C   UNL     1       3.023   7.061  17.458  0.00  0.00    +0.000 A 
ATOM      6  C   UNL     1       2.367   8.059  18.222  0.00  0.00    +0.000 A 
ATOM      7  C   UNL     1       2.135   9.433  18.020  0.00  0.00    +0.000 A 
ATOM      8  C   UNL     1       1.512  10.186  19.022  0.00  0.00    +0.000 A 
ATOM      9  C   UNL     1       1.083   9.575  20.205  0.00  0.00    +0.000 A 
ATOM     10  C   UNL     1       1.295   8.200  20.420  0.00  0.00    +0.000 A 
ATOM     11  C   UNL     1       1.947   7.465  19.417  0.00  0.00    +0.000 A 
ATOM     12  C   UNL     1       3.777   4.678  17.957  0.00  0.00    +0.000 C 
ATOM     13  O   UNL     1       4.419   4.450  16.937  0.00  0.00    +0.000 OA
ATOM     14  N   UNL     1       3.729   3.760  18.971  0.00  0.00    +0.000 N 
ATOM     15  H   UNL     1       4.104   2.870  18.675  0.00  0.00    +0.000 HD
ENDROOT
BRANCH   9  16
ATOM     16  C   UNL     1       0.438  10.366  21.297  0.00  0.00    +0.000 C 
ATOM     17  O   UNL     1       0.776  10.135  22.452  0.00  0.00    +0.000 OA
ATOM     18  N   UNL     1      -0.532  11.245  20.872  0.00  0.00    +0.000 N 
ATOM     19  C   UNL     1      -1.231  12.040  21.738  0.00  0.00    +0.000 A 
ATOM     20  N   UNL     1      -1.031  12.280  23.008  0.00  0.00    +0.000 NA
ATOM     21  C   UNL     1      -2.023  13.119  23.477  0.00  0.00    +0.000 A 
ATOM     22  C   UNL     1      -2.970  13.496  22.548  0.00  0.00    +0.000 A 
ATOM     23  S   UNL     1      -2.572  12.823  21.021  0.00  0.00    +0.000 S 
ATOM     24  H   UNL     1      -0.854  11.242  19.918  0.00  0.00    +0.000 HD
ENDBRANCH   9  16
BRANCH   1  25
ATOM     25  C   UNL     1       3.048   2.897  21.185  0.00  0.00    +0.000 C 
BRANCH  25  26
ATOM     26  N   UNL     1       1.913   2.600  22.066  0.00  0.00    +0.000 NA
ATOM     27  H   UNL     1       1.088   2.415  21.493  0.00  0.00    +0.000 HD
ATOM     28  H   UNL     1       1.672   3.433  22.603  0.00  0.00    +0.000 HD
ENDBRANCH  25  26
ENDBRANCH   1  25
TORSDOF 3
ENDMDL
MODEL 6
REMARK VINA RESULT:      -7.1      5.557      6.858
REMARK  Name = 
REMARK  3 active torsions:
REMARK  status: ('A' for Active; 'I' for Inactive)
REMARK    1  A    between atoms: N_1  and  C_2
REMARK    2  A    between atoms: C_2  and  C_3
REMARK    3  A    between atoms: C_11  and  C_12
REMARK                            x       y       z     vdW  Elec       q    Type
REMARK                         _______ _______ _______ _____ _____    ______ ____
ROOT
ATOM      1  C   UNL     1       2.147   4.087  19.980  0.00  0.00    +0.000 C 
ATOM      2  C   UNL     1       3.453   4.881  19.763  0.00  0.00    +0.000 C 
ATOM      3  N   UNL     1       3.975   4.738  18.413  0.00  0.00    +0.000 N 
ATOM      4  C   UNL     1       3.517   3.775  17.550  0.00  0.00    +0.000 A 
ATOM      5  C   UNL     1       4.239   3.903  16.378  0.00  0.00    +0.000 A 
ATOM      6  C   UNL     1       5.245   4.879  16.592  0.00  0.00    +0.000 A 
ATOM      7  C   UNL     1       6.327   5.337  15.816  0.00  0.00    +0.000 A 
ATOM      8  C   UNL     1       7.215   6.278  16.349  0.00  0.00    +0.000 A 
ATOM      9  C   UNL     1       7.011   6.796  17.633  0.00  0.00    +0.000 A 
ATOM     10  C   UNL     1       5.928   6.361  18.419  0.00  0.00    +0.000 A 
ATOM     11  C   UNL     1       5.063   5.394  17.880  0.00  0.00    +0.000 A 
ATOM     12  C   UNL     1       2.509   2.802  17.892  0.00  0.00    +0.000 C 
ATOM     13  O   UNL     1       2.085   1.943  17.125  0.00  0.00    +0.000 OA
ATOM     14  N   UNL     1       2.068   2.860  19.186  0.00  0.00    +0.000 N 
ATOM     15  H   UNL     1       1.263   2.267  19.323  0.00  0.00    +0.000 HD
ENDROOT
BRANCH   9  16
ATOM     16  C   UNL     1       7.962   7.783  18.230  0.00  0.00    +0.000 C 
ATOM     17  O   UNL     1       8.702   7.399  19.129  0.00  0.00    +0.000 OA
ATOM     18  N   UNL     1       7.852   9.061  17.730  0.00  0.00    +0.000 N 
ATOM     19  C   UNL     1       8.636  10.091  18.171  0.00  0.00    +0.000 A 
ATOM     20  N   UNL     1       9.695  10.073  18.937  0.00  0.00    +0.000 NA
ATOM     21  C   UNL     1      10.130  11.368  19.147  0.00  0.00    +0.000 A 
ATOM     22  C   UNL     1       9.381  12.351  18.536  0.00  0.00    +0.000 A 
ATOM     23  S   UNL     1       8.122  11.627  17.622  0.00  0.00    +0.000 S 
ATOM     24  H   UNL     1       7.099   9.312  17.111  0.00  0.00    +0.000 HD
ENDBRANCH   9  16
BRANCH   1  25
ATOM     25  C   UNL     1       1.969   3.770  21.483  0.00  0.00    +0.000 C 
BRANCH  25  26
ATOM     26  N   UNL     1       2.748   2.604  21.915  0.00  0.00    +0.000 NA
ATOM     27  H   UNL     1       3.733   2.765  21.699  0.00  0.00    +0.000 HD
ATOM     28  H   UNL     1       2.490   1.794  21.350  0.00  0.00    +0.000 HD
ENDBRANCH  25  26
ENDBRANCH   1  25
TORSDOF 3
ENDMDL
MODEL 7
REMARK VINA RESULT:      -7.1      3.359      8.881
REMARK  Name = 
REMARK  3 active torsions:
REMARK  status: ('A' for Active; 'I' for Inactive)
REMARK    1  A    between atoms: N_1  and  C_2
REMARK    2  A    between atoms: C_2  and  C_3
REMARK    3  A    between atoms: C_11  and  C_12
REMARK                            x       y       z     vdW  Elec       q    Type
REMARK                         _______ _______ _______ _____ _____    ______ ____
ROOT
ATOM      1  C   UNL     1      -0.551  12.634  20.245  0.00  0.00    +0.000 C 
ATOM      2  C   UNL     1       0.392  11.588  19.614  0.00  0.00    +0.000 C 
ATOM      3  N   UNL     1       0.406  10.334  20.350  0.00  0.00    +0.000 N 
ATOM      4  C   UNL     1      -0.123  10.219  21.610  0.00  0.00    +0.000 A 
ATOM      5  C   UNL     1       0.082   8.915  22.020  0.00  0.00    +0.000 A 
ATOM      6  C   UNL     1       0.872   8.269  21.035  0.00  0.00    +0.000 A 
ATOM      7  C   UNL     1       1.479   7.001  20.964  0.00  0.00    +0.000 A 
ATOM      8  C   UNL     1       2.284   6.678  19.866  0.00  0.00    +0.000 A 
ATOM      9  C   UNL     1       2.457   7.592  18.820  0.00  0.00    +0.000 A 
ATOM     10  C   UNL     1       1.847   8.859  18.867  0.00  0.00    +0.000 A 
ATOM     11  C   UNL     1       1.066   9.178  19.990  0.00  0.00    +0.000 A 
ATOM     12  C   UNL     1      -0.713  11.316  22.338  0.00  0.00    +0.000 C 
ATOM     13  O   UNL     1      -1.198  11.222  23.460  0.00  0.00    +0.000 OA
ATOM     14  N   UNL     1      -0.658  12.525  21.701  0.00  0.00    +0.000 N 
ATOM     15  H   UNL     1      -1.216  13.216  22.180  0.00  0.00    +0.000 HD
ENDROOT
BRANCH   9  16
ATOM     16  C   UNL     1       3.333   7.275  17.651  0.00  0.00    +0.000 C 
ATOM     17  O   UNL     1       3.430   8.113  16.761  0.00  0.00    +0.000 OA
ATOM     18  N   UNL     1       3.897   6.021  17.679  0.00  0.00    +0.000 N 
ATOM     19  C   UNL     1       4.717   5.562  16.685  0.00  0.00    +0.000 A 
ATOM     20  N   UNL     1       5.263   6.202  15.684  0.00  0.00    +0.000 NA
ATOM     21  C   UNL     1       5.982   5.312  14.910  0.00  0.00    +0.000 A 
ATOM     22  C   UNL     1       5.960   4.001  15.338  0.00  0.00    +0.000 A 
ATOM     23  S   UNL     1       5.055   3.889  16.791  0.00  0.00    +0.000 S 
ATOM     24  H   UNL     1       3.624   5.344  18.373  0.00  0.00    +0.000 HD
ENDBRANCH   9  16
BRANCH   1  25
ATOM     25  C   UNL     1      -0.104  14.058  19.841  0.00  0.00    +0.000 C 
BRANCH  25  26
ATOM     26  N   UNL     1      -0.545  14.431  18.492  0.00  0.00    +0.000 NA
ATOM     27  H   UNL     1       0.087  15.144  18.123  0.00  0.00    +0.000 HD
ATOM     28  H   UNL     1      -1.452  14.896  18.549  0.00  0.00    +0.000 HD
ENDBRANCH  25  26
ENDBRANCH   1  25
TORSDOF 3
ENDMDL
MODEL 8
REMARK VINA RESULT:      -7.0      1.412      1.457
REMARK  Name = 
REMARK  3 active torsions:
REMARK  status: ('A' for Active; 'I' for Inactive)
REMARK    1  A    between atoms: N_1  and  C_2
REMARK    2  A    between atoms: C_2  and  C_3
REMARK    3  A    between atoms: C_11  and  C_12
REMARK                            x       y       z     vdW  Elec       q    Type
REMARK                         _______ _______ _______ _____ _____    ______ ____
ROOT
ATOM      1  C   UNL     1       2.771   3.286  20.150  0.00  0.00    +0.000 C 
ATOM      2  C   UNL     1       2.288   4.738  20.345  0.00  0.00    +0.000 C 
ATOM      3  N   UNL     1       2.700   5.614  19.260  0.00  0.00    +0.000 N 
ATOM      4  C   UNL     1       3.652   5.245  18.343  0.00  0.00    +0.000 A 
ATOM      5  C   UNL     1       3.817   6.310  17.478  0.00  0.00    +0.000 A 
ATOM      6  C   UNL     1       3.044   7.393  17.969  0.00  0.00    +0.000 A 
ATOM      7  C   UNL     1       2.913   8.740  17.580  0.00  0.00    +0.000 A 
ATOM      8  C   UNL     1       2.111   9.604  18.334  0.00  0.00    +0.000 A 
ATOM      9  C   UNL     1       1.406   9.129  19.445  0.00  0.00    +0.000 A 
ATOM     10  C   UNL     1       1.514   7.783  19.841  0.00  0.00    +0.000 A 
ATOM     11  C   UNL     1       2.347   6.936  19.092  0.00  0.00    +0.000 A 
ATOM     12  C   UNL     1       4.352   3.985  18.374  0.00  0.00    +0.000 C 
ATOM     13  O   UNL     1       5.197   3.640  17.554  0.00  0.00    +0.000 OA
ATOM     14  N   UNL     1       4.046   3.182  19.439  0.00  0.00    +0.000 N 
ATOM     15  H   UNL     1       4.444   2.261  19.327  0.00  0.00    +0.000 HD
ENDROOT
BRANCH   9  16
ATOM     16  C   UNL     1       0.563  10.041  20.277  0.00  0.00    +0.000 C 
ATOM     17  O   UNL     1       0.812  10.123  21.474  0.00  0.00    +0.000 OA
ATOM     18  N   UNL     1      -0.462  10.656  19.595  0.00  0.00    +0.000 N 
ATOM     19  C   UNL     1      -1.337  11.514  20.203  0.00  0.00    +0.000 A 
ATOM     20  N   UNL     1      -1.294  12.055  21.392  0.00  0.00    +0.000 NA
ATOM     21  C   UNL     1      -2.424  12.826  21.585  0.00  0.00    +0.000 A 
ATOM     22  C   UNL     1      -3.314  12.848  20.532  0.00  0.00    +0.000 A 
ATOM     23  S   UNL     1      -2.687  11.917  19.234  0.00  0.00    +0.000 S 
ATOM     24  H   UNL     1      -0.685  10.395  18.649  0.00  0.00    +0.000 HD
ENDBRANCH   9  16
BRANCH   1  25
ATOM     25  C   UNL     1       2.856   2.571  21.518  0.00  0.00    +0.000 C 
BRANCH  25  26
ATOM     26  N   UNL     1       1.565   2.517  22.213  0.00  0.00    +0.000 NA
ATOM     27  H   UNL     1       0.819   2.703  21.541  0.00  0.00    +0.000 HD
ATOM     28  H   UNL     1       1.507   3.285  22.882  0.00  0.00    +0.000 HD
ENDBRANCH  25  26
ENDBRANCH   1  25
TORSDOF 3
ENDMDL
MODEL 9
REMARK VINA RESULT:      -6.9      3.021      8.440
REMARK  Name = 
REMARK  3 active torsions:
REMARK  status: ('A' for Active; 'I' for Inactive)
REMARK    1  A    between atoms: N_1  and  C_2
REMARK    2  A    between atoms: C_2  and  C_3
REMARK    3  A    between atoms: C_11  and  C_12
REMARK                            x       y       z     vdW  Elec       q    Type
REMARK                         _______ _______ _______ _____ _____    ______ ____
ROOT
ATOM      1  C   UNL     1      -1.067  12.036  22.485  0.00  0.00    +0.000 C 
ATOM      2  C   UNL     1      -0.486  10.709  21.953  0.00  0.00    +0.000 C 
ATOM      3  N   UNL     1       0.202  10.869  20.682  0.00  0.00    +0.000 N 
ATOM      4  C   UNL     1       0.076  12.004  19.922  0.00  0.00    +0.000 A 
ATOM      5  C   UNL     1       0.832  11.814  18.780  0.00  0.00    +0.000 A 
ATOM      6  C   UNL     1       1.313  10.480  18.794  0.00  0.00    +0.000 A 
ATOM      7  C   UNL     1       2.022   9.699  17.862  0.00  0.00    +0.000 A 
ATOM      8  C   UNL     1       2.287   8.354  18.143  0.00  0.00    +0.000 A 
ATOM      9  C   UNL     1       1.887   7.791  19.360  0.00  0.00    +0.000 A 
ATOM     10  C   UNL     1       1.190   8.560  20.311  0.00  0.00    +0.000 A 
ATOM     11  C   UNL     1       0.906   9.900  20.001  0.00  0.00    +0.000 A 
ATOM     12  C   UNL     1      -0.756  13.126  20.280  0.00  0.00    +0.000 C 
ATOM     13  O   UNL     1      -0.868  14.149  19.614  0.00  0.00    +0.000 OA
ATOM     14  N   UNL     1      -1.483  12.959  21.428  0.00  0.00    +0.000 N 
ATOM     15  H   UNL     1      -1.922  13.823  21.710  0.00  0.00    +0.000 HD
ENDROOT
BRANCH   9  16
ATOM     16  C   UNL     1       2.139   6.351  19.669  0.00  0.00    +0.000 C 
ATOM     17  O   UNL     1       2.062   5.990  20.838  0.00  0.00    +0.000 OA
ATOM     18  N   UNL     1       2.498   5.585  18.583  0.00  0.00    +0.000 N 
ATOM     19  C   UNL     1       2.775   4.250  18.686  0.00  0.00    +0.000 A 
ATOM     20  N   UNL     1       2.590   3.428  19.686  0.00  0.00    +0.000 NA
ATOM     21  C   UNL     1       3.064   2.176  19.342  0.00  0.00    +0.000 A 
ATOM     22  C   UNL     1       3.612   2.075  18.081  0.00  0.00    +0.000 A 
ATOM     23  S   UNL     1       3.476   3.584  17.275  0.00  0.00    +0.000 S 
ATOM     24  H   UNL     1       2.696   6.010  17.692  0.00  0.00    +0.000 HD
ENDBRANCH   9  16
BRANCH   1  25
ATOM     25  C   UNL     1      -2.244  11.748  23.445  0.00  0.00    +0.000 C 
BRANCH  25  26
ATOM     26  N   UNL     1      -3.530  12.231  22.929  0.00  0.00    +0.000 NA
ATOM     27  H   UNL     1      -3.394  13.154  22.513  0.00  0.00    +0.000 HD
ATOM     28  H   UNL     1      -4.169  12.391  23.708  0.00  0.00    +0.000 HD
ENDBRANCH  25  26
ENDBRANCH   1  25
TORSDOF 3
ENDMDL
