MODEL 1
REMARK VINA RESULT:      -7.3      0.000      0.000
REMARK  Name = 
REMARK  4 active torsions:
REMARK  status: ('A' for Active; 'I' for Inactive)
REMARK    1  A    between atoms: C_1  and  O_2
REMARK    2  A    between atoms: O_2  and  C_3
REMARK    3  A    between atoms: C_11  and  C_12
REMARK    4  A    between atoms: C_19  and  C_20
REMARK                            x       y       z     vdW  Elec       q    Type
REMARK                         _______ _______ _______ _____ _____    ______ ____
ROOT
ATOM      1  C   UNL     1       2.821   2.689  20.433  0.00  0.00    +0.000 C 
ATOM      2  C   UNL     1       1.667   2.746  19.752  0.00  0.00    +0.000 C 
ATOM      3  C   UNL     1       1.548   3.725  18.653  0.00  0.00    +0.000 C 
ATOM      4  O   UNL     1       0.683   3.580  17.795  0.00  0.00    +0.000 OA
ATOM      5  C   UNL     1       2.573   4.908  18.781  0.00  0.00    +0.000 C 
ATOM      6  C   UNL     1       4.061   4.377  18.908  0.00  0.00    +0.000 C 
ATOM      7  C   UNL     1       4.131   3.141  19.814  0.00  0.00    +0.000 C 
ATOM      8  O   UNL     1       5.183   2.601  20.166  0.00  0.00    +0.000 OA
ATOM      9  C   UNL     1       4.016   4.341  17.350  0.00  0.00    +0.000 C 
ATOM     10  C   UNL     1       3.053   5.605  17.499  0.00  0.00    +0.000 C 
ATOM     11  C   UNL     1       3.620   7.000  17.802  0.00  0.00    +0.000 C 
ENDROOT
BRANCH   9  12
ATOM     12  C   UNL     1       5.182   4.549  16.313  0.00  0.00    +0.000 A 
ATOM     13  C   UNL     1       6.448   5.075  16.595  0.00  0.00    +0.000 A 
ATOM     14  C   UNL     1       7.396   5.268  15.576  0.00  0.00    +0.000 A 
ATOM     15  C   UNL     1       7.094   4.921  14.257  0.00  0.00    +0.000 A 
ATOM     16 CL   UNL     1       8.241   5.205  13.004  0.00  0.00    +0.000 Cl
ATOM     17  C   UNL     1       5.865   4.375  13.946  0.00  0.00    +0.000 A 
ATOM     18  C   UNL     1       4.940   4.171  14.964  0.00  0.00    +0.000 A 
ENDBRANCH   9  12
BRANCH   1  20
ATOM     19  C   UNL     1       1.511   2.555  22.354  0.00  0.00    +0.000 C 
ATOM     20  O   UNL     1       2.793   2.286  21.760  0.00  0.00    +0.000 OA
ENDBRANCH   1  20
TORSDOF 2
ENDMDL
MODEL 2
REMARK VINA RESULT:      -7.1      1.598      1.974
REMARK  Name = 
REMARK  4 active torsions:
REMARK  status: ('A' for Active; 'I' for Inactive)
REMARK    1  A    between atoms: C_1  and  O_2
REMARK    2  A    between atoms: O_2  and  C_3
REMARK    3  A    between atoms: C_11  and  C_12
REMARK    4  A    between atoms: C_19  and  C_20
REMARK                            x       y       z     vdW  Elec       q    Type
REMARK                         _______ _______ _______ _____ _____    ______ ____
ROOT
ATOM      1  C   UNL     1       2.063   3.397  19.548  0.00  0.00    +0.000 C 
ATOM      2  C   UNL     1       1.824   4.697  19.768  0.00  0.00    +0.000 C 
ATOM      3  C   UNL     1       2.891   5.670  19.461  0.00  0.00    +0.000 C 
ATOM      4  O   UNL     1       2.613   6.855  19.307  0.00  0.00    +0.000 OA
ATOM      5  C   UNL     1       4.318   5.014  19.428  0.00  0.00    +0.000 C 
ATOM      6  C   UNL     1       4.369   3.784  18.431  0.00  0.00    +0.000 C 
ATOM      7  C   UNL     1       3.091   2.940  18.528  0.00  0.00    +0.000 C 
ATOM      8  O   UNL     1       2.925   1.868  17.941  0.00  0.00    +0.000 OA
ATOM      9  C   UNL     1       4.642   4.872  17.348  0.00  0.00    +0.000 C 
ATOM     10  C   UNL     1       5.392   5.641  18.527  0.00  0.00    +0.000 C 
ATOM     11  C   UNL     1       6.803   5.226  18.971  0.00  0.00    +0.000 C 
ENDROOT
BRANCH   9  12
ATOM     12  C   UNL     1       5.482   4.770  16.020  0.00  0.00    +0.000 A 
ATOM     13  C   UNL     1       6.725   5.368  15.787  0.00  0.00    +0.000 A 
ATOM     14  C   UNL     1       7.361   5.254  14.539  0.00  0.00    +0.000 A 
ATOM     15  C   UNL     1       6.766   4.524  13.509  0.00  0.00    +0.000 A 
ATOM     16 CL   UNL     1       7.526   4.428  11.966  0.00  0.00    +0.000 Cl
ATOM     17  C   UNL     1       5.554   3.897  13.711  0.00  0.00    +0.000 A 
ATOM     18  C   UNL     1       4.940   4.001  14.955  0.00  0.00    +0.000 A 
ENDBRANCH   9  12
BRANCH   1  20
ATOM     19  C   UNL     1       1.623   2.720  21.732  0.00  0.00    +0.000 C 
ATOM     20  O   UNL     1       1.414   2.456  20.334  0.00  0.00    +0.000 OA
ENDBRANCH   1  20
TORSDOF 2
ENDMDL
MODEL 3
REMARK VINA RESULT:      -7.0      3.887      6.233
REMARK  Name = 
REMARK  4 active torsions:
REMARK  status: ('A' for Active; 'I' for Inactive)
REMARK    1  A    between atoms: C_1  and  O_2
REMARK    2  A    between atoms: O_2  and  C_3
REMARK    3  A    between atoms: C_11  and  C_12
REMARK    4  A    between atoms: C_19  and  C_20
REMARK                            x       y       z     vdW  Elec       q    Type
REMARK                         _______ _______ _______ _____ _____    ______ ____
ROOT
ATOM      1  C   UNL     1       5.442   4.637  16.845  0.00  0.00    +0.000 C 
ATOM      2  C   UNL     1       4.445   3.823  16.467  0.00  0.00    +0.000 C 
ATOM      3  C   UNL     1       3.195   3.832  17.254  0.00  0.00    +0.000 C 
ATOM      4  O   UNL     1       2.160   3.393  16.762  0.00  0.00    +0.000 OA
ATOM      5  C   UNL     1       3.399   4.383  18.711  0.00  0.00    +0.000 C 
ATOM      6  C   UNL     1       4.071   5.818  18.699  0.00  0.00    +0.000 C 
ATOM      7  C   UNL     1       5.175   5.904  17.638  0.00  0.00    +0.000 C 
ATOM      8  O   UNL     1       5.926   6.873  17.499  0.00  0.00    +0.000 OA
ATOM      9  C   UNL     1       2.610   6.330  18.512  0.00  0.00    +0.000 C 
ATOM     10  C   UNL     1       2.215   5.069  19.407  0.00  0.00    +0.000 C 
ATOM     11  C   UNL     1       2.401   5.092  20.931  0.00  0.00    +0.000 C 
ENDROOT
BRANCH   9  12
ATOM     12  C   UNL     1       1.955   7.679  18.991  0.00  0.00    +0.000 A 
ATOM     13  C   UNL     1       1.617   8.005  20.310  0.00  0.00    +0.000 A 
ATOM     14  C   UNL     1       0.985   9.222  20.615  0.00  0.00    +0.000 A 
ATOM     15  C   UNL     1       0.695  10.140  19.603  0.00  0.00    +0.000 A 
ATOM     16 CL   UNL     1      -0.124  11.609  19.976  0.00  0.00    +0.000 Cl
ATOM     17  C   UNL     1       1.039   9.864  18.296  0.00  0.00    +0.000 A 
ATOM     18  C   UNL     1       1.680   8.666  18.005  0.00  0.00    +0.000 A 
ENDBRANCH   9  12
BRANCH   1  20
ATOM     19  C   UNL     1       7.082   4.503  15.198  0.00  0.00    +0.000 C 
ATOM     20  O   UNL     1       6.749   4.260  16.575  0.00  0.00    +0.000 OA
ENDBRANCH   1  20
TORSDOF 2
ENDMDL
MODEL 4
REMARK VINA RESULT:      -6.9      1.674      2.140
REMARK  Name = 
REMARK  4 active torsions:
REMARK  status: ('A' for Active; 'I' for Inactive)
REMARK    1  A    between atoms: C_1  and  O_2
REMARK    2  A    between atoms: O_2  and  C_3
REMARK    3  A    between atoms: C_11  and  C_12
REMARK    4  A    between atoms: C_19  and  C_20
REMARK                            x       y       z     vdW  Elec       q    Type
REMARK                         _______ _______ _______ _____ _____    ______ ____
ROOT
ATOM      1  C   UNL     1       1.560   3.631  19.913  0.00  0.00    +0.000 C 
ATOM      2  C   UNL     1       1.384   4.941  20.137  0.00  0.00    +0.000 C 
ATOM      3  C   UNL     1       2.496   5.862  19.827  0.00  0.00    +0.000 C 
ATOM      4  O   UNL     1       2.275   7.059  19.676  0.00  0.00    +0.000 OA
ATOM      5  C   UNL     1       3.890   5.138  19.789  0.00  0.00    +0.000 C 
ATOM      6  C   UNL     1       3.878   3.908  18.790  0.00  0.00    +0.000 C 
ATOM      7  C   UNL     1       2.561   3.127  18.889  0.00  0.00    +0.000 C 
ATOM      8  O   UNL     1       2.341   2.065  18.301  0.00  0.00    +0.000 OA
ATOM      9  C   UNL     1       4.199   4.984  17.707  0.00  0.00    +0.000 C 
ATOM     10  C   UNL     1       4.990   5.714  18.885  0.00  0.00    +0.000 C 
ATOM     11  C   UNL     1       6.380   5.230  19.324  0.00  0.00    +0.000 C 
ENDROOT
BRANCH   9  12
ATOM     12  C   UNL     1       5.029   4.844  16.377  0.00  0.00    +0.000 A 
ATOM     13  C   UNL     1       5.564   3.656  15.864  0.00  0.00    +0.000 A 
ATOM     14  C   UNL     1       6.338   3.658  14.690  0.00  0.00    +0.000 A 
ATOM     15  C   UNL     1       6.575   4.851  14.004  0.00  0.00    +0.000 A 
ATOM     16 CL   UNL     1       7.564   4.855  12.594  0.00  0.00    +0.000 Cl
ATOM     17  C   UNL     1       6.041   6.036  14.466  0.00  0.00    +0.000 A 
ATOM     18  C   UNL     1       5.262   6.022  15.617  0.00  0.00    +0.000 A 
ENDBRANCH   9  12
BRANCH   1  20
ATOM     19  C   UNL     1       1.563   2.475  21.935  0.00  0.00    +0.000 C 
ATOM     20  O   UNL     1       0.869   2.721  20.700  0.00  0.00    +0.000 OA
ENDBRANCH   1  20
TORSDOF 2
ENDMDL
MODEL 5
REMARK VINA RESULT:      -6.5      0.193      1.087
REMARK  Name = 
REMARK  4 active torsions:
REMARK  status: ('A' for Active; 'I' for Inactive)
REMARK    1  A    between atoms: C_1  and  O_2
REMARK    2  A    between atoms: O_2  and  C_3
REMARK    3  A    between atoms: C_11  and  C_12
REMARK    4  A    between atoms: C_19  and  C_20
REMARK                            x       y       z     vdW  Elec       q    Type
REMARK                         _______ _______ _______ _____ _____    ______ ____
ROOT
ATOM      1  C   UNL     1       2.857   2.709  20.430  0.00  0.00    +0.000 C 
ATOM      2  C   UNL     1       1.669   2.750  19.811  0.00  0.00    +0.000 C 
ATOM      3  C   UNL     1       1.478   3.728  18.721  0.00  0.00    +0.000 C 
ATOM      4  O   UNL     1       0.571   3.572  17.910  0.00  0.00    +0.000 OA
ATOM      5  C   UNL     1       2.491   4.927  18.797  0.00  0.00    +0.000 C 
ATOM      6  C   UNL     1       3.991   4.417  18.845  0.00  0.00    +0.000 C 
ATOM      7  C   UNL     1       4.127   3.181  19.744  0.00  0.00    +0.000 C 
ATOM      8  O   UNL     1       5.204   2.656  20.039  0.00  0.00    +0.000 OA
ATOM      9  C   UNL     1       3.864   4.381  17.291  0.00  0.00    +0.000 C 
ATOM     10  C   UNL     1       2.893   5.631  17.493  0.00  0.00    +0.000 C 
ATOM     11  C   UNL     1       3.455   7.034  17.768  0.00  0.00    +0.000 C 
ENDROOT
BRANCH   9  12
ATOM     12  C   UNL     1       4.971   4.608  16.194  0.00  0.00    +0.000 A 
ATOM     13  C   UNL     1       4.896   4.202  14.857  0.00  0.00    +0.000 A 
ATOM     14  C   UNL     1       5.972   4.410  13.976  0.00  0.00    +0.000 A 
ATOM     15  C   UNL     1       7.135   5.042  14.421  0.00  0.00    +0.000 A 
ATOM     16 CL   UNL     1       8.469   5.250  13.351  0.00  0.00    +0.000 Cl
ATOM     17  C   UNL     1       7.233   5.479  15.726  0.00  0.00    +0.000 A 
ATOM     18  C   UNL     1       6.158   5.286  16.585  0.00  0.00    +0.000 A 
ENDBRANCH   9  12
BRANCH   1  20
ATOM     19  C   UNL     1       1.608   2.394  22.370  0.00  0.00    +0.000 C 
ATOM     20  O   UNL     1       2.905   2.305  21.756  0.00  0.00    +0.000 OA
ENDBRANCH   1  20
TORSDOF 2
ENDMDL
MODEL 6
REMARK VINA RESULT:      -6.4      3.908      6.222
REMARK  Name = 
REMARK  4 active torsions:
REMARK  status: ('A' for Active; 'I' for Inactive)
REMARK    1  A    between atoms: C_1  and  O_2
REMARK    2  A    between atoms: O_2  and  C_3
REMARK    3  A    between atoms: C_11  and  C_12
REMARK    4  A    between atoms: C_19  and  C_20
REMARK                            x       y       z     vdW  Elec       q    Type
REMARK                         _______ _______ _______ _____ _____    ______ ____
ROOT
ATOM      1  C   UNL     1       5.689   4.788  16.777  0.00  0.00    +0.000 C 
ATOM      2  C   UNL     1       4.738   3.924  16.391  0.00  0.00    +0.000 C 
ATOM      3  C   UNL     1       3.466   3.900  17.139  0.00  0.00    +0.000 C 
ATOM      4  O   UNL     1       2.465   3.407  16.629  0.00  0.00    +0.000 OA
ATOM      5  C   UNL     1       3.601   4.495  18.587  0.00  0.00    +0.000 C 
ATOM      6  C   UNL     1       4.214   5.956  18.559  0.00  0.00    +0.000 C 
ATOM      7  C   UNL     1       5.346   6.062  17.529  0.00  0.00    +0.000 C 
ATOM      8  O   UNL     1       6.061   7.057  17.387  0.00  0.00    +0.000 OA
ATOM      9  C   UNL     1       2.740   6.401  18.314  0.00  0.00    +0.000 C 
ATOM     10  C   UNL     1       2.369   5.148  19.230  0.00  0.00    +0.000 C 
ATOM     11  C   UNL     1       2.508   5.215  20.758  0.00  0.00    +0.000 C 
ENDROOT
BRANCH   9  12
ATOM     12  C   UNL     1       2.016   7.734  18.739  0.00  0.00    +0.000 A 
ATOM     13  C   UNL     1       1.653   8.780  17.883  0.00  0.00    +0.000 A 
ATOM     14  C   UNL     1       1.059   9.951  18.382  0.00  0.00    +0.000 A 
ATOM     15  C   UNL     1       0.804  10.085  19.749  0.00  0.00    +0.000 A 
ATOM     16 CL   UNL     1       0.120  11.542  20.362  0.00  0.00    +0.000 Cl
ATOM     17  C   UNL     1       1.124   9.063  20.619  0.00  0.00    +0.000 A 
ATOM     18  C   UNL     1       1.695   7.901  20.113  0.00  0.00    +0.000 A 
ENDBRANCH   9  12
BRANCH   1  20
ATOM     19  C   UNL     1       7.768   4.491  17.782  0.00  0.00    +0.000 C 
ATOM     20  O   UNL     1       7.018   4.459  16.556  0.00  0.00    +0.000 OA
ENDBRANCH   1  20
TORSDOF 2
ENDMDL
MODEL 7
REMARK VINA RESULT:      -6.3      1.532      2.206
REMARK  Name = 
REMARK  4 active torsions:
REMARK  status: ('A' for Active; 'I' for Inactive)
REMARK    1  A    between atoms: C_1  and  O_2
REMARK    2  A    between atoms: O_2  and  C_3
REMARK    3  A    between atoms: C_11  and  C_12
REMARK    4  A    between atoms: C_19  and  C_20
REMARK                            x       y       z     vdW  Elec       q    Type
REMARK                         _______ _______ _______ _____ _____    ______ ____
ROOT
ATOM      1  C   UNL     1       2.946   3.361  20.102  0.00  0.00    +0.000 C 
ATOM      2  C   UNL     1       2.557   4.640  20.207  0.00  0.00    +0.000 C 
ATOM      3  C   UNL     1       3.388   5.681  19.570  0.00  0.00    +0.000 C 
ATOM      4  O   UNL     1       2.910   6.786  19.333  0.00  0.00    +0.000 OA
ATOM      5  C   UNL     1       4.867   5.211  19.325  0.00  0.00    +0.000 C 
ATOM      6  C   UNL     1       4.917   3.861  18.497  0.00  0.00    +0.000 C 
ATOM      7  C   UNL     1       3.823   2.889  18.957  0.00  0.00    +0.000 C 
ATOM      8  O   UNL     1       3.715   1.729  18.552  0.00  0.00    +0.000 OA
ATOM      9  C   UNL     1       4.815   4.800  17.256  0.00  0.00    +0.000 C 
ATOM     10  C   UNL     1       5.646   5.825  18.153  0.00  0.00    +0.000 C 
ATOM     11  C   UNL     1       7.162   5.660  18.344  0.00  0.00    +0.000 C 
ENDROOT
BRANCH   9  12
ATOM     12  C   UNL     1       5.398   4.605  15.807  0.00  0.00    +0.000 A 
ATOM     13  C   UNL     1       4.834   3.823  14.792  0.00  0.00    +0.000 A 
ATOM     14  C   UNL     1       5.473   3.678  13.549  0.00  0.00    +0.000 A 
ATOM     15  C   UNL     1       6.683   4.329  13.298  0.00  0.00    +0.000 A 
ATOM     16 CL   UNL     1       7.487   4.109  11.791  0.00  0.00    +0.000 Cl
ATOM     17  C   UNL     1       7.254   5.130  14.265  0.00  0.00    +0.000 A 
ATOM     18  C   UNL     1       6.606   5.282  15.485  0.00  0.00    +0.000 A 
ENDBRANCH   9  12
BRANCH   1  20
ATOM     19  C   UNL     1       1.388   2.878  21.764  0.00  0.00    +0.000 C 
ATOM     20  O   UNL     1       2.605   2.475  21.114  0.00  0.00    +0.000 OA
ENDBRANCH   1  20
TORSDOF 2
ENDMDL
MODEL 8
REMARK VINA RESULT:      -6.3      3.643      5.731
REMARK  Name = 
REMARK  4 active torsions:
REMARK  status: ('A' for Active; 'I' for Inactive)
REMARK    1  A    between atoms: C_1  and  O_2
REMARK    2  A    between atoms: O_2  and  C_3
REMARK    3  A    between atoms: C_11  and  C_12
REMARK    4  A    between atoms: C_19  and  C_20
REMARK                            x       y       z     vdW  Elec       q    Type
REMARK                         _______ _______ _______ _____ _____    ______ ____
ROOT
ATOM      1  C   UNL     1       3.340   2.836  18.852  0.00  0.00    +0.000 C 
ATOM      2  C   UNL     1       4.533   3.136  19.385  0.00  0.00    +0.000 C 
ATOM      3  C   UNL     1       5.099   4.476  19.134  0.00  0.00    +0.000 C 
ATOM      4  O   UNL     1       5.981   4.915  19.865  0.00  0.00    +0.000 OA
ATOM      5  C   UNL     1       4.490   5.162  17.858  0.00  0.00    +0.000 C 
ATOM      6  C   UNL     1       2.908   5.219  17.929  0.00  0.00    +0.000 C 
ATOM      7  C   UNL     1       2.332   3.917  18.503  0.00  0.00    +0.000 C 
ATOM      8  O   UNL     1       1.127   3.661  18.560  0.00  0.00    +0.000 OA
ATOM      9  C   UNL     1       3.146   6.526  18.745  0.00  0.00    +0.000 C 
ATOM     10  C   UNL     1       4.428   6.695  17.810  0.00  0.00    +0.000 C 
ATOM     11  C   UNL     1       4.293   7.202  16.366  0.00  0.00    +0.000 C 
ENDROOT
BRANCH   9  12
ATOM     12  C   UNL     1       2.254   7.820  18.840  0.00  0.00    +0.000 A 
ATOM     13  C   UNL     1       1.931   8.674  17.779  0.00  0.00    +0.000 A 
ATOM     14  C   UNL     1       1.168   9.836  17.992  0.00  0.00    +0.000 A 
ATOM     15  C   UNL     1       0.704  10.150  19.271  0.00  0.00    +0.000 A 
ATOM     16 CL   UNL     1      -0.188  11.600  19.534  0.00  0.00    +0.000 Cl
ATOM     17  C   UNL     1       0.981   9.317  20.335  0.00  0.00    +0.000 A 
ATOM     18  C   UNL     1       1.720   8.161  20.112  0.00  0.00    +0.000 A 
ENDBRANCH   9  12
BRANCH   1  20
ATOM     19  C   UNL     1       4.248   0.706  18.615  0.00  0.00    +0.000 C 
ATOM     20  O   UNL     1       3.062   1.514  18.536  0.00  0.00    +0.000 OA
ENDBRANCH   1  20
TORSDOF 2
ENDMDL
MODEL 9
REMARK VINA RESULT:      -6.2      1.845      2.826
REMARK  Name = 
REMARK  4 active torsions:
REMARK  status: ('A' for Active; 'I' for Inactive)
REMARK    1  A    between atoms: C_1  and  O_2
REMARK    2  A    between atoms: O_2  and  C_3
REMARK    3  A    between atoms: C_11  and  C_12
REMARK    4  A    between atoms: C_19  and  C_20
REMARK                            x       y       z     vdW  Elec       q    Type
REMARK                         _______ _______ _______ _____ _____    ______ ____
ROOT
ATOM      1  C   UNL     1       1.977   4.681  18.450  0.00  0.00    +0.000 C 
ATOM      2  C   UNL     1       2.086   6.014  18.540  0.00  0.00    +0.000 C 
ATOM      3  C   UNL     1       3.374   6.640  18.179  0.00  0.00    +0.000 C 
ATOM      4  O   UNL     1       3.418   7.835  17.906  0.00  0.00    +0.000 OA
ATOM      5  C   UNL     1       4.579   5.635  18.257  0.00  0.00    +0.000 C 
ATOM      6  C   UNL     1       4.313   4.341  17.382  0.00  0.00    +0.000 C 
ATOM      7  C   UNL     1       2.858   3.873  17.513  0.00  0.00    +0.000 C 
ATOM      8  O   UNL     1       2.421   2.829  17.023  0.00  0.00    +0.000 OA
ATOM      9  C   UNL     1       4.871   5.207  16.211  0.00  0.00    +0.000 C 
ATOM     10  C   UNL     1       5.788   5.868  17.338  0.00  0.00    +0.000 C 
ATOM     11  C   UNL     1       7.036   5.145  17.866  0.00  0.00    +0.000 C 
ENDROOT
BRANCH   9  12
ATOM     12  C   UNL     1       5.665   4.759  14.928  0.00  0.00    +0.000 A 
ATOM     13  C   UNL     1       6.943   5.196  14.559  0.00  0.00    +0.000 A 
ATOM     14  C   UNL     1       7.536   4.768  13.359  0.00  0.00    +0.000 A 
ATOM     15  C   UNL     1       6.861   3.883  12.515  0.00  0.00    +0.000 A 
ATOM     16 CL   UNL     1       7.571   3.401  11.022  0.00  0.00    +0.000 Cl
ATOM     17  C   UNL     1       5.611   3.411  12.860  0.00  0.00    +0.000 A 
ATOM     18  C   UNL     1       5.041   3.825  14.058  0.00  0.00    +0.000 A 
ENDBRANCH   9  12
BRANCH   1  20
ATOM     19  C   UNL     1       1.663   3.875  20.612  0.00  0.00    +0.000 C 
ATOM     20  O   UNL     1       1.098   4.024  19.299  0.00  0.00    +0.000 OA
ENDBRANCH   1  20
TORSDOF 2
ENDMDL
