MODEL 1
REMARK VINA RESULT:      -7.5      0.000      0.000
REMARK  Name = 
REMARK  6 active torsions:
REMARK  status: ('A' for Active; 'I' for Inactive)
REMARK    1  A    between atoms: C_1  and  C_2
REMARK    2  A    between atoms: C_2  and  C_3
REMARK    3  A    between atoms: N_9  and  C_10
REMARK    4  A    between atoms: C_10  and  C_11
REMARK    5  A    between atoms: C_16  and  C_17
REMARK    6  A    between atoms: N_23  and  C_24
REMARK                            x       y       z     vdW  Elec       q    Type
REMARK                         _______ _______ _______ _____ _____    ______ ____
ROOT
ATOM      1  C   UNL     1       3.113   3.515  17.770  0.00  0.00    +0.000 A 
ATOM      2  N   UNL     1       2.479   4.544  18.385  0.00  0.00    +0.000 NA
ATOM      3  C   UNL     1       2.886   5.817  18.155  0.00  0.00    +0.000 A 
ATOM      4  N   UNL     1       2.300   6.878  18.801  0.00  0.00    +0.000 N 
ATOM      5  C   UNL     1       1.673   6.708  20.108  0.00  0.00    +0.000 C 
ATOM      6  C   UNL     1       1.850   8.036  20.911  0.00  0.00    +0.000 C 
ATOM      7  N   UNL     1       1.478   9.300  20.205  0.00  0.00    +0.000 NA
ATOM      8  C   UNL     1       2.105   9.292  18.859  0.00  0.00    +0.000 C 
ATOM      9  C   UNL     1       1.819   8.025  18.029  0.00  0.00    +0.000 C 
ATOM     10  C   UNL     1       4.007   5.992  17.330  0.00  0.00    +0.000 A 
ATOM     11  C   UNL     1       4.825   7.056  16.893  0.00  0.00    +0.000 A 
ATOM     12  N   UNL     1       5.844   6.655  16.131  0.00  0.00    +0.000 NA
ATOM     13  N   UNL     1       5.693   5.310  16.108  0.00  0.00    +0.000 N 
ATOM     14  C   UNL     1       6.688   4.488  15.468  0.00  0.00    +0.000 C 
ATOM     15  C   UNL     1       4.598   4.863  16.798  0.00  0.00    +0.000 A 
ATOM     16  N   UNL     1       4.196   3.594  16.965  0.00  0.00    +0.000 NA
ENDROOT
BRANCH   1  18
ATOM     17  C   UNL     1       1.293   2.191  18.837  0.00  0.00    +0.000 C 
ATOM     18  C   UNL     1       2.598   2.131  18.061  0.00  0.00    +0.000 C 
ENDBRANCH   1  18
BRANCH   7  19
ATOM     19  C   UNL     1       0.007   9.426  20.136  0.00  0.00    +0.000 C 
BRANCH  19  20
ATOM     20  C   UNL     1      -0.614  10.615  20.858  0.00  0.00    +0.000 A 
ATOM     21  N   UNL     1      -1.032  11.620  20.037  0.00  0.00    +0.000 NA
ATOM     22  C   UNL     1      -1.669  12.672  20.592  0.00  0.00    +0.000 A 
ATOM     23  C   UNL     1      -1.924  12.786  21.942  0.00  0.00    +0.000 A 
ATOM     24  C   UNL     1      -1.470  11.774  22.779  0.00  0.00    +0.000 A 
ATOM     25  C   UNL     1      -0.778  10.673  22.250  0.00  0.00    +0.000 A 
ATOM     26  C   UNL     1      -0.270   9.615  23.182  0.00  0.00    +0.000 C 
ENDBRANCH  19  20
ENDBRANCH   7  19
TORSDOF 3
ENDMDL
MODEL 2
REMARK VINA RESULT:      -7.5      1.853      3.735
REMARK  Name = 
REMARK  6 active torsions:
REMARK  status: ('A' for Active; 'I' for Inactive)
REMARK    1  A    between atoms: C_1  and  C_2
REMARK    2  A    between atoms: C_2  and  C_3
REMARK    3  A    between atoms: N_9  and  C_10
REMARK    4  A    between atoms: C_10  and  C_11
REMARK    5  A    between atoms: C_16  and  C_17
REMARK    6  A    between atoms: N_23  and  C_24
REMARK                            x       y       z     vdW  Elec       q    Type
REMARK                         _______ _______ _______ _____ _____    ______ ____
ROOT
ATOM      1  C   UNL     1       4.494   5.712  17.013  0.00  0.00    +0.000 A 
ATOM      2  N   UNL     1       3.856   6.828  17.446  0.00  0.00    +0.000 NA
ATOM      3  C   UNL     1       2.853   6.720  18.352  0.00  0.00    +0.000 A 
ATOM      4  N   UNL     1       2.154   7.824  18.773  0.00  0.00    +0.000 N 
ATOM      5  C   UNL     1       2.026   9.002  17.921  0.00  0.00    +0.000 C 
ATOM      6  C   UNL     1       0.642   9.667  18.209  0.00  0.00    +0.000 C 
ATOM      7  N   UNL     1       0.298   9.901  19.645  0.00  0.00    +0.000 NA
ATOM      8  C   UNL     1       0.566   8.653  20.404  0.00  0.00    +0.000 C 
ATOM      9  C   UNL     1       1.981   8.076  20.204  0.00  0.00    +0.000 C 
ATOM     10  C   UNL     1       2.480   5.425  18.742  0.00  0.00    +0.000 A 
ATOM     11  C   UNL     1       1.485   4.822  19.541  0.00  0.00    +0.000 A 
ATOM     12  N   UNL     1       1.539   3.490  19.529  0.00  0.00    +0.000 NA
ATOM     13  N   UNL     1       2.564   3.236  18.682  0.00  0.00    +0.000 N 
ATOM     14  C   UNL     1       2.867   1.878  18.309  0.00  0.00    +0.000 C 
ATOM     15  C   UNL     1       3.172   4.363  18.196  0.00  0.00    +0.000 A 
ATOM     16  N   UNL     1       4.200   4.433  17.335  0.00  0.00    +0.000 NA
ENDROOT
BRANCH   1  18
ATOM     17  C   UNL     1       5.606   4.804  14.977  0.00  0.00    +0.000 C 
ATOM     18  C   UNL     1       5.607   5.910  16.019  0.00  0.00    +0.000 C 
ENDBRANCH   1  18
BRANCH   7  19
ATOM     19  C   UNL     1       1.067  11.050  20.167  0.00  0.00    +0.000 C 
BRANCH  19  20
ATOM     20  C   UNL     1       0.561  12.439  19.797  0.00  0.00    +0.000 A 
ATOM     21  N   UNL     1      -0.628  12.780  20.370  0.00  0.00    +0.000 NA
ATOM     22  C   UNL     1      -1.103  14.025  20.159  0.00  0.00    +0.000 A 
ATOM     23  C   UNL     1      -0.451  14.973  19.399  0.00  0.00    +0.000 A 
ATOM     24  C   UNL     1       0.745  14.611  18.791  0.00  0.00    +0.000 A 
ATOM     25  C   UNL     1       1.264  13.319  18.960  0.00  0.00    +0.000 A 
ATOM     26  C   UNL     1       2.539  12.948  18.264  0.00  0.00    +0.000 C 
ENDBRANCH  19  20
ENDBRANCH   7  19
TORSDOF 3
ENDMDL
MODEL 3
REMARK VINA RESULT:      -7.4      1.556      3.538
REMARK  Name = 
REMARK  6 active torsions:
REMARK  status: ('A' for Active; 'I' for Inactive)
REMARK    1  A    between atoms: C_1  and  C_2
REMARK    2  A    between atoms: C_2  and  C_3
REMARK    3  A    between atoms: N_9  and  C_10
REMARK    4  A    between atoms: C_10  and  C_11
REMARK    5  A    between atoms: C_16  and  C_17
REMARK    6  A    between atoms: N_23  and  C_24
REMARK                            x       y       z     vdW  Elec       q    Type
REMARK                         _______ _______ _______ _____ _____    ______ ____
ROOT
ATOM      1  C   UNL     1       4.142   6.259  17.404  0.00  0.00    +0.000 A 
ATOM      2  N   UNL     1       3.439   7.276  17.962  0.00  0.00    +0.000 NA
ATOM      3  C   UNL     1       2.529   7.011  18.932  0.00  0.00    +0.000 A 
ATOM      4  N   UNL     1       1.764   8.011  19.481  0.00  0.00    +0.000 N 
ATOM      5  C   UNL     1       1.455   9.221  18.726  0.00  0.00    +0.000 C 
ATOM      6  C   UNL     1       0.042   9.723  19.164  0.00  0.00    +0.000 C 
ATOM      7  N   UNL     1      -0.203   9.831  20.635  0.00  0.00    +0.000 NA
ATOM      8  C   UNL     1       0.245   8.572  21.283  0.00  0.00    +0.000 C 
ATOM      9  C   UNL     1       1.687   8.154  20.936  0.00  0.00    +0.000 C 
ATOM     10  C   UNL     1       2.315   5.663  19.258  0.00  0.00    +0.000 A 
ATOM     11  C   UNL     1       1.452   4.914  20.086  0.00  0.00    +0.000 A 
ATOM     12  N   UNL     1       1.632   3.598  19.976  0.00  0.00    +0.000 NA
ATOM     13  N   UNL     1       2.603   3.502  19.038  0.00  0.00    +0.000 N 
ATOM     14  C   UNL     1       3.003   2.207  18.549  0.00  0.00    +0.000 C 
ATOM     15  C   UNL     1       3.058   4.712  18.587  0.00  0.00    +0.000 A 
ATOM     16  N   UNL     1       4.000   4.940  17.658  0.00  0.00    +0.000 NA
ENDROOT
BRANCH   1  18
ATOM     17  C   UNL     1       5.469   5.436  15.463  0.00  0.00    +0.000 C 
ATOM     18  C   UNL     1       5.146   6.630  16.345  0.00  0.00    +0.000 C 
ENDBRANCH   1  18
BRANCH   7  19
ATOM     19  C   UNL     1       0.493  11.017  21.176  0.00  0.00    +0.000 C 
BRANCH  19  20
ATOM     20  C   UNL     1      -0.366  12.041  21.910  0.00  0.00    +0.000 A 
ATOM     21  N   UNL     1      -1.464  11.520  22.528  0.00  0.00    +0.000 NA
ATOM     22  C   UNL     1      -2.230  12.347  23.268  0.00  0.00    +0.000 A 
ATOM     23  C   UNL     1      -1.963  13.689  23.437  0.00  0.00    +0.000 A 
ATOM     24  C   UNL     1      -0.861  14.222  22.780  0.00  0.00    +0.000 A 
ATOM     25  C   UNL     1      -0.050  13.406  21.978  0.00  0.00    +0.000 A 
ATOM     26  C   UNL     1       1.112  14.017  21.254  0.00  0.00    +0.000 C 
ENDBRANCH  19  20
ENDBRANCH   7  19
TORSDOF 3
ENDMDL
MODEL 4
REMARK VINA RESULT:      -7.4      1.308      3.192
REMARK  Name = 
REMARK  6 active torsions:
REMARK  status: ('A' for Active; 'I' for Inactive)
REMARK    1  A    between atoms: C_1  and  C_2
REMARK    2  A    between atoms: C_2  and  C_3
REMARK    3  A    between atoms: N_9  and  C_10
REMARK    4  A    between atoms: C_10  and  C_11
REMARK    5  A    between atoms: C_16  and  C_17
REMARK    6  A    between atoms: N_23  and  C_24
REMARK                            x       y       z     vdW  Elec       q    Type
REMARK                         _______ _______ _______ _____ _____    ______ ____
ROOT
ATOM      1  C   UNL     1       4.787   5.917  17.246  0.00  0.00    +0.000 A 
ATOM      2  N   UNL     1       4.065   6.961  17.727  0.00  0.00    +0.000 NA
ATOM      3  C   UNL     1       2.973   6.725  18.495  0.00  0.00    +0.000 A 
ATOM      4  N   UNL     1       2.192   7.757  18.955  0.00  0.00    +0.000 N 
ATOM      5  C   UNL     1       2.116   9.021  18.231  0.00  0.00    +0.000 C 
ATOM      6  C   UNL     1       0.686   9.616  18.432  0.00  0.00    +0.000 C 
ATOM      7  N   UNL     1       0.178   9.675  19.838  0.00  0.00    +0.000 NA
ATOM      8  C   UNL     1       0.406   8.355  20.479  0.00  0.00    +0.000 C 
ATOM      9  C   UNL     1       1.855   7.838  20.377  0.00  0.00    +0.000 C 
ATOM     10  C   UNL     1       2.607   5.385  18.694  0.00  0.00    +0.000 A 
ATOM     11  C   UNL     1       1.553   4.671  19.303  0.00  0.00    +0.000 A 
ATOM     12  N   UNL     1       1.656   3.351  19.148  0.00  0.00    +0.000 NA
ATOM     13  N   UNL     1       2.777   3.221  18.400  0.00  0.00    +0.000 N 
ATOM     14  C   UNL     1       3.168   1.922  17.915  0.00  0.00    +0.000 C 
ATOM     15  C   UNL     1       3.393   4.410  18.115  0.00  0.00    +0.000 A 
ATOM     16  N   UNL     1       4.506   4.603  17.389  0.00  0.00    +0.000 NA
ENDROOT
BRANCH   1  18
ATOM     17  C   UNL     1       7.115   6.803  17.281  0.00  0.00    +0.000 C 
ATOM     18  C   UNL     1       5.994   6.254  16.413  0.00  0.00    +0.000 C 
ENDBRANCH   1  18
BRANCH   7  19
ATOM     19  C   UNL     1       0.842  10.774  20.568  0.00  0.00    +0.000 C 
BRANCH  19  20
ATOM     20  C   UNL     1      -0.063  11.750  21.310  0.00  0.00    +0.000 A 
ATOM     21  N   UNL     1      -0.206  12.963  20.704  0.00  0.00    +0.000 NA
ATOM     22  C   UNL     1      -1.057  13.854  21.253  0.00  0.00    +0.000 A 
ATOM     23  C   UNL     1      -1.793  13.605  22.393  0.00  0.00    +0.000 A 
ATOM     24  C   UNL     1      -1.621  12.380  23.025  0.00  0.00    +0.000 A 
ATOM     25  C   UNL     1      -0.726  11.432  22.505  0.00  0.00    +0.000 A 
ATOM     26  C   UNL     1      -0.537  10.133  23.229  0.00  0.00    +0.000 C 
ENDBRANCH  19  20
ENDBRANCH   7  19
TORSDOF 3
ENDMDL
MODEL 5
REMARK VINA RESULT:      -7.4      1.534      3.524
REMARK  Name = 
REMARK  6 active torsions:
REMARK  status: ('A' for Active; 'I' for Inactive)
REMARK    1  A    between atoms: C_1  and  C_2
REMARK    2  A    between atoms: C_2  and  C_3
REMARK    3  A    between atoms: N_9  and  C_10
REMARK    4  A    between atoms: C_10  and  C_11
REMARK    5  A    between atoms: C_16  and  C_17
REMARK    6  A    between atoms: N_23  and  C_24
REMARK                            x       y       z     vdW  Elec       q    Type
REMARK                         _______ _______ _______ _____ _____    ______ ____
ROOT
ATOM      1  C   UNL     1       4.503   5.807  17.046  0.00  0.00    +0.000 A 
ATOM      2  N   UNL     1       3.831   6.910  17.462  0.00  0.00    +0.000 NA
ATOM      3  C   UNL     1       2.840   6.787  18.380  0.00  0.00    +0.000 A 
ATOM      4  N   UNL     1       2.107   7.875  18.784  0.00  0.00    +0.000 N 
ATOM      5  C   UNL     1       1.930   9.029  17.908  0.00  0.00    +0.000 C 
ATOM      6  C   UNL     1       0.527   9.651  18.196  0.00  0.00    +0.000 C 
ATOM      7  N   UNL     1       0.189   9.904  19.630  0.00  0.00    +0.000 NA
ATOM      8  C   UNL     1       0.507   8.684  20.414  0.00  0.00    +0.000 C 
ATOM      9  C   UNL     1       1.940   8.152  20.212  0.00  0.00    +0.000 C 
ATOM     10  C   UNL     1       2.517   5.488  18.802  0.00  0.00    +0.000 A 
ATOM     11  C   UNL     1       1.552   4.869  19.625  0.00  0.00    +0.000 A 
ATOM     12  N   UNL     1       1.652   3.539  19.641  0.00  0.00    +0.000 NA
ATOM     13  N   UNL     1       2.677   3.303  18.789  0.00  0.00    +0.000 N 
ATOM     14  C   UNL     1       3.024   1.948  18.443  0.00  0.00    +0.000 C 
ATOM     15  C   UNL     1       3.241   4.439  18.272  0.00  0.00    +0.000 A 
ATOM     16  N   UNL     1       4.257   4.526  17.399  0.00  0.00    +0.000 NA
ENDROOT
BRANCH   1  18
ATOM     17  C   UNL     1       5.598   4.917  14.993  0.00  0.00    +0.000 C 
ATOM     18  C   UNL     1       5.599   6.022  16.037  0.00  0.00    +0.000 C 
ENDBRANCH   1  18
BRANCH   7  19
ATOM     19  C   UNL     1       0.921  11.091  20.120  0.00  0.00    +0.000 C 
BRANCH  19  20
ATOM     20  C   UNL     1       0.083  12.226  20.696  0.00  0.00    +0.000 A 
ATOM     21  N   UNL     1      -0.097  12.167  22.046  0.00  0.00    +0.000 NA
ATOM     22  C   UNL     1      -0.757  13.180  22.645  0.00  0.00    +0.000 A 
ATOM     23  C   UNL     1      -1.256  14.272  21.968  0.00  0.00    +0.000 A 
ATOM     24  C   UNL     1      -1.098  14.313  20.589  0.00  0.00    +0.000 A 
ATOM     25  C   UNL     1      -0.442  13.269  19.919  0.00  0.00    +0.000 A 
ATOM     26  C   UNL     1      -0.316  13.325  18.426  0.00  0.00    +0.000 C 
ENDBRANCH  19  20
ENDBRANCH   7  19
TORSDOF 3
ENDMDL
MODEL 6
REMARK VINA RESULT:      -7.3      0.963      1.653
REMARK  Name = 
REMARK  6 active torsions:
REMARK  status: ('A' for Active; 'I' for Inactive)
REMARK    1  A    between atoms: C_1  and  C_2
REMARK    2  A    between atoms: C_2  and  C_3
REMARK    3  A    between atoms: N_9  and  C_10
REMARK    4  A    between atoms: C_10  and  C_11
REMARK    5  A    between atoms: C_16  and  C_17
REMARK    6  A    between atoms: N_23  and  C_24
REMARK                            x       y       z     vdW  Elec       q    Type
REMARK                         _______ _______ _______ _____ _____    ______ ____
ROOT
ATOM      1  C   UNL     1       3.441   3.406  18.002  0.00  0.00    +0.000 A 
ATOM      2  N   UNL     1       2.731   4.414  18.569  0.00  0.00    +0.000 NA
ATOM      3  C   UNL     1       3.030   5.701  18.265  0.00  0.00    +0.000 A 
ATOM      4  N   UNL     1       2.365   6.745  18.860  0.00  0.00    +0.000 N 
ATOM      5  C   UNL     1       1.766   6.597  20.182  0.00  0.00    +0.000 C 
ATOM      6  C   UNL     1       1.842   7.977  20.910  0.00  0.00    +0.000 C 
ATOM      7  N   UNL     1       1.362   9.166  20.141  0.00  0.00    +0.000 NA
ATOM      8  C   UNL     1       1.976   9.135  18.790  0.00  0.00    +0.000 C 
ATOM      9  C   UNL     1       1.786   7.805  18.033  0.00  0.00    +0.000 C 
ATOM     10  C   UNL     1       4.127   5.919  17.417  0.00  0.00    +0.000 A 
ATOM     11  C   UNL     1       4.852   7.020  16.912  0.00  0.00    +0.000 A 
ATOM     12  N   UNL     1       5.893   6.661  16.160  0.00  0.00    +0.000 NA
ATOM     13  N   UNL     1       5.852   5.309  16.212  0.00  0.00    +0.000 N 
ATOM     14  C   UNL     1       6.905   4.537  15.604  0.00  0.00    +0.000 C 
ATOM     15  C   UNL     1       4.803   4.815  16.939  0.00  0.00    +0.000 A 
ATOM     16  N   UNL     1       4.506   3.528  17.180  0.00  0.00    +0.000 NA
ENDROOT
BRANCH   1  18
ATOM     17  C   UNL     1       1.594   1.955  18.834  0.00  0.00    +0.000 C 
ATOM     18  C   UNL     1       3.042   2.003  18.375  0.00  0.00    +0.000 C 
ENDBRANCH   1  18
BRANCH   7  19
ATOM     19  C   UNL     1      -0.115   9.169  20.085  0.00  0.00    +0.000 C 
BRANCH  19  20
ATOM     20  C   UNL     1      -0.794  10.527  19.956  0.00  0.00    +0.000 A 
ATOM     21  N   UNL     1      -0.733  11.300  21.078  0.00  0.00    +0.000 NA
ATOM     22  C   UNL     1      -1.238  12.549  21.018  0.00  0.00    +0.000 A 
ATOM     23  C   UNL     1      -1.810  13.089  19.886  0.00  0.00    +0.000 A 
ATOM     24  C   UNL     1      -1.898  12.288  18.755  0.00  0.00    +0.000 A 
ATOM     25  C   UNL     1      -1.410  10.972  18.777  0.00  0.00    +0.000 A 
ATOM     26  C   UNL     1      -1.551  10.121  17.551  0.00  0.00    +0.000 C 
ENDBRANCH  19  20
ENDBRANCH   7  19
TORSDOF 3
ENDMDL
MODEL 7
REMARK VINA RESULT:      -7.2      1.452      3.344
REMARK  Name = 
REMARK  6 active torsions:
REMARK  status: ('A' for Active; 'I' for Inactive)
REMARK    1  A    between atoms: C_1  and  C_2
REMARK    2  A    between atoms: C_2  and  C_3
REMARK    3  A    between atoms: N_9  and  C_10
REMARK    4  A    between atoms: C_10  and  C_11
REMARK    5  A    between atoms: C_16  and  C_17
REMARK    6  A    between atoms: N_23  and  C_24
REMARK                            x       y       z     vdW  Elec       q    Type
REMARK                         _______ _______ _______ _____ _____    ______ ____
ROOT
ATOM      1  C   UNL     1       4.206   6.165  17.251  0.00  0.00    +0.000 A 
ATOM      2  N   UNL     1       3.525   7.187  17.826  0.00  0.00    +0.000 NA
ATOM      3  C   UNL     1       2.618   6.926  18.800  0.00  0.00    +0.000 A 
ATOM      4  N   UNL     1       1.875   7.931  19.368  0.00  0.00    +0.000 N 
ATOM      5  C   UNL     1       1.580   9.155  18.629  0.00  0.00    +0.000 C 
ATOM      6  C   UNL     1       0.179   9.676  19.086  0.00  0.00    +0.000 C 
ATOM      7  N   UNL     1      -0.051   9.770  20.560  0.00  0.00    +0.000 NA
ATOM      8  C   UNL     1       0.381   8.497  21.189  0.00  0.00    +0.000 C 
ATOM      9  C   UNL     1       1.813   8.058  20.825  0.00  0.00    +0.000 C 
ATOM     10  C   UNL     1       2.385   5.578  19.112  0.00  0.00    +0.000 A 
ATOM     11  C   UNL     1       1.516   4.834  19.940  0.00  0.00    +0.000 A 
ATOM     12  N   UNL     1       1.673   3.516  19.813  0.00  0.00    +0.000 NA
ATOM     13  N   UNL     1       2.635   3.415  18.865  0.00  0.00    +0.000 N 
ATOM     14  C   UNL     1       3.009   2.119  18.358  0.00  0.00    +0.000 C 
ATOM     15  C   UNL     1       3.106   4.623  18.425  0.00  0.00    +0.000 A 
ATOM     16  N   UNL     1       4.044   4.845  17.490  0.00  0.00    +0.000 NA
ENDROOT
BRANCH   1  18
ATOM     17  C   UNL     1       5.579   5.318  15.352  0.00  0.00    +0.000 C 
ATOM     18  C   UNL     1       5.206   6.532  16.187  0.00  0.00    +0.000 C 
ENDBRANCH   1  18
BRANCH   7  19
ATOM     19  C   UNL     1       0.668  10.938  21.109  0.00  0.00    +0.000 C 
BRANCH  19  20
ATOM     20  C   UNL     1      -0.058  12.277  21.061  0.00  0.00    +0.000 A 
ATOM     21  N   UNL     1       0.366  13.116  20.073  0.00  0.00    +0.000 NA
ATOM     22  C   UNL     1      -0.283  14.287  19.911  0.00  0.00    +0.000 A 
ATOM     23  C   UNL     1      -1.353  14.682  20.685  0.00  0.00    +0.000 A 
ATOM     24  C   UNL     1      -1.762  13.838  21.710  0.00  0.00    +0.000 A 
ATOM     25  C   UNL     1      -1.100  12.621  21.935  0.00  0.00    +0.000 A 
ATOM     26  C   UNL     1      -1.543  11.748  23.070  0.00  0.00    +0.000 C 
ENDBRANCH  19  20
ENDBRANCH   7  19
TORSDOF 3
ENDMDL
MODEL 8
REMARK VINA RESULT:      -7.2      0.700      1.416
REMARK  Name = 
REMARK  6 active torsions:
REMARK  status: ('A' for Active; 'I' for Inactive)
REMARK    1  A    between atoms: C_1  and  C_2
REMARK    2  A    between atoms: C_2  and  C_3
REMARK    3  A    between atoms: N_9  and  C_10
REMARK    4  A    between atoms: C_10  and  C_11
REMARK    5  A    between atoms: C_16  and  C_17
REMARK    6  A    between atoms: N_23  and  C_24
REMARK                            x       y       z     vdW  Elec       q    Type
REMARK                         _______ _______ _______ _____ _____    ______ ____
ROOT
ATOM      1  C   UNL     1       3.069   3.602  18.002  0.00  0.00    +0.000 A 
ATOM      2  N   UNL     1       2.445   4.698  18.501  0.00  0.00    +0.000 NA
ATOM      3  C   UNL     1       2.870   5.935  18.142  0.00  0.00    +0.000 A 
ATOM      4  N   UNL     1       2.294   7.065  18.668  0.00  0.00    +0.000 N 
ATOM      5  C   UNL     1       1.657   7.042  19.981  0.00  0.00    +0.000 C 
ATOM      6  C   UNL     1       1.848   8.444  20.642  0.00  0.00    +0.000 C 
ATOM      7  N   UNL     1       1.497   9.632  19.804  0.00  0.00    +0.000 NA
ATOM      8  C   UNL     1       2.133   9.475  18.471  0.00  0.00    +0.000 C 
ATOM      9  C   UNL     1       1.834   8.131  17.777  0.00  0.00    +0.000 C 
ATOM     10  C   UNL     1       3.999   6.007  17.312  0.00  0.00    +0.000 A 
ATOM     11  C   UNL     1       4.835   7.008  16.772  0.00  0.00    +0.000 A 
ATOM     12  N   UNL     1       5.852   6.517  16.065  0.00  0.00    +0.000 NA
ATOM     13  N   UNL     1       5.684   5.179  16.181  0.00  0.00    +0.000 N 
ATOM     14  C   UNL     1       6.671   4.281  15.639  0.00  0.00    +0.000 C 
ATOM     15  C   UNL     1       4.578   4.822  16.906  0.00  0.00    +0.000 A 
ATOM     16  N   UNL     1       4.157   3.582  17.202  0.00  0.00    +0.000 NA
ENDROOT
BRANCH   1  18
ATOM     17  C   UNL     1       1.070   2.368  18.831  0.00  0.00    +0.000 C 
ATOM     18  C   UNL     1       2.533   2.263  18.433  0.00  0.00    +0.000 C 
ENDBRANCH   1  18
BRANCH   7  19
ATOM     19  C   UNL     1       0.029   9.769  19.711  0.00  0.00    +0.000 C 
BRANCH  19  20
ATOM     20  C   UNL     1      -0.642  10.677  20.734  0.00  0.00    +0.000 A 
ATOM     21  N   UNL     1      -0.614  10.207  22.014  0.00  0.00    +0.000 NA
ATOM     22  C   UNL     1      -1.113  10.991  22.992  0.00  0.00    +0.000 A 
ATOM     23  C   UNL     1      -1.646  12.243  22.770  0.00  0.00    +0.000 A 
ATOM     24  C   UNL     1      -1.700  12.706  21.461  0.00  0.00    +0.000 A 
ATOM     25  C   UNL     1      -1.218  11.914  20.408  0.00  0.00    +0.000 A 
ATOM     26  C   UNL     1      -1.322  12.426  19.003  0.00  0.00    +0.000 C 
ENDBRANCH  19  20
ENDBRANCH   7  19
TORSDOF 3
ENDMDL
MODEL 9
REMARK VINA RESULT:      -7.2      1.699      2.162
REMARK  Name = 
REMARK  6 active torsions:
REMARK  status: ('A' for Active; 'I' for Inactive)
REMARK    1  A    between atoms: C_1  and  C_2
REMARK    2  A    between atoms: C_2  and  C_3
REMARK    3  A    between atoms: N_9  and  C_10
REMARK    4  A    between atoms: C_10  and  C_11
REMARK    5  A    between atoms: C_16  and  C_17
REMARK    6  A    between atoms: N_23  and  C_24
REMARK                            x       y       z     vdW  Elec       q    Type
REMARK                         _______ _______ _______ _____ _____    ______ ____
ROOT
ATOM      1  C   UNL     1       3.902   3.874  19.516  0.00  0.00    +0.000 A 
ATOM      2  N   UNL     1       3.057   4.936  19.540  0.00  0.00    +0.000 NA
ATOM      3  C   UNL     1       3.376   6.064  18.858  0.00  0.00    +0.000 A 
ATOM      4  N   UNL     1       2.568   7.173  18.903  0.00  0.00    +0.000 N 
ATOM      5  C   UNL     1       1.705   7.428  20.052  0.00  0.00    +0.000 C 
ATOM      6  C   UNL     1       1.582   8.974  20.239  0.00  0.00    +0.000 C 
ATOM      7  N   UNL     1       1.242   9.770  19.019  0.00  0.00    +0.000 NA
ATOM      8  C   UNL     1       2.131   9.340  17.910  0.00  0.00    +0.000 C 
ATOM      9  C   UNL     1       2.147   7.819  17.659  0.00  0.00    +0.000 C 
ATOM     10  C   UNL     1       4.620   6.090  18.211  0.00  0.00    +0.000 A 
ATOM     11  C   UNL     1       5.403   7.019  17.492  0.00  0.00    +0.000 A 
ATOM     12  N   UNL     1       6.591   6.534  17.130  0.00  0.00    +0.000 NA
ATOM     13  N   UNL     1       6.581   5.285  17.653  0.00  0.00    +0.000 N 
ATOM     14  C   UNL     1       7.762   4.464  17.572  0.00  0.00    +0.000 C 
ATOM     15  C   UNL     1       5.416   4.965  18.297  0.00  0.00    +0.000 A 
ATOM     16  N   UNL     1       5.114   3.816  18.922  0.00  0.00    +0.000 NA
ENDROOT
BRANCH   1  18
ATOM     17  C   UNL     1       1.970   2.458  20.202  0.00  0.00    +0.000 C 
ATOM     18  C   UNL     1       3.475   2.652  20.284  0.00  0.00    +0.000 C 
ENDBRANCH   1  18
BRANCH   7  19
ATOM     19  C   UNL     1      -0.188   9.600  18.689  0.00  0.00    +0.000 C 
BRANCH  19  20
ATOM     20  C   UNL     1      -1.138  10.690  19.168  0.00  0.00    +0.000 A 
ATOM     21  N   UNL     1      -0.654  11.454  20.189  0.00  0.00    +0.000 NA
ATOM     22  C   UNL     1      -1.399  12.495  20.615  0.00  0.00    +0.000 A 
ATOM     23  C   UNL     1      -2.622  12.831  20.073  0.00  0.00    +0.000 A 
ATOM     24  C   UNL     1      -3.126  12.031  19.055  0.00  0.00    +0.000 A 
ATOM     25  C   UNL     1      -2.398  10.922  18.598  0.00  0.00    +0.000 A 
ATOM     26  C   UNL     1      -2.984  10.059  17.521  0.00  0.00    +0.000 C 
ENDBRANCH  19  20
ENDBRANCH   7  19
TORSDOF 3
ENDMDL
