MODEL 1
REMARK VINA RESULT:      -7.8      0.000      0.000
REMARK  Name = 
REMARK  9 active torsions:
REMARK  status: ('A' for Active; 'I' for Inactive)
REMARK    1  A    between atoms: C_1  and  C_2
REMARK    2  A    between atoms: C_2  and  C_3
REMARK    3  A    between atoms: C_3  and  C_25
REMARK    4  A    between atoms: C_4  and  C_5
REMARK    5  A    between atoms: C_4  and  C_16
REMARK    6  A    between atoms: C_8  and  C_9
REMARK    7  A    between atoms: C_10  and  C_11
REMARK    8  A    between atoms: C_11  and  O_13
REMARK    9  A    between atoms: C_30  and  C_31
REMARK                            x       y       z     vdW  Elec       q    Type
REMARK                         _______ _______ _______ _____ _____    ______ ____
ROOT
ATOM      1  C   UNL     1       2.258   4.723  19.921  0.00  0.00    +0.000 C 
ATOM      2  C   UNL     1       2.687   5.940  19.464  0.00  0.00    +0.000 C 
ENDROOT
BRANCH   2   3
ATOM      3  C   UNL     1       2.147   7.184  19.925  0.00  0.00    +0.000 A 
ATOM      4  C   UNL     1       1.778   8.343  19.267  0.00  0.00    +0.000 A 
ATOM      5  C   UNL     1       1.149   9.218  20.197  0.00  0.00    +0.000 A 
ATOM      6  C   UNL     1       0.566  10.499  20.098  0.00  0.00    +0.000 A 
ATOM      7  C   UNL     1       0.028  11.105  21.241  0.00  0.00    +0.000 A 
ATOM      8  C   UNL     1       0.063  10.449  22.468  0.00  0.00    +0.000 A 
ATOM      9  C   UNL     1       0.618   9.167  22.587  0.00  0.00    +0.000 A 
ATOM     10  C   UNL     1       1.152   8.570  21.432  0.00  0.00    +0.000 A 
ATOM     11  N   UNL     1       1.728   7.327  21.234  0.00  0.00    +0.000 N 
ATOM     12  H   UNL     1       1.814   6.621  21.950  0.00  0.00    +0.000 HD
ENDBRANCH   2   3
BRANCH   1  13
ATOM     13  C   UNL     1       2.994   3.463  19.515  0.00  0.00    +0.000 A 
ATOM     14  C   UNL     1       3.907   2.913  20.439  0.00  0.00    +0.000 A 
ATOM     15  C   UNL     1       4.688   1.799  20.120  0.00  0.00    +0.000 A 
ATOM     16  C   UNL     1       4.561   1.202  18.871  0.00  0.00    +0.000 A 
ATOM     17  C   UNL     1       3.635   1.706  17.957  0.00  0.00    +0.000 A 
ATOM     18  C   UNL     1       2.839   2.828  18.266  0.00  0.00    +0.000 A 
ATOM     19  C   UNL     1       1.810   3.257  17.259  0.00  0.00    +0.000 C 
ENDBRANCH   1  13
BRANCH   2  20
ATOM     20  C   UNL     1       3.843   5.973  18.518  0.00  0.00    +0.000 A 
ATOM     21  C   UNL     1       3.657   6.411  17.203  0.00  0.00    +0.000 A 
ATOM     22  C   UNL     1       4.687   6.291  16.266  0.00  0.00    +0.000 A 
ATOM     23  C   UNL     1       5.931   5.768  16.632  0.00  0.00    +0.000 A 
ATOM     24  C   UNL     1       6.129   5.369  17.963  0.00  0.00    +0.000 A 
ATOM     25  C   UNL     1       5.098   5.484  18.900  0.00  0.00    +0.000 A 
BRANCH  23  26
ATOM     26  C   UNL     1       6.945   5.586  15.585  0.00  0.00    +0.000 C 
ATOM     27  C   UNL     1       6.671   5.369  14.289  0.00  0.00    +0.000 C 
BRANCH  27  28
ATOM     28  C   UNL     1       7.790   5.189  13.341  0.00  0.00    +0.000 C 
ATOM     29  O   UNL     1       8.866   5.753  13.419  0.00  0.00    +0.000 OA
BRANCH  28  30
ATOM     30  O   UNL     1       7.487   4.312  12.364  0.00  0.00    +0.000 OA
ATOM     31  H   UNL     1       7.187   3.435  12.665  0.00  0.00    +0.000 HD
ENDBRANCH  28  30
ENDBRANCH  27  28
ENDBRANCH  23  26
ENDBRANCH   2  20
BRANCH   1  33
ATOM     32  C   UNL     1       1.003   2.946  21.448  0.00  0.00    +0.000 C 
ATOM     33  C   UNL     1       1.136   4.351  20.884  0.00  0.00    +0.000 C 
ENDBRANCH   1  33
TORSDOF 7
ENDMDL
MODEL 2
REMARK VINA RESULT:      -7.6      6.497     11.945
REMARK  Name = 
REMARK  9 active torsions:
REMARK  status: ('A' for Active; 'I' for Inactive)
REMARK    1  A    between atoms: C_1  and  C_2
REMARK    2  A    between atoms: C_2  and  C_3
REMARK    3  A    between atoms: C_3  and  C_25
REMARK    4  A    between atoms: C_4  and  C_5
REMARK    5  A    between atoms: C_4  and  C_16
REMARK    6  A    between atoms: C_8  and  C_9
REMARK    7  A    between atoms: C_10  and  C_11
REMARK    8  A    between atoms: C_11  and  O_13
REMARK    9  A    between atoms: C_30  and  C_31
REMARK                            x       y       z     vdW  Elec       q    Type
REMARK                         _______ _______ _______ _____ _____    ______ ____
ROOT
ATOM      1  C   UNL     1       1.083  13.597  20.259  0.00  0.00    +0.000 C 
ATOM      2  C   UNL     1       0.238  12.519  20.243  0.00  0.00    +0.000 C 
ENDROOT
BRANCH   2   3
ATOM      3  C   UNL     1       0.645  11.212  19.822  0.00  0.00    +0.000 A 
ATOM      4  C   UNL     1       1.064  10.713  18.601  0.00  0.00    +0.000 A 
ATOM      5  C   UNL     1       1.499   9.370  18.781  0.00  0.00    +0.000 A 
ATOM      6  C   UNL     1       2.036   8.390  17.919  0.00  0.00    +0.000 A 
ATOM      7  C   UNL     1       2.360   7.125  18.426  0.00  0.00    +0.000 A 
ATOM      8  C   UNL     1       2.159   6.833  19.772  0.00  0.00    +0.000 A 
ATOM      9  C   UNL     1       1.647   7.798  20.653  0.00  0.00    +0.000 A 
ATOM     10  C   UNL     1       1.328   9.063  20.130  0.00  0.00    +0.000 A 
ATOM     11  N   UNL     1       0.845  10.205  20.745  0.00  0.00    +0.000 N 
ATOM     12  H   UNL     1       0.677  10.288  21.737  0.00  0.00    +0.000 HD
ENDBRANCH   2   3
BRANCH   1  13
ATOM     13  C   UNL     1       0.628  14.902  20.879  0.00  0.00    +0.000 A 
ATOM     14  C   UNL     1       0.887  15.098  22.252  0.00  0.00    +0.000 A 
ATOM     15  C   UNL     1       0.434  16.235  22.926  0.00  0.00    +0.000 A 
ATOM     16  C   UNL     1      -0.276  17.210  22.235  0.00  0.00    +0.000 A 
ATOM     17  C   UNL     1      -0.508  17.055  20.868  0.00  0.00    +0.000 A 
ATOM     18  C   UNL     1      -0.055  15.914  20.174  0.00  0.00    +0.000 A 
ATOM     19  C   UNL     1      -0.274  15.862  18.689  0.00  0.00    +0.000 C 
ENDBRANCH   1  13
BRANCH   2  20
ATOM     20  C   UNL     1      -1.142  12.694  20.789  0.00  0.00    +0.000 A 
ATOM     21  C   UNL     1      -1.388  12.480  22.149  0.00  0.00    +0.000 A 
ATOM     22  C   UNL     1      -2.696  12.479  22.639  0.00  0.00    +0.000 A 
ATOM     23  C   UNL     1      -3.780  12.727  21.789  0.00  0.00    +0.000 A 
ATOM     24  C   UNL     1      -3.527  12.984  20.433  0.00  0.00    +0.000 A 
ATOM     25  C   UNL     1      -2.218  12.981  19.940  0.00  0.00    +0.000 A 
BRANCH  23  26
ATOM     26  C   UNL     1      -5.135  12.626  22.343  0.00  0.00    +0.000 C 
ATOM     27  C   UNL     1      -5.451  12.841  23.631  0.00  0.00    +0.000 C 
BRANCH  27  28
ATOM     28  C   UNL     1      -6.857  12.692  24.059  0.00  0.00    +0.000 C 
ATOM     29  O   UNL     1      -7.525  11.684  23.915  0.00  0.00    +0.000 OA
BRANCH  28  30
ATOM     30  O   UNL     1      -7.328  13.812  24.640  0.00  0.00    +0.000 OA
ATOM     31  H   UNL     1      -7.418  14.584  24.054  0.00  0.00    +0.000 HD
ENDBRANCH  28  30
ENDBRANCH  27  28
ENDBRANCH  23  26
ENDBRANCH   2  20
BRANCH   1  33
ATOM     32  C   UNL     1       2.886  13.880  18.327  0.00  0.00    +0.000 C 
ATOM     33  C   UNL     1       2.529  13.746  19.798  0.00  0.00    +0.000 C 
ENDBRANCH   1  33
TORSDOF 7
ENDMDL
MODEL 3
REMARK VINA RESULT:      -7.5      0.846      1.274
REMARK  Name = 
REMARK  9 active torsions:
REMARK  status: ('A' for Active; 'I' for Inactive)
REMARK    1  A    between atoms: C_1  and  C_2
REMARK    2  A    between atoms: C_2  and  C_3
REMARK    3  A    between atoms: C_3  and  C_25
REMARK    4  A    between atoms: C_4  and  C_5
REMARK    5  A    between atoms: C_4  and  C_16
REMARK    6  A    between atoms: C_8  and  C_9
REMARK    7  A    between atoms: C_10  and  C_11
REMARK    8  A    between atoms: C_11  and  O_13
REMARK    9  A    between atoms: C_30  and  C_31
REMARK                            x       y       z     vdW  Elec       q    Type
REMARK                         _______ _______ _______ _____ _____    ______ ____
ROOT
ATOM      1  C   UNL     1       2.614   4.321  20.082  0.00  0.00    +0.000 C 
ATOM      2  C   UNL     1       2.972   5.401  19.318  0.00  0.00    +0.000 C 
ENDROOT
BRANCH   2   3
ATOM      3  C   UNL     1       2.467   6.722  19.545  0.00  0.00    +0.000 A 
ATOM      4  C   UNL     1       2.195   7.777  18.692  0.00  0.00    +0.000 A 
ATOM      5  C   UNL     1       1.556   8.811  19.433  0.00  0.00    +0.000 A 
ATOM      6  C   UNL     1       1.043  10.082  19.099  0.00  0.00    +0.000 A 
ATOM      7  C   UNL     1       0.468  10.880  20.096  0.00  0.00    +0.000 A 
ATOM      8  C   UNL     1       0.397  10.425  21.409  0.00  0.00    +0.000 A 
ATOM      9  C   UNL     1       0.880   9.156  21.761  0.00  0.00    +0.000 A 
ATOM     10  C   UNL     1       1.453   8.365  20.750  0.00  0.00    +0.000 A 
ATOM     11  N   UNL     1       1.978   7.085  20.785  0.00  0.00    +0.000 N 
ATOM     12  H   UNL     1       1.985   6.497  21.605  0.00  0.00    +0.000 HD
ENDBRANCH   2   3
BRANCH   1  13
ATOM     13  C   UNL     1       3.320   2.996  19.890  0.00  0.00    +0.000 A 
ATOM     14  C   UNL     1       4.433   2.724  20.712  0.00  0.00    +0.000 A 
ATOM     15  C   UNL     1       5.194   1.562  20.552  0.00  0.00    +0.000 A 
ATOM     16  C   UNL     1       4.845   0.638  19.574  0.00  0.00    +0.000 A 
ATOM     17  C   UNL     1       3.723   0.869  18.776  0.00  0.00    +0.000 A 
ATOM     18  C   UNL     1       2.946   2.036  18.928  0.00  0.00    +0.000 A 
ATOM     19  C   UNL     1       1.708   2.169  18.086  0.00  0.00    +0.000 C 
ENDBRANCH   1  13
BRANCH   2  20
ATOM     20  C   UNL     1       4.015   5.208  18.267  0.00  0.00    +0.000 A 
ATOM     21  C   UNL     1       5.305   5.714  18.461  0.00  0.00    +0.000 A 
ATOM     22  C   UNL     1       6.239   5.687  17.423  0.00  0.00    +0.000 A 
ATOM     23  C   UNL     1       5.917   5.121  16.184  0.00  0.00    +0.000 A 
ATOM     24  C   UNL     1       4.637   4.575  16.006  0.00  0.00    +0.000 A 
ATOM     25  C   UNL     1       3.699   4.607  17.043  0.00  0.00    +0.000 A 
BRANCH  23  26
ATOM     26  C   UNL     1       6.909   5.199  15.105  0.00  0.00    +0.000 C 
ATOM     27  C   UNL     1       6.640   4.992  13.806  0.00  0.00    +0.000 C 
BRANCH  27  28
ATOM     28  C   UNL     1       7.738   5.089  12.822  0.00  0.00    +0.000 C 
ATOM     29  O   UNL     1       7.741   4.554  11.728  0.00  0.00    +0.000 OA
BRANCH  28  30
ATOM     30  O   UNL     1       8.754   5.850  13.273  0.00  0.00    +0.000 OA
ATOM     31  H   UNL     1       9.051   5.658  14.180  0.00  0.00    +0.000 HD
ENDBRANCH  28  30
ENDBRANCH  27  28
ENDBRANCH  23  26
ENDBRANCH   2  20
BRANCH   1  33
ATOM     32  C   UNL     1       1.188   2.829  21.755  0.00  0.00    +0.000 C 
ATOM     33  C   UNL     1       1.610   4.187  21.222  0.00  0.00    +0.000 C 
ENDBRANCH   1  33
TORSDOF 7
ENDMDL
MODEL 4
REMARK VINA RESULT:      -7.5      6.332     11.666
REMARK  Name = 
REMARK  9 active torsions:
REMARK  status: ('A' for Active; 'I' for Inactive)
REMARK    1  A    between atoms: C_1  and  C_2
REMARK    2  A    between atoms: C_2  and  C_3
REMARK    3  A    between atoms: C_3  and  C_25
REMARK    4  A    between atoms: C_4  and  C_5
REMARK    5  A    between atoms: C_4  and  C_16
REMARK    6  A    between atoms: C_8  and  C_9
REMARK    7  A    between atoms: C_10  and  C_11
REMARK    8  A    between atoms: C_11  and  O_13
REMARK    9  A    between atoms: C_30  and  C_31
REMARK                            x       y       z     vdW  Elec       q    Type
REMARK                         _______ _______ _______ _____ _____    ______ ____
ROOT
ATOM      1  C   UNL     1       1.266  13.230  19.058  0.00  0.00    +0.000 C 
ATOM      2  C   UNL     1       0.462  12.167  19.374  0.00  0.00    +0.000 C 
ENDROOT
BRANCH   2   3
ATOM      3  C   UNL     1       0.869  10.803  19.215  0.00  0.00    +0.000 A 
ATOM      4  C   UNL     1       1.418  10.110  18.151  0.00  0.00    +0.000 A 
ATOM      5  C   UNL     1       1.777   8.805  18.591  0.00  0.00    +0.000 A 
ATOM      6  C   UNL     1       2.379   7.692  17.968  0.00  0.00    +0.000 A 
ATOM      7  C   UNL     1       2.589   6.518  18.702  0.00  0.00    +0.000 A 
ATOM      8  C   UNL     1       2.211   6.446  20.040  0.00  0.00    +0.000 A 
ATOM      9  C   UNL     1       1.630   7.546  20.687  0.00  0.00    +0.000 A 
ATOM     10  C   UNL     1       1.427   8.718  19.938  0.00  0.00    +0.000 A 
ATOM     11  N   UNL     1       0.913   9.951  20.302  0.00  0.00    +0.000 N 
ATOM     12  H   UNL     1       0.626  10.193  21.238  0.00  0.00    +0.000 HD
ENDBRANCH   2   3
BRANCH   1  13
ATOM     13  C   UNL     1       0.832  14.636  19.414  0.00  0.00    +0.000 A 
ATOM     14  C   UNL     1      -0.027  15.302  18.516  0.00  0.00    +0.000 A 
ATOM     15  C   UNL     1      -0.415  16.629  18.723  0.00  0.00    +0.000 A 
ATOM     16  C   UNL     1       0.038  17.313  19.844  0.00  0.00    +0.000 A 
ATOM     17  C   UNL     1       0.857  16.660  20.766  0.00  0.00    +0.000 A 
ATOM     18  C   UNL     1       1.255  15.322  20.571  0.00  0.00    +0.000 A 
ATOM     19  C   UNL     1       2.069  14.667  21.651  0.00  0.00    +0.000 C 
ENDBRANCH   1  13
BRANCH   2  20
ATOM     20  C   UNL     1      -0.861  12.447  20.009  0.00  0.00    +0.000 A 
ATOM     21  C   UNL     1      -0.943  12.659  21.389  0.00  0.00    +0.000 A 
ATOM     22  C   UNL     1      -2.187  12.756  22.017  0.00  0.00    +0.000 A 
ATOM     23  C   UNL     1      -3.371  12.681  21.276  0.00  0.00    +0.000 A 
ATOM     24  C   UNL     1      -3.286  12.512  19.886  0.00  0.00    +0.000 A 
ATOM     25  C   UNL     1      -2.042  12.408  19.257  0.00  0.00    +0.000 A 
BRANCH  23  26
ATOM     26  C   UNL     1      -4.648  12.703  22.001  0.00  0.00    +0.000 C 
ATOM     27  C   UNL     1      -4.775  12.958  23.313  0.00  0.00    +0.000 C 
BRANCH  27  28
ATOM     28  C   UNL     1      -6.122  12.934  23.921  0.00  0.00    +0.000 C 
ATOM     29  O   UNL     1      -6.835  11.949  23.994  0.00  0.00    +0.000 OA
BRANCH  28  30
ATOM     30  O   UNL     1      -6.481  14.141  24.398  0.00  0.00    +0.000 OA
ATOM     31  H   UNL     1      -6.124  14.907  23.915  0.00  0.00    +0.000 HD
ENDBRANCH  28  30
ENDBRANCH  27  28
ENDBRANCH  23  26
ENDBRANCH   2  20
BRANCH   1  33
ATOM     32  C   UNL     1       3.300  14.605  18.040  0.00  0.00    +0.000 C 
ATOM     33  C   UNL     1       2.653  13.285  18.424  0.00  0.00    +0.000 C 
ENDBRANCH   1  33
TORSDOF 7
ENDMDL
MODEL 5
REMARK VINA RESULT:      -7.4      6.494     11.849
REMARK  Name = 
REMARK  9 active torsions:
REMARK  status: ('A' for Active; 'I' for Inactive)
REMARK    1  A    between atoms: C_1  and  C_2
REMARK    2  A    between atoms: C_2  and  C_3
REMARK    3  A    between atoms: C_3  and  C_25
REMARK    4  A    between atoms: C_4  and  C_5
REMARK    5  A    between atoms: C_4  and  C_16
REMARK    6  A    between atoms: C_8  and  C_9
REMARK    7  A    between atoms: C_10  and  C_11
REMARK    8  A    between atoms: C_11  and  O_13
REMARK    9  A    between atoms: C_30  and  C_31
REMARK                            x       y       z     vdW  Elec       q    Type
REMARK                         _______ _______ _______ _____ _____    ______ ____
ROOT
ATOM      1  C   UNL     1       0.896  13.241  20.271  0.00  0.00    +0.000 C 
ATOM      2  C   UNL     1       0.105  12.127  20.189  0.00  0.00    +0.000 C 
ENDROOT
BRANCH   2   3
ATOM      3  C   UNL     1       0.594  10.849  19.765  0.00  0.00    +0.000 A 
ATOM      4  C   UNL     1       1.055  10.384  18.547  0.00  0.00    +0.000 A 
ATOM      5  C   UNL     1       1.568   9.067  18.724  0.00  0.00    +0.000 A 
ATOM      6  C   UNL     1       2.172   8.127  17.863  0.00  0.00    +0.000 A 
ATOM      7  C   UNL     1       2.565   6.880  18.367  0.00  0.00    +0.000 A 
ATOM      8  C   UNL     1       2.366   6.568  19.709  0.00  0.00    +0.000 A 
ATOM      9  C   UNL     1       1.788   7.495  20.588  0.00  0.00    +0.000 A 
ATOM     10  C   UNL     1       1.400   8.742  20.069  0.00  0.00    +0.000 A 
ATOM     11  N   UNL     1       0.842   9.849  20.685  0.00  0.00    +0.000 N 
ATOM     12  H   UNL     1       0.659   9.916  21.675  0.00  0.00    +0.000 HD
ENDBRANCH   2   3
BRANCH   1  13
ATOM     13  C   UNL     1       0.350  14.510  20.891  0.00  0.00    +0.000 A 
ATOM     14  C   UNL     1       0.464  14.656  22.289  0.00  0.00    +0.000 A 
ATOM     15  C   UNL     1      -0.082  15.756  22.957  0.00  0.00    +0.000 A 
ATOM     16  C   UNL     1      -0.743  16.742  22.235  0.00  0.00    +0.000 A 
ATOM     17  C   UNL     1      -0.832  16.637  20.846  0.00  0.00    +0.000 A 
ATOM     18  C   UNL     1      -0.284  15.535  20.159  0.00  0.00    +0.000 A 
ATOM     19  C   UNL     1      -0.352  15.538  18.658  0.00  0.00    +0.000 C 
ENDBRANCH   1  13
BRANCH   2  20
ATOM     20  C   UNL     1      -1.309  12.227  20.663  0.00  0.00    +0.000 A 
ATOM     21  C   UNL     1      -2.324  12.570  19.765  0.00  0.00    +0.000 A 
ATOM     22  C   UNL     1      -3.618  12.828  20.225  0.00  0.00    +0.000 A 
ATOM     23  C   UNL     1      -3.931  12.712  21.584  0.00  0.00    +0.000 A 
ATOM     24  C   UNL     1      -2.921  12.325  22.477  0.00  0.00    +0.000 A 
ATOM     25  C   UNL     1      -1.624  12.072  22.018  0.00  0.00    +0.000 A 
BRANCH  23  26
ATOM     26  C   UNL     1      -5.284  13.080  22.020  0.00  0.00    +0.000 C 
ATOM     27  C   UNL     1      -5.641  13.297  23.295  0.00  0.00    +0.000 C 
BRANCH  27  28
ATOM     28  C   UNL     1      -7.045  13.648  23.597  0.00  0.00    +0.000 C 
ATOM     29  O   UNL     1      -7.789  14.247  22.842  0.00  0.00    +0.000 OA
BRANCH  28  30
ATOM     30  O   UNL     1      -7.420  13.221  24.818  0.00  0.00    +0.000 OA
ATOM     31  H   UNL     1      -8.283  12.773  24.859  0.00  0.00    +0.000 HD
ENDBRANCH  28  30
ENDBRANCH  27  28
ENDBRANCH  23  26
ENDBRANCH   2  20
BRANCH   1  33
ATOM     32  C   UNL     1       2.787  13.624  18.443  0.00  0.00    +0.000 C 
ATOM     33  C   UNL     1       2.357  13.465  19.892  0.00  0.00    +0.000 C 
ENDBRANCH   1  33
TORSDOF 7
ENDMDL
MODEL 6
REMARK VINA RESULT:      -7.4      6.584     12.040
REMARK  Name = 
REMARK  9 active torsions:
REMARK  status: ('A' for Active; 'I' for Inactive)
REMARK    1  A    between atoms: C_1  and  C_2
REMARK    2  A    between atoms: C_2  and  C_3
REMARK    3  A    between atoms: C_3  and  C_25
REMARK    4  A    between atoms: C_4  and  C_5
REMARK    5  A    between atoms: C_4  and  C_16
REMARK    6  A    between atoms: C_8  and  C_9
REMARK    7  A    between atoms: C_10  and  C_11
REMARK    8  A    between atoms: C_11  and  O_13
REMARK    9  A    between atoms: C_30  and  C_31
REMARK                            x       y       z     vdW  Elec       q    Type
REMARK                         _______ _______ _______ _____ _____    ______ ____
ROOT
ATOM      1  C   UNL     1       0.834  13.384  20.765  0.00  0.00    +0.000 C 
ATOM      2  C   UNL     1       0.121  12.215  20.776  0.00  0.00    +0.000 C 
ENDROOT
BRANCH   2   3
ATOM      3  C   UNL     1       0.705  10.940  20.485  0.00  0.00    +0.000 A 
ATOM      4  C   UNL     1       0.882   9.799  21.246  0.00  0.00    +0.000 A 
ATOM      5  C   UNL     1       1.380   8.761  20.408  0.00  0.00    +0.000 A 
ATOM      6  C   UNL     1       1.721   7.409  20.619  0.00  0.00    +0.000 A 
ATOM      7  C   UNL     1       2.206   6.642  19.552  0.00  0.00    +0.000 A 
ATOM      8  C   UNL     1       2.348   7.206  18.287  0.00  0.00    +0.000 A 
ATOM      9  C   UNL     1       1.994   8.542  18.047  0.00  0.00    +0.000 A 
ATOM     10  C   UNL     1       1.508   9.299  19.127  0.00  0.00    +0.000 A 
ATOM     11  N   UNL     1       1.059  10.606  19.192  0.00  0.00    +0.000 N 
ATOM     12  H   UNL     1       0.990  11.222  18.396  0.00  0.00    +0.000 HD
ENDBRANCH   2   3
BRANCH   1  13
ATOM     13  C   UNL     1       0.189  14.665  21.250  0.00  0.00    +0.000 A 
ATOM     14  C   UNL     1       0.259  14.950  22.630  0.00  0.00    +0.000 A 
ATOM     15  C   UNL     1      -0.376  16.068  23.179  0.00  0.00    +0.000 A 
ATOM     16  C   UNL     1      -1.084  16.934  22.354  0.00  0.00    +0.000 A 
ATOM     17  C   UNL     1      -1.133  16.692  20.981  0.00  0.00    +0.000 A 
ATOM     18  C   UNL     1      -0.495  15.570  20.412  0.00  0.00    +0.000 A 
ATOM     19  C   UNL     1      -0.527  15.427  18.917  0.00  0.00    +0.000 C 
ENDBRANCH   1  13
BRANCH   2  20
ATOM     20  C   UNL     1      -1.307  12.261  21.213  0.00  0.00    +0.000 A 
ATOM     21  C   UNL     1      -2.310  12.575  20.290  0.00  0.00    +0.000 A 
ATOM     22  C   UNL     1      -3.623  12.783  20.718  0.00  0.00    +0.000 A 
ATOM     23  C   UNL     1      -3.968  12.647  22.068  0.00  0.00    +0.000 A 
ATOM     24  C   UNL     1      -2.968  12.290  22.985  0.00  0.00    +0.000 A 
ATOM     25  C   UNL     1      -1.652  12.086  22.559  0.00  0.00    +0.000 A 
BRANCH  23  26
ATOM     26  C   UNL     1      -5.344  12.962  22.470  0.00  0.00    +0.000 C 
ATOM     27  C   UNL     1      -5.735  13.191  23.733  0.00  0.00    +0.000 C 
BRANCH  27  28
ATOM     28  C   UNL     1      -7.158  13.486  24.001  0.00  0.00    +0.000 C 
ATOM     29  O   UNL     1      -7.612  14.596  24.211  0.00  0.00    +0.000 OA
BRANCH  28  30
ATOM     30  O   UNL     1      -7.916  12.372  23.982  0.00  0.00    +0.000 OA
ATOM     31  H   UNL     1      -8.711  12.395  24.543  0.00  0.00    +0.000 HD
ENDBRANCH  28  30
ENDBRANCH  27  28
ENDBRANCH  23  26
ENDBRANCH   2  20
BRANCH   1  33
ATOM     32  C   UNL     1       2.677  14.084  18.982  0.00  0.00    +0.000 C 
ATOM     33  C   UNL     1       2.284  13.672  20.391  0.00  0.00    +0.000 C 
ENDBRANCH   1  33
TORSDOF 7
ENDMDL
MODEL 7
REMARK VINA RESULT:      -7.3      5.904      9.067
REMARK  Name = 
REMARK  9 active torsions:
REMARK  status: ('A' for Active; 'I' for Inactive)
REMARK    1  A    between atoms: C_1  and  C_2
REMARK    2  A    between atoms: C_2  and  C_3
REMARK    3  A    between atoms: C_3  and  C_25
REMARK    4  A    between atoms: C_4  and  C_5
REMARK    5  A    between atoms: C_4  and  C_16
REMARK    6  A    between atoms: C_8  and  C_9
REMARK    7  A    between atoms: C_10  and  C_11
REMARK    8  A    between atoms: C_11  and  O_13
REMARK    9  A    between atoms: C_30  and  C_31
REMARK                            x       y       z     vdW  Elec       q    Type
REMARK                         _______ _______ _______ _____ _____    ______ ____
ROOT
ATOM      1  C   UNL     1      -0.867  11.473  20.471  0.00  0.00    +0.000 C 
ATOM      2  C   UNL     1      -2.016  11.771  19.787  0.00  0.00    +0.000 C 
ENDROOT
BRANCH   2   3
ATOM      3  C   UNL     1      -2.967  12.741  20.239  0.00  0.00    +0.000 A 
ATOM      4  C   UNL     1      -4.134  12.632  20.975  0.00  0.00    +0.000 A 
ATOM      5  C   UNL     1      -4.608  13.940  21.276  0.00  0.00    +0.000 A 
ATOM      6  C   UNL     1      -5.714  14.440  21.997  0.00  0.00    +0.000 A 
ATOM      7  C   UNL     1      -5.905  15.824  22.099  0.00  0.00    +0.000 A 
ATOM      8  C   UNL     1      -5.010  16.705  21.498  0.00  0.00    +0.000 A 
ATOM      9  C   UNL     1      -3.892  16.232  20.795  0.00  0.00    +0.000 A 
ATOM     10  C   UNL     1      -3.712  14.841  20.703  0.00  0.00    +0.000 A 
ATOM     11  N   UNL     1      -2.709  14.092  20.112  0.00  0.00    +0.000 N 
ATOM     12  H   UNL     1      -1.895  14.486  19.665  0.00  0.00    +0.000 HD
ENDBRANCH   2   3
BRANCH   1  13
ATOM     13  C   UNL     1       0.170  10.565  19.844  0.00  0.00    +0.000 A 
ATOM     14  C   UNL     1       0.934  11.084  18.778  0.00  0.00    +0.000 A 
ATOM     15  C   UNL     1       1.857  10.294  18.087  0.00  0.00    +0.000 A 
ATOM     16  C   UNL     1       2.046   8.969  18.460  0.00  0.00    +0.000 A 
ATOM     17  C   UNL     1       1.329   8.447  19.538  0.00  0.00    +0.000 A 
ATOM     18  C   UNL     1       0.396   9.233  20.245  0.00  0.00    +0.000 A 
ATOM     19  C   UNL     1      -0.273   8.621  21.443  0.00  0.00    +0.000 C 
ENDBRANCH   1  13
BRANCH   2  20
ATOM     20  C   UNL     1      -2.233  11.127  18.456  0.00  0.00    +0.000 A 
ATOM     21  C   UNL     1      -2.032  11.862  17.283  0.00  0.00    +0.000 A 
ATOM     22  C   UNL     1      -2.389  11.325  16.043  0.00  0.00    +0.000 A 
ATOM     23  C   UNL     1      -2.918  10.034  15.947  0.00  0.00    +0.000 A 
ATOM     24  C   UNL     1      -3.079   9.283  17.121  0.00  0.00    +0.000 A 
ATOM     25  C   UNL     1      -2.727   9.820  18.363  0.00  0.00    +0.000 A 
BRANCH  23  26
ATOM     26  C   UNL     1      -3.355   9.558  14.629  0.00  0.00    +0.000 C 
ATOM     27  C   UNL     1      -4.104  10.270  13.771  0.00  0.00    +0.000 C 
BRANCH  27  28
ATOM     28  C   UNL     1      -4.486   9.663  12.479  0.00  0.00    +0.000 C 
ATOM     29  O   UNL     1      -3.729   9.493  11.540  0.00  0.00    +0.000 OA
BRANCH  28  30
ATOM     30  O   UNL     1      -5.785   9.307  12.453  0.00  0.00    +0.000 OA
ATOM     31  H   UNL     1      -6.417  10.010  12.686  0.00  0.00    +0.000 HD
ENDBRANCH  28  30
ENDBRANCH  27  28
ENDBRANCH  23  26
ENDBRANCH   2  20
BRANCH   1  33
ATOM     32  C   UNL     1      -1.161  11.794  23.093  0.00  0.00    +0.000 C 
ATOM     33  C   UNL     1      -0.348  11.960  21.820  0.00  0.00    +0.000 C 
ENDBRANCH   1  33
TORSDOF 7
ENDMDL
MODEL 8
REMARK VINA RESULT:      -7.3      4.759      9.298
REMARK  Name = 
REMARK  9 active torsions:
REMARK  status: ('A' for Active; 'I' for Inactive)
REMARK    1  A    between atoms: C_1  and  C_2
REMARK    2  A    between atoms: C_2  and  C_3
REMARK    3  A    between atoms: C_3  and  C_25
REMARK    4  A    between atoms: C_4  and  C_5
REMARK    5  A    between atoms: C_4  and  C_16
REMARK    6  A    between atoms: C_8  and  C_9
REMARK    7  A    between atoms: C_10  and  C_11
REMARK    8  A    between atoms: C_11  and  O_13
REMARK    9  A    between atoms: C_30  and  C_31
REMARK                            x       y       z     vdW  Elec       q    Type
REMARK                         _______ _______ _______ _____ _____    ______ ____
ROOT
ATOM      1  C   UNL     1      -0.767  14.043  19.907  0.00  0.00    +0.000 C 
ATOM      2  C   UNL     1      -1.347  12.816  20.094  0.00  0.00    +0.000 C 
ENDROOT
BRANCH   2   3
ATOM      3  C   UNL     1      -2.764  12.612  20.095  0.00  0.00    +0.000 A 
ATOM      4  C   UNL     1      -3.736  12.824  21.057  0.00  0.00    +0.000 A 
ATOM      5  C   UNL     1      -5.015  12.598  20.472  0.00  0.00    +0.000 A 
ATOM      6  C   UNL     1      -6.340  12.679  20.950  0.00  0.00    +0.000 A 
ATOM      7  C   UNL     1      -7.405  12.373  20.094  0.00  0.00    +0.000 A 
ATOM      8  C   UNL     1      -7.163  11.993  18.777  0.00  0.00    +0.000 A 
ATOM      9  C   UNL     1      -5.856  11.927  18.272  0.00  0.00    +0.000 A 
ATOM     10  C   UNL     1      -4.797  12.239  19.142  0.00  0.00    +0.000 A 
ATOM     11  N   UNL     1      -3.430  12.290  18.929  0.00  0.00    +0.000 N 
ATOM     12  H   UNL     1      -2.989  12.127  18.037  0.00  0.00    +0.000 HD
ENDBRANCH   2   3
BRANCH   1  13
ATOM     13  C   UNL     1       0.734  14.151  19.746  0.00  0.00    +0.000 A 
ATOM     14  C   UNL     1       1.276  13.883  18.471  0.00  0.00    +0.000 A 
ATOM     15  C   UNL     1       2.656  13.880  18.249  0.00  0.00    +0.000 A 
ATOM     16  C   UNL     1       3.524  14.161  19.297  0.00  0.00    +0.000 A 
ATOM     17  C   UNL     1       3.008  14.469  20.556  0.00  0.00    +0.000 A 
ATOM     18  C   UNL     1       1.618  14.477  20.795  0.00  0.00    +0.000 A 
ATOM     19  C   UNL     1       1.142  14.898  22.156  0.00  0.00    +0.000 C 
ENDBRANCH   1  13
BRANCH   2  20
ATOM     20  C   UNL     1      -0.455  11.622  20.197  0.00  0.00    +0.000 A 
ATOM     21  C   UNL     1      -0.165  10.865  19.057  0.00  0.00    +0.000 A 
ATOM     22  C   UNL     1       0.529   9.658  19.168  0.00  0.00    +0.000 A 
ATOM     23  C   UNL     1       0.978   9.201  20.412  0.00  0.00    +0.000 A 
ATOM     24  C   UNL     1       0.723   9.983  21.548  0.00  0.00    +0.000 A 
ATOM     25  C   UNL     1       0.024  11.189  21.440  0.00  0.00    +0.000 A 
BRANCH  23  26
ATOM     26  C   UNL     1       1.624   7.884  20.477  0.00  0.00    +0.000 C 
ATOM     27  C   UNL     1       2.288   7.310  19.461  0.00  0.00    +0.000 C 
BRANCH  27  28
ATOM     28  C   UNL     1       2.881   5.971  19.658  0.00  0.00    +0.000 C 
ATOM     29  O   UNL     1       3.519   5.362  18.819  0.00  0.00    +0.000 OA
BRANCH  28  30
ATOM     30  O   UNL     1       2.639   5.489  20.893  0.00  0.00    +0.000 OA
ATOM     31  H   UNL     1       1.775   5.728  21.275  0.00  0.00    +0.000 HD
ENDBRANCH  28  30
ENDBRANCH  27  28
ENDBRANCH  23  26
ENDBRANCH   2  20
BRANCH   1  33
ATOM     32  C   UNL     1      -0.716  16.508  18.913  0.00  0.00    +0.000 C 
ATOM     33  C   UNL     1      -1.382  15.430  19.752  0.00  0.00    +0.000 C 
ENDBRANCH   1  33
TORSDOF 7
ENDMDL
MODEL 9
REMARK VINA RESULT:      -7.3      6.575     12.087
REMARK  Name = 
REMARK  9 active torsions:
REMARK  status: ('A' for Active; 'I' for Inactive)
REMARK    1  A    between atoms: C_1  and  C_2
REMARK    2  A    between atoms: C_2  and  C_3
REMARK    3  A    between atoms: C_3  and  C_25
REMARK    4  A    between atoms: C_4  and  C_5
REMARK    5  A    between atoms: C_4  and  C_16
REMARK    6  A    between atoms: C_8  and  C_9
REMARK    7  A    between atoms: C_10  and  C_11
REMARK    8  A    between atoms: C_11  and  O_13
REMARK    9  A    between atoms: C_30  and  C_31
REMARK                            x       y       z     vdW  Elec       q    Type
REMARK                         _______ _______ _______ _____ _____    ______ ____
ROOT
ATOM      1  C   UNL     1       0.907  13.820  19.417  0.00  0.00    +0.000 C 
ATOM      2  C   UNL     1       0.213  12.695  19.774  0.00  0.00    +0.000 C 
ENDROOT
BRANCH   2   3
ATOM      3  C   UNL     1       0.771  11.377  19.709  0.00  0.00    +0.000 A 
ATOM      4  C   UNL     1       0.885  10.365  20.645  0.00  0.00    +0.000 A 
ATOM      5  C   UNL     1       1.385   9.199  19.999  0.00  0.00    +0.000 A 
ATOM      6  C   UNL     1       1.680   7.889  20.432  0.00  0.00    +0.000 A 
ATOM      7  C   UNL     1       2.184   6.955  19.518  0.00  0.00    +0.000 A 
ATOM      8  C   UNL     1       2.392   7.312  18.189  0.00  0.00    +0.000 A 
ATOM      9  C   UNL     1       2.087   8.601  17.730  0.00  0.00    +0.000 A 
ATOM     10  C   UNL     1       1.579   9.527  18.658  0.00  0.00    +0.000 A 
ATOM     11  N   UNL     1       1.166  10.839  18.500  0.00  0.00    +0.000 N 
ATOM     12  H   UNL     1       1.146  11.325  17.616  0.00  0.00    +0.000 HD
ENDBRANCH   2   3
BRANCH   1  13
ATOM     13  C   UNL     1       0.311  15.187  19.676  0.00  0.00    +0.000 A 
ATOM     14  C   UNL     1      -0.419  15.791  18.631  0.00  0.00    +0.000 A 
ATOM     15  C   UNL     1      -0.937  17.083  18.752  0.00  0.00    +0.000 A 
ATOM     16  C   UNL     1      -0.748  17.795  19.931  0.00  0.00    +0.000 A 
ATOM     17  C   UNL     1      -0.064  17.201  20.993  0.00  0.00    +0.000 A 
ATOM     18  C   UNL     1       0.462  15.897  20.885  0.00  0.00    +0.000 A 
ATOM     19  C   UNL     1       1.113  15.300  22.101  0.00  0.00    +0.000 C 
ENDBRANCH   1  13
BRANCH   2  20
ATOM     20  C   UNL     1      -1.154  12.861  20.354  0.00  0.00    +0.000 A 
ATOM     21  C   UNL     1      -1.314  12.995  21.737  0.00  0.00    +0.000 A 
ATOM     22  C   UNL     1      -2.591  12.985  22.305  0.00  0.00    +0.000 A 
ATOM     23  C   UNL     1      -3.732  12.880  21.501  0.00  0.00    +0.000 A 
ATOM     24  C   UNL     1      -3.570  12.790  20.111  0.00  0.00    +0.000 A 
ATOM     25  C   UNL     1      -2.292  12.794  19.542  0.00  0.00    +0.000 A 
BRANCH  23  26
ATOM     26  C   UNL     1      -5.040  12.787  22.160  0.00  0.00    +0.000 C 
ATOM     27  C   UNL     1      -5.234  12.877  23.486  0.00  0.00    +0.000 C 
BRANCH  27  28
ATOM     28  C   UNL     1      -6.607  12.753  24.019  0.00  0.00    +0.000 C 
ATOM     29  O   UNL     1      -7.265  11.728  24.015  0.00  0.00    +0.000 OA
BRANCH  28  30
ATOM     30  O   UNL     1      -7.058  13.917  24.525  0.00  0.00    +0.000 OA
ATOM     31  H   UNL     1      -6.627  14.213  25.347  0.00  0.00    +0.000 HD
ENDBRANCH  28  30
ENDBRANCH  27  28
ENDBRANCH  23  26
ENDBRANCH   2  20
BRANCH   1  33
ATOM     32  C   UNL     1       3.511  14.277  19.694  0.00  0.00    +0.000 C 
ATOM     33  C   UNL     1       2.300  13.993  18.821  0.00  0.00    +0.000 C 
ENDBRANCH   1  33
TORSDOF 7
ENDMDL
