MODEL 1
REMARK VINA RESULT:      -8.1      0.000      0.000
REMARK  Name = 
REMARK  8 active torsions:
REMARK  status: ('A' for Active; 'I' for Inactive)
REMARK    1  A    between atoms: C_1  and  C_2
REMARK    2  A    between atoms: C_2  and  C_3
REMARK    3  A    between atoms: C_2  and  C_4
REMARK    4  A    between atoms: C_2  and  C_5
REMARK    5  A    between atoms: C_7  and  N_8
REMARK    6  A    between atoms: N_11  and  C_12
REMARK    7  A    between atoms: N_20  and  C_21
REMARK    8  A    between atoms: C_25  and  N_26
REMARK                            x       y       z     vdW  Elec       q    Type
REMARK                         _______ _______ _______ _____ _____    ______ ____
ROOT
ATOM      1  C   UNL     1       5.496   5.877  17.333  0.00  0.00    +0.000 A 
ATOM      2  C   UNL     1       4.633   6.995  17.235  0.00  0.00    +0.000 A 
ATOM      3  C   UNL     1       3.468   6.623  17.862  0.00  0.00    +0.000 A 
ATOM      4  N   UNL     1       3.654   5.313  18.273  0.00  0.00    +0.000 N 
ATOM      5  N   UNL     1       4.928   4.898  18.055  0.00  0.00    +0.000 NA
ENDROOT
BRANCH   3   6
ATOM      6  N   UNL     1       2.352   7.441  18.046  0.00  0.00    +0.000 N 
ATOM      7  C   UNL     1       2.062   7.912  19.357  0.00  0.00    +0.000 C 
ATOM      8  O   UNL     1       2.817   7.627  20.275  0.00  0.00    +0.000 OA
ATOM      9  N   UNL     1       0.940   8.683  19.384  0.00  0.00    +0.000 N 
ATOM     10  H   UNL     1       1.892   7.834  17.238  0.00  0.00    +0.000 HD
ATOM     11  H   UNL     1       0.272   8.612  18.627  0.00  0.00    +0.000 HD
BRANCH   9  12
ATOM     12  C   UNL     1       0.463   9.326  20.562  0.00  0.00    +0.000 A 
ATOM     13  C   UNL     1      -0.054   8.593  21.639  0.00  0.00    +0.000 A 
ATOM     14  C   UNL     1      -0.641   9.235  22.726  0.00  0.00    +0.000 A 
ATOM     15  C   UNL     1      -0.695  10.625  22.764  0.00  0.00    +0.000 A 
ATOM     16  C   UNL     1      -0.120  11.375  21.735  0.00  0.00    +0.000 A 
ATOM     17 CL   UNL     1      -0.217  13.097  21.861  0.00  0.00    +0.000 Cl
ATOM     18  C   UNL     1       0.478  10.731  20.640  0.00  0.00    +0.000 A 
ATOM     19 CL   UNL     1       1.198  11.637  19.344  0.00  0.00    +0.000 Cl
ENDBRANCH   9  12
ENDBRANCH   3   6
BRANCH   4  20
ATOM     20  C   UNL     1       2.667   4.412  18.757  0.00  0.00    +0.000 A 
ATOM     21  C   UNL     1       1.535   4.144  17.977  0.00  0.00    +0.000 A 
ATOM     22  C   UNL     1       0.552   3.266  18.443  0.00  0.00    +0.000 A 
ATOM     23  C   UNL     1       0.662   2.689  19.710  0.00  0.00    +0.000 A 
ATOM     24  C   UNL     1       1.770   2.991  20.506  0.00  0.00    +0.000 A 
ATOM     25  C   UNL     1       2.787   3.836  20.031  0.00  0.00    +0.000 A 
BRANCH  24  26
ATOM     26  N   UNL     1       1.870   2.442  21.866  0.00  0.00    +0.000 N 
ATOM     27  O   UNL     1       0.837   2.379  22.544  0.00  0.00    +0.000 OA
ATOM     28  O   UNL     1       2.990   2.060  22.242  0.00  0.00    +0.000 OA
ENDBRANCH  24  26
ENDBRANCH   4  20
BRANCH   1  30
ATOM     29  C   UNL     1       7.676   4.652  17.489  0.00  0.00    +0.000 C 
ATOM     30  C   UNL     1       6.904   5.766  16.754  0.00  0.00    +0.000 C 
ATOM     31  C   UNL     1       7.666   7.097  16.946  0.00  0.00    +0.000 C 
ATOM     32  C   UNL     1       6.902   5.442  15.247  0.00  0.00    +0.000 C 
ENDBRANCH   1  30
TORSDOF 5
ENDMDL
MODEL 2
REMARK VINA RESULT:      -7.4      1.735      2.130
REMARK  Name = 
REMARK  8 active torsions:
REMARK  status: ('A' for Active; 'I' for Inactive)
REMARK    1  A    between atoms: C_1  and  C_2
REMARK    2  A    between atoms: C_2  and  C_3
REMARK    3  A    between atoms: C_2  and  C_4
REMARK    4  A    between atoms: C_2  and  C_5
REMARK    5  A    between atoms: C_7  and  N_8
REMARK    6  A    between atoms: N_11  and  C_12
REMARK    7  A    between atoms: N_20  and  C_21
REMARK    8  A    between atoms: C_25  and  N_26
REMARK                            x       y       z     vdW  Elec       q    Type
REMARK                         _______ _______ _______ _____ _____    ______ ____
ROOT
ATOM      1  C   UNL     1       5.671   6.438  17.788  0.00  0.00    +0.000 A 
ATOM      2  C   UNL     1       4.729   7.354  17.259  0.00  0.00    +0.000 A 
ATOM      3  C   UNL     1       3.496   6.884  17.644  0.00  0.00    +0.000 A 
ATOM      4  N   UNL     1       3.732   5.711  18.343  0.00  0.00    +0.000 N 
ATOM      5  N   UNL     1       5.061   5.502  18.532  0.00  0.00    +0.000 NA
ENDROOT
BRANCH   3   6
ATOM      6  N   UNL     1       2.275   7.507  17.382  0.00  0.00    +0.000 N 
ATOM      7  C   UNL     1       1.807   8.497  18.290  0.00  0.00    +0.000 C 
ATOM      8  O   UNL     1       2.501   8.805  19.248  0.00  0.00    +0.000 OA
ATOM      9  N   UNL     1       0.600   9.004  17.914  0.00  0.00    +0.000 N 
ATOM     10  H   UNL     1       1.848   7.390  16.475  0.00  0.00    +0.000 HD
ATOM     11  H   UNL     1       0.021   8.477  17.272  0.00  0.00    +0.000 HD
BRANCH   9  12
ATOM     12  C   UNL     1      -0.062  10.050  18.619  0.00  0.00    +0.000 A 
ATOM     13  C   UNL     1       0.528  10.674  19.727  0.00  0.00    +0.000 A 
ATOM     14  C   UNL     1      -0.181  11.598  20.489  0.00  0.00    +0.000 A 
ATOM     15  C   UNL     1      -1.485  11.933  20.137  0.00  0.00    +0.000 A 
ATOM     16  C   UNL     1      -2.065  11.377  18.993  0.00  0.00    +0.000 A 
ATOM     17 CL   UNL     1      -3.684  11.852  18.615  0.00  0.00    +0.000 Cl
ATOM     18  C   UNL     1      -1.350  10.450  18.219  0.00  0.00    +0.000 A 
ATOM     19 CL   UNL     1      -2.046   9.738  16.794  0.00  0.00    +0.000 Cl
ENDBRANCH   9  12
ENDBRANCH   3   6
BRANCH   4  20
ATOM     20  C   UNL     1       2.778   4.737  18.742  0.00  0.00    +0.000 A 
ATOM     21  C   UNL     1       1.699   4.442  17.899  0.00  0.00    +0.000 A 
ATOM     22  C   UNL     1       0.747   3.492  18.282  0.00  0.00    +0.000 A 
ATOM     23  C   UNL     1       0.833   2.867  19.527  0.00  0.00    +0.000 A 
ATOM     24  C   UNL     1       1.885   3.193  20.387  0.00  0.00    +0.000 A 
ATOM     25  C   UNL     1       2.873   4.113  19.995  0.00  0.00    +0.000 A 
BRANCH  24  26
ATOM     26  N   UNL     1       1.955   2.591  21.726  0.00  0.00    +0.000 N 
ATOM     27  O   UNL     1       0.912   2.527  22.389  0.00  0.00    +0.000 OA
ATOM     28  O   UNL     1       3.061   2.168  22.100  0.00  0.00    +0.000 OA
ENDBRANCH  24  26
ENDBRANCH   4  20
BRANCH   1  30
ATOM     29  C   UNL     1       7.630   7.954  17.409  0.00  0.00    +0.000 C 
ATOM     30  C   UNL     1       7.185   6.491  17.606  0.00  0.00    +0.000 C 
ATOM     31  C   UNL     1       7.602   5.681  16.356  0.00  0.00    +0.000 C 
ATOM     32  C   UNL     1       7.948   5.910  18.813  0.00  0.00    +0.000 C 
ENDBRANCH   1  30
TORSDOF 5
ENDMDL
MODEL 3
REMARK VINA RESULT:      -7.4      1.297      1.889
REMARK  Name = 
REMARK  8 active torsions:
REMARK  status: ('A' for Active; 'I' for Inactive)
REMARK    1  A    between atoms: C_1  and  C_2
REMARK    2  A    between atoms: C_2  and  C_3
REMARK    3  A    between atoms: C_2  and  C_4
REMARK    4  A    between atoms: C_2  and  C_5
REMARK    5  A    between atoms: C_7  and  N_8
REMARK    6  A    between atoms: N_11  and  C_12
REMARK    7  A    between atoms: N_20  and  C_21
REMARK    8  A    between atoms: C_25  and  N_26
REMARK                            x       y       z     vdW  Elec       q    Type
REMARK                         _______ _______ _______ _____ _____    ______ ____
ROOT
ATOM      1  C   UNL     1       5.546   6.393  17.776  0.00  0.00    +0.000 A 
ATOM      2  C   UNL     1       4.580   7.359  17.403  0.00  0.00    +0.000 A 
ATOM      3  C   UNL     1       3.375   6.873  17.853  0.00  0.00    +0.000 A 
ATOM      4  N   UNL     1       3.648   5.645  18.434  0.00  0.00    +0.000 N 
ATOM      5  N   UNL     1       4.984   5.406  18.492  0.00  0.00    +0.000 NA
ENDROOT
BRANCH   3   6
ATOM      6  N   UNL     1       2.148   7.529  17.745  0.00  0.00    +0.000 N 
ATOM      7  C   UNL     1       1.821   8.524  18.709  0.00  0.00    +0.000 C 
ATOM      8  O   UNL     1       2.636   8.808  19.574  0.00  0.00    +0.000 OA
ATOM      9  N   UNL     1       0.591   9.064  18.486  0.00  0.00    +0.000 N 
ATOM     10  H   UNL     1       1.609   7.430  16.898  0.00  0.00    +0.000 HD
ATOM     11  H   UNL     1      -0.077   8.557  17.918  0.00  0.00    +0.000 HD
BRANCH   9  12
ATOM     12  C   UNL     1       0.049  10.122  19.271  0.00  0.00    +0.000 A 
ATOM     13  C   UNL     1      -0.102  11.416  18.752  0.00  0.00    +0.000 A 
ATOM     14  C   UNL     1      -0.504  12.471  19.568  0.00  0.00    +0.000 A 
ATOM     15  C   UNL     1      -0.788  12.241  20.910  0.00  0.00    +0.000 A 
ATOM     16  C   UNL     1      -0.715  10.945  21.428  0.00  0.00    +0.000 A 
ATOM     17 CL   UNL     1      -1.095  10.739  23.102  0.00  0.00    +0.000 Cl
ATOM     18  C   UNL     1      -0.316   9.878  20.608  0.00  0.00    +0.000 A 
ATOM     19 CL   UNL     1      -0.211   8.257  21.224  0.00  0.00    +0.000 Cl
ENDBRANCH   9  12
ENDBRANCH   3   6
BRANCH   4  20
ATOM     20  C   UNL     1       2.713   4.653  18.834  0.00  0.00    +0.000 A 
ATOM     21  C   UNL     1       1.636   4.341  17.994  0.00  0.00    +0.000 A 
ATOM     22  C   UNL     1       0.704   3.372  18.378  0.00  0.00    +0.000 A 
ATOM     23  C   UNL     1       0.805   2.745  19.621  0.00  0.00    +0.000 A 
ATOM     24  C   UNL     1       1.855   3.089  20.478  0.00  0.00    +0.000 A 
ATOM     25  C   UNL     1       2.825   4.027  20.085  0.00  0.00    +0.000 A 
BRANCH  24  26
ATOM     26  N   UNL     1       1.941   2.484  21.815  0.00  0.00    +0.000 N 
ATOM     27  O   UNL     1       3.043   2.070  22.195  0.00  0.00    +0.000 OA
ATOM     28  O   UNL     1       0.897   2.443  22.485  0.00  0.00    +0.000 OA
ENDBRANCH  24  26
ENDBRANCH   4  20
BRANCH   1  30
ATOM     29  C   UNL     1       7.316   5.737  16.127  0.00  0.00    +0.000 C 
ATOM     30  C   UNL     1       7.041   6.443  17.470  0.00  0.00    +0.000 C 
ATOM     31  C   UNL     1       7.837   5.715  18.577  0.00  0.00    +0.000 C 
ATOM     32  C   UNL     1       7.579   7.885  17.380  0.00  0.00    +0.000 C 
ENDBRANCH   1  30
TORSDOF 5
ENDMDL
MODEL 4
REMARK VINA RESULT:      -7.4      2.825      5.573
REMARK  Name = 
REMARK  8 active torsions:
REMARK  status: ('A' for Active; 'I' for Inactive)
REMARK    1  A    between atoms: C_1  and  C_2
REMARK    2  A    between atoms: C_2  and  C_3
REMARK    3  A    between atoms: C_2  and  C_4
REMARK    4  A    between atoms: C_2  and  C_5
REMARK    5  A    between atoms: C_7  and  N_8
REMARK    6  A    between atoms: N_11  and  C_12
REMARK    7  A    between atoms: N_20  and  C_21
REMARK    8  A    between atoms: C_25  and  N_26
REMARK                            x       y       z     vdW  Elec       q    Type
REMARK                         _______ _______ _______ _____ _____    ______ ____
ROOT
ATOM      1  C   UNL     1       2.441   4.217  19.248  0.00  0.00    +0.000 A 
ATOM      2  C   UNL     1       1.817   5.459  18.980  0.00  0.00    +0.000 A 
ATOM      3  C   UNL     1       2.679   6.138  18.153  0.00  0.00    +0.000 A 
ATOM      4  N   UNL     1       3.782   5.315  17.987  0.00  0.00    +0.000 N 
ATOM      5  N   UNL     1       3.586   4.098  18.557  0.00  0.00    +0.000 NA
ENDROOT
BRANCH   3   6
ATOM      6  N   UNL     1       2.443   7.396  17.596  0.00  0.00    +0.000 N 
ATOM      7  C   UNL     1       1.928   8.425  18.433  0.00  0.00    +0.000 C 
ATOM      8  O   UNL     1       1.749   8.196  19.620  0.00  0.00    +0.000 OA
ATOM      9  N   UNL     1       1.735   9.588  17.750  0.00  0.00    +0.000 N 
ATOM     10  H   UNL     1       2.813   7.606  16.681  0.00  0.00    +0.000 HD
ATOM     11  H   UNL     1       1.661   9.562  16.741  0.00  0.00    +0.000 HD
BRANCH   9  12
ATOM     12  C   UNL     1       1.283  10.790  18.367  0.00  0.00    +0.000 A 
ATOM     13  C   UNL     1       2.185  11.748  18.851  0.00  0.00    +0.000 A 
ATOM     14  C   UNL     1       1.736  12.852  19.572  0.00  0.00    +0.000 A 
ATOM     15  C   UNL     1       0.375  13.028  19.797  0.00  0.00    +0.000 A 
ATOM     16  C   UNL     1      -0.545  12.122  19.260  0.00  0.00    +0.000 A 
ATOM     17 CL   UNL     1      -2.220  12.416  19.572  0.00  0.00    +0.000 Cl
ATOM     18  C   UNL     1      -0.097  11.012  18.527  0.00  0.00    +0.000 A 
ATOM     19 CL   UNL     1      -1.216   9.867  17.851  0.00  0.00    +0.000 Cl
ENDBRANCH   9  12
ENDBRANCH   3   6
BRANCH   4  20
ATOM     20  C   UNL     1       5.036   5.658  17.414  0.00  0.00    +0.000 A 
ATOM     21  C   UNL     1       5.844   6.613  18.043  0.00  0.00    +0.000 A 
ATOM     22  C   UNL     1       7.078   6.965  17.487  0.00  0.00    +0.000 A 
ATOM     23  C   UNL     1       7.492   6.411  16.275  0.00  0.00    +0.000 A 
ATOM     24  C   UNL     1       6.665   5.490  15.625  0.00  0.00    +0.000 A 
ATOM     25  C   UNL     1       5.444   5.093  16.196  0.00  0.00    +0.000 A 
BRANCH  24  26
ATOM     26  N   UNL     1       7.059   4.944  14.318  0.00  0.00    +0.000 N 
ATOM     27  O   UNL     1       7.999   5.484  13.723  0.00  0.00    +0.000 OA
ATOM     28  O   UNL     1       6.426   3.960  13.902  0.00  0.00    +0.000 OA
ENDBRANCH  24  26
ENDBRANCH   4  20
BRANCH   1  30
ATOM     29  C   UNL     1       2.215   1.737  19.528  0.00  0.00    +0.000 C 
ATOM     30  C   UNL     1       1.905   3.111  20.154  0.00  0.00    +0.000 C 
ATOM     31  C   UNL     1       0.373   3.243  20.310  0.00  0.00    +0.000 C 
ATOM     32  C   UNL     1       2.523   3.151  21.567  0.00  0.00    +0.000 C 
ENDBRANCH   1  30
TORSDOF 5
ENDMDL
MODEL 5
REMARK VINA RESULT:      -7.2      4.741      8.763
REMARK  Name = 
REMARK  8 active torsions:
REMARK  status: ('A' for Active; 'I' for Inactive)
REMARK    1  A    between atoms: C_1  and  C_2
REMARK    2  A    between atoms: C_2  and  C_3
REMARK    3  A    between atoms: C_2  and  C_4
REMARK    4  A    between atoms: C_2  and  C_5
REMARK    5  A    between atoms: C_7  and  N_8
REMARK    6  A    between atoms: N_11  and  C_12
REMARK    7  A    between atoms: N_20  and  C_21
REMARK    8  A    between atoms: C_25  and  N_26
REMARK                            x       y       z     vdW  Elec       q    Type
REMARK                         _______ _______ _______ _____ _____    ______ ____
ROOT
ATOM      1  C   UNL     1       0.933  13.718  19.057  0.00  0.00    +0.000 A 
ATOM      2  C   UNL     1       1.516  12.585  19.675  0.00  0.00    +0.000 A 
ATOM      3  C   UNL     1       0.682  11.532  19.383  0.00  0.00    +0.000 A 
ATOM      4  N   UNL     1      -0.367  12.063  18.648  0.00  0.00    +0.000 N 
ATOM      5  N   UNL     1      -0.154  13.371  18.350  0.00  0.00    +0.000 NA
ENDROOT
BRANCH   3   6
ATOM      6  N   UNL     1       0.897  10.204  19.753  0.00  0.00    +0.000 N 
ATOM      7  C   UNL     1       1.706   9.386  18.916  0.00  0.00    +0.000 C 
ATOM      8  O   UNL     1       2.225   9.876  17.924  0.00  0.00    +0.000 OA
ATOM      9  N   UNL     1       1.814   8.116  19.395  0.00  0.00    +0.000 N 
ATOM     10  H   UNL     1       0.643   9.905  20.683  0.00  0.00    +0.000 HD
ATOM     11  H   UNL     1       1.127   7.777  20.056  0.00  0.00    +0.000 HD
BRANCH   9  12
ATOM     12  C   UNL     1       2.616   7.114  18.777  0.00  0.00    +0.000 A 
ATOM     13  C   UNL     1       3.481   7.418  17.716  0.00  0.00    +0.000 A 
ATOM     14  C   UNL     1       4.156   6.411  17.032  0.00  0.00    +0.000 A 
ATOM     15  C   UNL     1       3.996   5.083  17.416  0.00  0.00    +0.000 A 
ATOM     16  C   UNL     1       3.195   4.766  18.517  0.00  0.00    +0.000 A 
ATOM     17 CL   UNL     1       3.057   3.096  18.940  0.00  0.00    +0.000 Cl
ATOM     18  C   UNL     1       2.518   5.780  19.214  0.00  0.00    +0.000 A 
ATOM     19 CL   UNL     1       1.513   5.416  20.583  0.00  0.00    +0.000 Cl
ENDBRANCH   9  12
ENDBRANCH   3   6
BRANCH   4  20
ATOM     20  C   UNL     1      -1.593  11.429  18.312  0.00  0.00    +0.000 A 
ATOM     21  C   UNL     1      -1.578  10.278  17.514  0.00  0.00    +0.000 A 
ATOM     22  C   UNL     1      -2.777   9.647  17.169  0.00  0.00    +0.000 A 
ATOM     23  C   UNL     1      -4.001  10.186  17.569  0.00  0.00    +0.000 A 
ATOM     24  C   UNL     1      -4.017  11.360  18.328  0.00  0.00    +0.000 A 
ATOM     25  C   UNL     1      -2.818  11.978  18.720  0.00  0.00    +0.000 A 
BRANCH  24  26
ATOM     26  N   UNL     1      -5.299  11.974  18.704  0.00  0.00    +0.000 N 
ATOM     27  O   UNL     1      -5.754  11.725  19.827  0.00  0.00    +0.000 OA
ATOM     28  O   UNL     1      -5.835  12.721  17.869  0.00  0.00    +0.000 OA
ENDBRANCH  24  26
ENDBRANCH   4  20
BRANCH   1  30
ATOM     29  C   UNL     1       2.671  15.296  18.179  0.00  0.00    +0.000 C 
ATOM     30  C   UNL     1       1.456  15.151  19.117  0.00  0.00    +0.000 C 
ATOM     31  C   UNL     1       1.905  15.496  20.555  0.00  0.00    +0.000 C 
ATOM     32  C   UNL     1       0.394  16.188  18.699  0.00  0.00    +0.000 C 
ENDBRANCH   1  30
TORSDOF 5
ENDMDL
MODEL 6
REMARK VINA RESULT:      -7.2      3.951      6.439
REMARK  Name = 
REMARK  8 active torsions:
REMARK  status: ('A' for Active; 'I' for Inactive)
REMARK    1  A    between atoms: C_1  and  C_2
REMARK    2  A    between atoms: C_2  and  C_3
REMARK    3  A    between atoms: C_2  and  C_4
REMARK    4  A    between atoms: C_2  and  C_5
REMARK    5  A    between atoms: C_7  and  N_8
REMARK    6  A    between atoms: N_11  and  C_12
REMARK    7  A    between atoms: N_20  and  C_21
REMARK    8  A    between atoms: C_25  and  N_26
REMARK                            x       y       z     vdW  Elec       q    Type
REMARK                         _______ _______ _______ _____ _____    ______ ____
ROOT
ATOM      1  C   UNL     1       2.448   7.511  18.577  0.00  0.00    +0.000 A 
ATOM      2  C   UNL     1       1.786   8.355  17.654  0.00  0.00    +0.000 A 
ATOM      3  C   UNL     1       1.099   9.273  18.413  0.00  0.00    +0.000 A 
ATOM      4  N   UNL     1       1.338   8.933  19.736  0.00  0.00    +0.000 N 
ATOM      5  N   UNL     1       2.252   7.934  19.836  0.00  0.00    +0.000 NA
ENDROOT
BRANCH   3   6
ATOM      6  N   UNL     1       0.342  10.333  17.913  0.00  0.00    +0.000 N 
ATOM      7  C   UNL     1      -1.076  10.257  17.999  0.00  0.00    +0.000 C 
ATOM      8  O   UNL     1      -1.591   9.293  18.545  0.00  0.00    +0.000 OA
ATOM      9  N   UNL     1      -1.678  11.353  17.458  0.00  0.00    +0.000 N 
ATOM     10  H   UNL     1       0.804  11.200  17.680  0.00  0.00    +0.000 HD
ATOM     11  H   UNL     1      -1.161  11.931  16.807  0.00  0.00    +0.000 HD
BRANCH   9  12
ATOM     12  C   UNL     1      -3.088  11.554  17.468  0.00  0.00    +0.000 A 
ATOM     13  C   UNL     1      -3.874  11.289  16.338  0.00  0.00    +0.000 A 
ATOM     14  C   UNL     1      -5.228  11.616  16.316  0.00  0.00    +0.000 A 
ATOM     15  C   UNL     1      -5.822  12.191  17.435  0.00  0.00    +0.000 A 
ATOM     16  C   UNL     1      -5.072  12.395  18.597  0.00  0.00    +0.000 A 
ATOM     17 CL   UNL     1      -5.884  13.102  19.949  0.00  0.00    +0.000 Cl
ATOM     18  C   UNL     1      -3.708  12.060  18.626  0.00  0.00    +0.000 A 
ATOM     19 CL   UNL     1      -2.749  12.307  20.054  0.00  0.00    +0.000 Cl
ENDBRANCH   9  12
ENDBRANCH   3   6
BRANCH   4  20
ATOM     20  C   UNL     1       0.671   9.429  20.888  0.00  0.00    +0.000 A 
ATOM     21  C   UNL     1       0.063   8.530  21.774  0.00  0.00    +0.000 A 
ATOM     22  C   UNL     1      -0.604   9.005  22.908  0.00  0.00    +0.000 A 
ATOM     23  C   UNL     1      -0.714  10.376  23.142  0.00  0.00    +0.000 A 
ATOM     24  C   UNL     1      -0.145  11.274  22.235  0.00  0.00    +0.000 A 
ATOM     25  C   UNL     1       0.566  10.810  21.115  0.00  0.00    +0.000 A 
BRANCH  24  26
ATOM     26  N   UNL     1      -0.306  12.722  22.433  0.00  0.00    +0.000 N 
ATOM     27  O   UNL     1      -1.246  13.109  23.138  0.00  0.00    +0.000 OA
ATOM     28  O   UNL     1       0.527  13.464  21.889  0.00  0.00    +0.000 OA
ENDBRANCH  24  26
ENDBRANCH   4  20
BRANCH   1  30
ATOM     29  C   UNL     1       4.303   6.675  17.115  0.00  0.00    +0.000 C 
ATOM     30  C   UNL     1       3.314   6.301  18.238  0.00  0.00    +0.000 C 
ATOM     31  C   UNL     1       2.431   5.133  17.742  0.00  0.00    +0.000 C 
ATOM     32  C   UNL     1       4.123   5.793  19.448  0.00  0.00    +0.000 C 
ENDBRANCH   1  30
TORSDOF 5
ENDMDL
MODEL 7
REMARK VINA RESULT:      -7.1      2.635      5.401
REMARK  Name = 
REMARK  8 active torsions:
REMARK  status: ('A' for Active; 'I' for Inactive)
REMARK    1  A    between atoms: C_1  and  C_2
REMARK    2  A    between atoms: C_2  and  C_3
REMARK    3  A    between atoms: C_2  and  C_4
REMARK    4  A    between atoms: C_2  and  C_5
REMARK    5  A    between atoms: C_7  and  N_8
REMARK    6  A    between atoms: N_11  and  C_12
REMARK    7  A    between atoms: N_20  and  C_21
REMARK    8  A    between atoms: C_25  and  N_26
REMARK                            x       y       z     vdW  Elec       q    Type
REMARK                         _______ _______ _______ _____ _____    ______ ____
ROOT
ATOM      1  C   UNL     1       2.499   3.958  19.335  0.00  0.00    +0.000 A 
ATOM      2  C   UNL     1       1.765   5.131  19.035  0.00  0.00    +0.000 A 
ATOM      3  C   UNL     1       2.521   5.820  18.117  0.00  0.00    +0.000 A 
ATOM      4  N   UNL     1       3.673   5.072  17.929  0.00  0.00    +0.000 N 
ATOM      5  N   UNL     1       3.607   3.882  18.581  0.00  0.00    +0.000 NA
ENDROOT
BRANCH   3   6
ATOM      6  N   UNL     1       2.155   7.019  17.503  0.00  0.00    +0.000 N 
ATOM      7  C   UNL     1       1.968   8.170  18.318  0.00  0.00    +0.000 C 
ATOM      8  O   UNL     1       2.174   8.092  19.520  0.00  0.00    +0.000 OA
ATOM      9  N   UNL     1       1.599   9.258  17.585  0.00  0.00    +0.000 N 
ATOM     10  H   UNL     1       2.216   7.096  16.499  0.00  0.00    +0.000 HD
ATOM     11  H   UNL     1       1.203   9.122  16.663  0.00  0.00    +0.000 HD
BRANCH   9  12
ATOM     12  C   UNL     1       1.405  10.551  18.150  0.00  0.00    +0.000 A 
ATOM     13  C   UNL     1       2.439  11.497  18.185  0.00  0.00    +0.000 A 
ATOM     14  C   UNL     1       2.281  12.705  18.859  0.00  0.00    +0.000 A 
ATOM     15  C   UNL     1       1.074  12.996  19.487  0.00  0.00    +0.000 A 
ATOM     16  C   UNL     1       0.007  12.098  19.402  0.00  0.00    +0.000 A 
ATOM     17 CL   UNL     1      -1.463  12.537  20.198  0.00  0.00    +0.000 Cl
ATOM     18  C   UNL     1       0.161  10.881  18.718  0.00  0.00    +0.000 A 
ATOM     19 CL   UNL     1      -1.146   9.743  18.598  0.00  0.00    +0.000 Cl
ENDBRANCH   9  12
ENDBRANCH   3   6
BRANCH   4  20
ATOM     20  C   UNL     1       4.861   5.471  17.259  0.00  0.00    +0.000 A 
ATOM     21  C   UNL     1       5.201   4.868  16.042  0.00  0.00    +0.000 A 
ATOM     22  C   UNL     1       6.372   5.245  15.375  0.00  0.00    +0.000 A 
ATOM     23  C   UNL     1       7.236   6.184  15.938  0.00  0.00    +0.000 A 
ATOM     24  C   UNL     1       6.918   6.753  17.175  0.00  0.00    +0.000 A 
ATOM     25  C   UNL     1       5.723   6.417  17.833  0.00  0.00    +0.000 A 
BRANCH  24  26
ATOM     26  N   UNL     1       7.848   7.697  17.811  0.00  0.00    +0.000 N 
ATOM     27  O   UNL     1       8.480   7.310  18.802  0.00  0.00    +0.000 OA
ATOM     28  O   UNL     1       7.951   8.822  17.298  0.00  0.00    +0.000 OA
ENDBRANCH  24  26
ENDBRANCH   4  20
BRANCH   1  30
ATOM     29  C   UNL     1       3.376   2.201  20.891  0.00  0.00    +0.000 C 
ATOM     30  C   UNL     1       2.105   2.875  20.336  0.00  0.00    +0.000 C 
ATOM     31  C   UNL     1       1.242   1.796  19.643  0.00  0.00    +0.000 C 
ATOM     32  C   UNL     1       1.293   3.431  21.522  0.00  0.00    +0.000 C 
ENDBRANCH   1  30
TORSDOF 5
ENDMDL
MODEL 8
REMARK VINA RESULT:      -7.1      2.698      5.385
REMARK  Name = 
REMARK  8 active torsions:
REMARK  status: ('A' for Active; 'I' for Inactive)
REMARK    1  A    between atoms: C_1  and  C_2
REMARK    2  A    between atoms: C_2  and  C_3
REMARK    3  A    between atoms: C_2  and  C_4
REMARK    4  A    between atoms: C_2  and  C_5
REMARK    5  A    between atoms: C_7  and  N_8
REMARK    6  A    between atoms: N_11  and  C_12
REMARK    7  A    between atoms: N_20  and  C_21
REMARK    8  A    between atoms: C_25  and  N_26
REMARK                            x       y       z     vdW  Elec       q    Type
REMARK                         _______ _______ _______ _____ _____    ______ ____
ROOT
ATOM      1  C   UNL     1       2.511   4.033  19.220  0.00  0.00    +0.000 A 
ATOM      2  C   UNL     1       1.816   5.239  18.958  0.00  0.00    +0.000 A 
ATOM      3  C   UNL     1       2.602   5.938  18.074  0.00  0.00    +0.000 A 
ATOM      4  N   UNL     1       3.733   5.163  17.868  0.00  0.00    +0.000 N 
ATOM      5  N   UNL     1       3.624   3.952  18.473  0.00  0.00    +0.000 NA
ENDROOT
BRANCH   3   6
ATOM      6  N   UNL     1       2.278   7.170  17.503  0.00  0.00    +0.000 N 
ATOM      7  C   UNL     1       1.895   8.238  18.362  0.00  0.00    +0.000 C 
ATOM      8  O   UNL     1       1.901   8.064  19.572  0.00  0.00    +0.000 OA
ATOM      9  N   UNL     1       1.595   9.369  17.665  0.00  0.00    +0.000 N 
ATOM     10  H   UNL     1       2.503   7.337  16.534  0.00  0.00    +0.000 HD
ATOM     11  H   UNL     1       1.367   9.298  16.681  0.00  0.00    +0.000 HD
BRANCH   9  12
ATOM     12  C   UNL     1       1.239  10.599  18.289  0.00  0.00    +0.000 A 
ATOM     13  C   UNL     1       2.213  11.518  18.705  0.00  0.00    +0.000 A 
ATOM     14  C   UNL     1       1.862  12.651  19.434  0.00  0.00    +0.000 A 
ATOM     15  C   UNL     1       0.526  12.897  19.735  0.00  0.00    +0.000 A 
ATOM     16  C   UNL     1      -0.466  12.031  19.267  0.00  0.00    +0.000 A 
ATOM     17 CL   UNL     1      -2.103  12.410  19.673  0.00  0.00    +0.000 Cl
ATOM     18  C   UNL     1      -0.117  10.890  18.526  0.00  0.00    +0.000 A 
ATOM     19 CL   UNL     1      -1.328   9.794  17.935  0.00  0.00    +0.000 Cl
ENDBRANCH   9  12
ENDBRANCH   3   6
BRANCH   4  20
ATOM     20  C   UNL     1       4.939   5.550  17.225  0.00  0.00    +0.000 A 
ATOM     21  C   UNL     1       5.339   4.891  16.055  0.00  0.00    +0.000 A 
ATOM     22  C   UNL     1       6.528   5.256  15.415  0.00  0.00    +0.000 A 
ATOM     23  C   UNL     1       7.352   6.241  15.961  0.00  0.00    +0.000 A 
ATOM     24  C   UNL     1       6.973   6.869  17.151  0.00  0.00    +0.000 A 
ATOM     25  C   UNL     1       5.760   6.543  17.780  0.00  0.00    +0.000 A 
BRANCH  24  26
ATOM     26  N   UNL     1       7.860   7.863  17.772  0.00  0.00    +0.000 N 
ATOM     27  O   UNL     1       7.882   9.002  17.289  0.00  0.00    +0.000 OA
ATOM     28  O   UNL     1       8.521   7.496  18.756  0.00  0.00    +0.000 OA
ENDBRANCH  24  26
ENDBRANCH   4  20
BRANCH   1  30
ATOM     29  C   UNL     1       1.391   1.798  19.377  0.00  0.00    +0.000 C 
ATOM     30  C   UNL     1       2.075   2.926  20.175  0.00  0.00    +0.000 C 
ATOM     31  C   UNL     1       1.064   3.477  21.207  0.00  0.00    +0.000 C 
ATOM     32  C   UNL     1       3.256   2.319  20.958  0.00  0.00    +0.000 C 
ENDBRANCH   1  30
TORSDOF 5
ENDMDL
MODEL 9
REMARK VINA RESULT:      -7.1      2.347      2.715
REMARK  Name = 
REMARK  8 active torsions:
REMARK  status: ('A' for Active; 'I' for Inactive)
REMARK    1  A    between atoms: C_1  and  C_2
REMARK    2  A    between atoms: C_2  and  C_3
REMARK    3  A    between atoms: C_2  and  C_4
REMARK    4  A    between atoms: C_2  and  C_5
REMARK    5  A    between atoms: C_7  and  N_8
REMARK    6  A    between atoms: N_11  and  C_12
REMARK    7  A    between atoms: N_20  and  C_21
REMARK    8  A    between atoms: C_25  and  N_26
REMARK                            x       y       z     vdW  Elec       q    Type
REMARK                         _______ _______ _______ _____ _____    ______ ____
ROOT
ATOM      1  C   UNL     1       5.701   6.750  17.826  0.00  0.00    +0.000 A 
ATOM      2  C   UNL     1       4.806   7.611  17.145  0.00  0.00    +0.000 A 
ATOM      3  C   UNL     1       3.555   7.306  17.628  0.00  0.00    +0.000 A 
ATOM      4  N   UNL     1       3.734   6.272  18.533  0.00  0.00    +0.000 N 
ATOM      5  N   UNL     1       5.051   6.013  18.741  0.00  0.00    +0.000 NA
ENDROOT
BRANCH   3   6
ATOM      6  N   UNL     1       2.370   7.950  17.268  0.00  0.00    +0.000 N 
ATOM      7  C   UNL     1       1.790   8.870  18.185  0.00  0.00    +0.000 C 
ATOM      8  O   UNL     1       2.363   9.106  19.238  0.00  0.00    +0.000 OA
ATOM      9  N   UNL     1       0.634   9.406  17.705  0.00  0.00    +0.000 N 
ATOM     10  H   UNL     1       2.055   7.901  16.310  0.00  0.00    +0.000 HD
ATOM     11  H   UNL     1       0.139   8.929  16.961  0.00  0.00    +0.000 HD
BRANCH   9  12
ATOM     12  C   UNL     1      -0.115  10.399  18.401  0.00  0.00    +0.000 A 
ATOM     13  C   UNL     1       0.451  11.146  19.443  0.00  0.00    +0.000 A 
ATOM     14  C   UNL     1      -0.326  12.015  20.204  0.00  0.00    +0.000 A 
ATOM     15  C   UNL     1      -1.678  12.170  19.916  0.00  0.00    +0.000 A 
ATOM     16  C   UNL     1      -2.244  11.489  18.834  0.00  0.00    +0.000 A 
ATOM     17 CL   UNL     1      -3.928  11.744  18.532  0.00  0.00    +0.000 Cl
ATOM     18  C   UNL     1      -1.462  10.617  18.060  0.00  0.00    +0.000 A 
ATOM     19 CL   UNL     1      -2.139   9.755  16.712  0.00  0.00    +0.000 Cl
ENDBRANCH   9  12
ENDBRANCH   3   6
BRANCH   4  20
ATOM     20  C   UNL     1       2.730   5.457  19.122  0.00  0.00    +0.000 A 
ATOM     21  C   UNL     1       2.082   5.893  20.285  0.00  0.00    +0.000 A 
ATOM     22  C   UNL     1       1.098   5.098  20.880  0.00  0.00    +0.000 A 
ATOM     23  C   UNL     1       0.787   3.843  20.354  0.00  0.00    +0.000 A 
ATOM     24  C   UNL     1       1.465   3.390  19.218  0.00  0.00    +0.000 A 
ATOM     25  C   UNL     1       2.424   4.198  18.584  0.00  0.00    +0.000 A 
BRANCH  24  26
ATOM     26  N   UNL     1       1.194   2.046  18.688  0.00  0.00    +0.000 N 
ATOM     27  O   UNL     1       0.048   1.797  18.295  0.00  0.00    +0.000 OA
ATOM     28  O   UNL     1       2.145   1.249  18.656  0.00  0.00    +0.000 OA
ENDBRANCH  24  26
ENDBRANCH   4  20
BRANCH   1  30
ATOM     29  C   UNL     1       7.510   5.821  16.363  0.00  0.00    +0.000 C 
ATOM     30  C   UNL     1       7.210   6.665  17.617  0.00  0.00    +0.000 C 
ATOM     31  C   UNL     1       7.881   5.988  18.835  0.00  0.00    +0.000 C 
ATOM     32  C   UNL     1       7.862   8.051  17.437  0.00  0.00    +0.000 C 
ENDBRANCH   1  30
TORSDOF 5
ENDMDL
