MODEL 1
REMARK VINA RESULT:      -7.5      0.000      0.000
REMARK  Name = 
REMARK  8 active torsions:
REMARK  status: ('A' for Active; 'I' for Inactive)
REMARK    1  A    between atoms: C_1  and  C_2
REMARK    2  A    between atoms: C_2  and  C_3
REMARK    3  A    between atoms: C_7  and  N_8
REMARK    4  A    between atoms: C_9  and  C_11
REMARK    5  A    between atoms: C_14  and  C_15
REMARK    6  A    between atoms: C_15  and  N_16
REMARK    7  A    between atoms: N_16  and  S_17
REMARK    8  A    between atoms: S_17  and  C_20
REMARK                            x       y       z     vdW  Elec       q    Type
REMARK                         _______ _______ _______ _____ _____    ______ ____
ROOT
ATOM      1  C   UNL     1       6.772   7.180  17.114  0.00  0.00    +0.000 C 
ATOM      2  C   UNL     1       7.292   5.864  16.521  0.00  0.00    +0.000 C 
ATOM      3  C   UNL     1       7.495   4.788  17.588  0.00  0.00    +0.000 C 
ATOM      4  C   UNL     1       6.239   4.526  18.437  0.00  0.00    +0.000 C 
ATOM      5  C   UNL     1       5.700   5.840  19.021  0.00  0.00    +0.000 C 
ATOM      6  C   UNL     1       5.502   6.930  17.955  0.00  0.00    +0.000 C 
ENDROOT
BRANCH   1   8
ATOM      7  N   UNL     1       7.826   9.283  17.876  0.00  0.00    +0.000 N 
ATOM      8  C   UNL     1       7.802   7.906  17.979  0.00  0.00    +0.000 C 
ATOM      9  O   UNL     1       8.516   7.265  18.752  0.00  0.00    +0.000 OA
ATOM     10  H   UNL     1       7.042   9.744  17.442  0.00  0.00    +0.000 HD
BRANCH   7  15
ATOM     11  C   UNL     1      10.650  11.670  18.272  0.00  0.00    +0.000 A 
ATOM     12  C   UNL     1      10.793  11.706  19.664  0.00  0.00    +0.000 A 
ATOM     13  C   UNL     1       9.967  10.931  20.465  0.00  0.00    +0.000 A 
ATOM     14  C   UNL     1       8.999  10.116  19.881  0.00  0.00    +0.000 A 
ATOM     15  C   UNL     1       8.804  10.098  18.495  0.00  0.00    +0.000 A 
ATOM     16  C   UNL     1       9.637  10.880  17.693  0.00  0.00    +0.000 A 
BRANCH  11  18
ATOM     17  C   UNL     1      11.974  13.737  17.976  0.00  0.00    +0.000 C 
ATOM     18  C   UNL     1      11.651  12.369  17.390  0.00  0.00    +0.000 C 
ENDBRANCH  11  18
ENDBRANCH   7  15
ENDBRANCH   1   8
BRANCH   4  19
ATOM     19  C   UNL     1       5.126   3.808  17.659  0.00  0.00    +0.000 C 
BRANCH  19  20
ATOM     20  N   UNL     1       4.271   3.045  18.585  0.00  0.00    +0.000 NA
ATOM     21  H   UNL     1       4.534   3.127  19.568  0.00  0.00    +0.000 HD
BRANCH  20  22
ATOM     22  S   UNL     1       2.611   3.316  18.425  0.00  0.00    +0.000 S 
ATOM     23  O   UNL     1       2.269   3.105  17.037  0.00  0.00    +0.000 OA
ATOM     24  O   UNL     1       1.948   2.605  19.491  0.00  0.00    +0.000 OA
BRANCH  22  25
ATOM     25  C   UNL     1       2.318   5.034  18.765  0.00  0.00    +0.000 A 
ATOM     26  C   UNL     1       2.220   6.139  17.938  0.00  0.00    +0.000 A 
ATOM     27  C   UNL     1       1.918   7.330  18.661  0.00  0.00    +0.000 A 
ATOM     28  C   UNL     1       1.797   7.074  20.004  0.00  0.00    +0.000 A 
ATOM     29 BR   UNL     1       1.392   8.387  21.276  0.00  0.00    +0.000 Br
ATOM     30  S   UNL     1       2.038   5.446  20.404  0.00  0.00    +0.000 S 
ENDBRANCH  22  25
ENDBRANCH  20  22
ENDBRANCH  19  20
ENDBRANCH   4  19
TORSDOF 7
ENDMDL
MODEL 2
REMARK VINA RESULT:      -7.4      4.873      7.261
REMARK  Name = 
REMARK  8 active torsions:
REMARK  status: ('A' for Active; 'I' for Inactive)
REMARK    1  A    between atoms: C_1  and  C_2
REMARK    2  A    between atoms: C_2  and  C_3
REMARK    3  A    between atoms: C_7  and  N_8
REMARK    4  A    between atoms: C_9  and  C_11
REMARK    5  A    between atoms: C_14  and  C_15
REMARK    6  A    between atoms: C_15  and  N_16
REMARK    7  A    between atoms: N_16  and  S_17
REMARK    8  A    between atoms: S_17  and  C_20
REMARK                            x       y       z     vdW  Elec       q    Type
REMARK                         _______ _______ _______ _____ _____    ______ ____
ROOT
ATOM      1  C   UNL     1       5.166   5.909  17.823  0.00  0.00    +0.000 C 
ATOM      2  C   UNL     1       4.690   7.281  18.318  0.00  0.00    +0.000 C 
ATOM      3  C   UNL     1       3.255   7.588  17.886  0.00  0.00    +0.000 C 
ATOM      4  C   UNL     1       2.249   6.498  18.296  0.00  0.00    +0.000 C 
ATOM      5  C   UNL     1       2.726   5.118  17.820  0.00  0.00    +0.000 C 
ATOM      6  C   UNL     1       4.171   4.807  18.244  0.00  0.00    +0.000 C 
ENDROOT
BRANCH   1   8
ATOM      7  N   UNL     1       5.908   4.677  15.812  0.00  0.00    +0.000 N 
ATOM      8  C   UNL     1       5.364   5.845  16.308  0.00  0.00    +0.000 C 
ATOM      9  O   UNL     1       4.995   6.783  15.600  0.00  0.00    +0.000 OA
ATOM     10  H   UNL     1       5.925   3.865  16.409  0.00  0.00    +0.000 HD
BRANCH   7  15
ATOM     11  C   UNL     1       5.874   3.458  12.299  0.00  0.00    +0.000 A 
ATOM     12  C   UNL     1       7.013   4.082  11.775  0.00  0.00    +0.000 A 
ATOM     13  C   UNL     1       7.795   4.890  12.587  0.00  0.00    +0.000 A 
ATOM     14  C   UNL     1       7.447   5.076  13.924  0.00  0.00    +0.000 A 
ATOM     15  C   UNL     1       6.288   4.502  14.459  0.00  0.00    +0.000 A 
ATOM     16  C   UNL     1       5.504   3.691  13.638  0.00  0.00    +0.000 A 
BRANCH  11  18
ATOM     17  C   UNL     1       3.837   3.076  10.950  0.00  0.00    +0.000 C 
ATOM     18  C   UNL     1       5.120   2.446  11.477  0.00  0.00    +0.000 C 
ENDBRANCH  11  18
ENDBRANCH   7  15
ENDBRANCH   1   8
BRANCH   4  19
ATOM     19  C   UNL     1       1.983   6.463  19.808  0.00  0.00    +0.000 C 
BRANCH  19  20
ATOM     20  N   UNL     1       2.371   7.745  20.421  0.00  0.00    +0.000 NA
ATOM     21  H   UNL     1       2.832   8.396  19.784  0.00  0.00    +0.000 HD
BRANCH  20  22
ATOM     22  S   UNL     1       1.140   8.551  21.252  0.00  0.00    +0.000 S 
ATOM     23  O   UNL     1      -0.018   7.686  21.256  0.00  0.00    +0.000 OA
ATOM     24  O   UNL     1       1.706   9.074  22.472  0.00  0.00    +0.000 OA
BRANCH  22  25
ATOM     25  C   UNL     1       0.702   9.982  20.295  0.00  0.00    +0.000 A 
ATOM     26  C   UNL     1       0.684  10.215  18.932  0.00  0.00    +0.000 A 
ATOM     27  C   UNL     1       0.202  11.518  18.613  0.00  0.00    +0.000 A 
ATOM     28  C   UNL     1      -0.127  12.213  19.750  0.00  0.00    +0.000 A 
ATOM     29 BR   UNL     1      -0.808  13.957  19.735  0.00  0.00    +0.000 Br
ATOM     30  S   UNL     1       0.133  11.336  21.175  0.00  0.00    +0.000 S 
ENDBRANCH  22  25
ENDBRANCH  20  22
ENDBRANCH  19  20
ENDBRANCH   4  19
TORSDOF 7
ENDMDL
MODEL 3
REMARK VINA RESULT:      -7.3      1.577      2.347
REMARK  Name = 
REMARK  8 active torsions:
REMARK  status: ('A' for Active; 'I' for Inactive)
REMARK    1  A    between atoms: C_1  and  C_2
REMARK    2  A    between atoms: C_2  and  C_3
REMARK    3  A    between atoms: C_7  and  N_8
REMARK    4  A    between atoms: C_9  and  C_11
REMARK    5  A    between atoms: C_14  and  C_15
REMARK    6  A    between atoms: C_15  and  N_16
REMARK    7  A    between atoms: N_16  and  S_17
REMARK    8  A    between atoms: S_17  and  C_20
REMARK                            x       y       z     vdW  Elec       q    Type
REMARK                         _______ _______ _______ _____ _____    ______ ____
ROOT
ATOM      1  C   UNL     1       7.514   5.662  18.300  0.00  0.00    +0.000 C 
ATOM      2  C   UNL     1       6.124   5.583  18.944  0.00  0.00    +0.000 C 
ATOM      3  C   UNL     1       5.002   5.846  17.939  0.00  0.00    +0.000 C 
ATOM      4  C   UNL     1       5.066   4.931  16.702  0.00  0.00    +0.000 C 
ATOM      5  C   UNL     1       6.459   4.990  16.060  0.00  0.00    +0.000 C 
ATOM      6  C   UNL     1       7.592   4.736  17.068  0.00  0.00    +0.000 C 
ENDROOT
BRANCH   1   8
ATOM      7  N   UNL     1       8.396   7.899  18.879  0.00  0.00    +0.000 N 
ATOM      8  C   UNL     1       7.909   7.078  17.880  0.00  0.00    +0.000 C 
ATOM      9  O   UNL     1       7.833   7.412  16.697  0.00  0.00    +0.000 OA
ATOM     10  H   UNL     1       8.685   7.476  19.747  0.00  0.00    +0.000 HD
BRANCH   7  15
ATOM     11  C   UNL     1       9.853  11.276  19.428  0.00  0.00    +0.000 A 
ATOM     12  C   UNL     1       9.238  12.015  18.410  0.00  0.00    +0.000 A 
ATOM     13  C   UNL     1       8.334  11.399  17.556  0.00  0.00    +0.000 A 
ATOM     14  C   UNL     1       8.038  10.047  17.717  0.00  0.00    +0.000 A 
ATOM     15  C   UNL     1       8.675   9.275  18.696  0.00  0.00    +0.000 A 
ATOM     16  C   UNL     1       9.583   9.899  19.552  0.00  0.00    +0.000 A 
BRANCH  11  18
ATOM     17  C   UNL     1       9.797  12.548  21.548  0.00  0.00    +0.000 C 
ATOM     18  C   UNL     1      10.697  11.971  20.463  0.00  0.00    +0.000 C 
ENDBRANCH  11  18
ENDBRANCH   7  15
ENDBRANCH   1   8
BRANCH   4  19
ATOM     19  C   UNL     1       4.698   3.473  17.013  0.00  0.00    +0.000 C 
BRANCH  19  20
ATOM     20  N   UNL     1       3.243   3.280  16.896  0.00  0.00    +0.000 NA
ATOM     21  H   UNL     1       2.947   2.800  16.045  0.00  0.00    +0.000 HD
BRANCH  20  22
ATOM     22  S   UNL     1       2.499   2.561  18.232  0.00  0.00    +0.000 S 
ATOM     23  O   UNL     1       1.177   2.147  17.820  0.00  0.00    +0.000 OA
ATOM     24  O   UNL     1       3.442   1.636  18.812  0.00  0.00    +0.000 OA
BRANCH  22  25
ATOM     25  C   UNL     1       2.276   3.825  19.460  0.00  0.00    +0.000 A 
ATOM     26  C   UNL     1       2.446   3.823  20.833  0.00  0.00    +0.000 A 
ATOM     27  C   UNL     1       2.197   5.102  21.410  0.00  0.00    +0.000 A 
ATOM     28  C   UNL     1       1.852   6.018  20.447  0.00  0.00    +0.000 A 
ATOM     29 BR   UNL     1       1.462   7.812  20.817  0.00  0.00    +0.000 Br
ATOM     30  S   UNL     1       1.823   5.371  18.882  0.00  0.00    +0.000 S 
ENDBRANCH  22  25
ENDBRANCH  20  22
ENDBRANCH  19  20
ENDBRANCH   4  19
TORSDOF 7
ENDMDL
MODEL 4
REMARK VINA RESULT:      -7.2      5.199      7.235
REMARK  Name = 
REMARK  8 active torsions:
REMARK  status: ('A' for Active; 'I' for Inactive)
REMARK    1  A    between atoms: C_1  and  C_2
REMARK    2  A    between atoms: C_2  and  C_3
REMARK    3  A    between atoms: C_7  and  N_8
REMARK    4  A    between atoms: C_9  and  C_11
REMARK    5  A    between atoms: C_14  and  C_15
REMARK    6  A    between atoms: C_15  and  N_16
REMARK    7  A    between atoms: N_16  and  S_17
REMARK    8  A    between atoms: S_17  and  C_20
REMARK                            x       y       z     vdW  Elec       q    Type
REMARK                         _______ _______ _______ _____ _____    ______ ____
ROOT
ATOM      1  C   UNL     1       2.613   4.227  18.241  0.00  0.00    +0.000 C 
ATOM      2  C   UNL     1       2.816   4.303  19.760  0.00  0.00    +0.000 C 
ATOM      3  C   UNL     1       3.533   5.584  20.187  0.00  0.00    +0.000 C 
ATOM      4  C   UNL     1       2.846   6.864  19.680  0.00  0.00    +0.000 C 
ATOM      5  C   UNL     1       2.623   6.791  18.163  0.00  0.00    +0.000 C 
ATOM      6  C   UNL     1       1.910   5.500  17.726  0.00  0.00    +0.000 C 
ENDROOT
BRANCH   1   8
ATOM      7  N   UNL     1       4.159   4.930  16.444  0.00  0.00    +0.000 N 
ATOM      8  C   UNL     1       3.915   4.031  17.464  0.00  0.00    +0.000 C 
ATOM      9  O   UNL     1       4.700   3.142  17.796  0.00  0.00    +0.000 OA
ATOM     10  H   UNL     1       3.618   5.779  16.415  0.00  0.00    +0.000 HD
BRANCH   7  15
ATOM     11  C   UNL     1       6.095   3.991  13.411  0.00  0.00    +0.000 A 
ATOM     12  C   UNL     1       7.360   4.509  13.715  0.00  0.00    +0.000 A 
ATOM     13  C   UNL     1       7.572   5.153  14.925  0.00  0.00    +0.000 A 
ATOM     14  C   UNL     1       6.525   5.279  15.837  0.00  0.00    +0.000 A 
ATOM     15  C   UNL     1       5.240   4.812  15.538  0.00  0.00    +0.000 A 
ATOM     16  C   UNL     1       5.032   4.166  14.319  0.00  0.00    +0.000 A 
BRANCH  11  18
ATOM     17  C   UNL     1       4.518   3.407  11.598  0.00  0.00    +0.000 C 
ATOM     18  C   UNL     1       5.900   3.142  12.183  0.00  0.00    +0.000 C 
ENDBRANCH  11  18
ENDBRANCH   7  15
ENDBRANCH   1   8
BRANCH   4  19
ATOM     19  C   UNL     1       1.514   7.153  20.387  0.00  0.00    +0.000 C 
BRANCH  19  20
ATOM     20  N   UNL     1       1.723   8.100  21.496  0.00  0.00    +0.000 NA
ATOM     21  H   UNL     1       2.534   8.710  21.383  0.00  0.00    +0.000 HD
BRANCH  20  22
ATOM     22  S   UNL     1       0.377   9.031  21.916  0.00  0.00    +0.000 S 
ATOM     23  O   UNL     1      -0.785   8.175  21.831  0.00  0.00    +0.000 OA
ATOM     24  O   UNL     1       0.705   9.757  23.119  0.00  0.00    +0.000 OA
BRANCH  22  25
ATOM     25  C   UNL     1       0.182  10.277  20.664  0.00  0.00    +0.000 A 
ATOM     26  C   UNL     1      -0.008  10.195  19.297  0.00  0.00    +0.000 A 
ATOM     27  C   UNL     1      -0.169  11.478  18.696  0.00  0.00    +0.000 A 
ATOM     28  C   UNL     1      -0.097  12.475  19.636  0.00  0.00    +0.000 A 
ATOM     29 BR   UNL     1      -0.277  14.294  19.232  0.00  0.00    +0.000 Br
ATOM     30  S   UNL     1       0.158  11.900  21.209  0.00  0.00    +0.000 S 
ENDBRANCH  22  25
ENDBRANCH  20  22
ENDBRANCH  19  20
ENDBRANCH   4  19
TORSDOF 7
ENDMDL
MODEL 5
REMARK VINA RESULT:      -7.2      4.875      7.294
REMARK  Name = 
REMARK  8 active torsions:
REMARK  status: ('A' for Active; 'I' for Inactive)
REMARK    1  A    between atoms: C_1  and  C_2
REMARK    2  A    between atoms: C_2  and  C_3
REMARK    3  A    between atoms: C_7  and  N_8
REMARK    4  A    between atoms: C_9  and  C_11
REMARK    5  A    between atoms: C_14  and  C_15
REMARK    6  A    between atoms: C_15  and  N_16
REMARK    7  A    between atoms: N_16  and  S_17
REMARK    8  A    between atoms: S_17  and  C_20
REMARK                            x       y       z     vdW  Elec       q    Type
REMARK                         _______ _______ _______ _____ _____    ______ ____
ROOT
ATOM      1  C   UNL     1       2.852   6.623  19.396  0.00  0.00    +0.000 C 
ATOM      2  C   UNL     1       2.684   5.537  20.467  0.00  0.00    +0.000 C 
ATOM      3  C   UNL     1       1.323   4.845  20.383  0.00  0.00    +0.000 C 
ATOM      4  C   UNL     1       1.019   4.266  18.989  0.00  0.00    +0.000 C 
ATOM      5  C   UNL     1       1.201   5.341  17.909  0.00  0.00    +0.000 C 
ATOM      6  C   UNL     1       2.564   6.047  17.994  0.00  0.00    +0.000 C 
ENDROOT
BRANCH   1   8
ATOM      7  N   UNL     1       1.698   8.623  18.514  0.00  0.00    +0.000 N 
ATOM      8  C   UNL     1       1.960   7.843  19.623  0.00  0.00    +0.000 C 
ATOM      9  O   UNL     1       1.477   8.052  20.737  0.00  0.00    +0.000 OA
ATOM     10  H   UNL     1       1.894   8.241  17.602  0.00  0.00    +0.000 HD
BRANCH   7  15
ATOM     11  C   UNL     1      -1.092  11.081  18.448  0.00  0.00    +0.000 A 
ATOM     12  C   UNL     1      -0.407  12.288  18.631  0.00  0.00    +0.000 A 
ATOM     13  C   UNL     1       0.975  12.287  18.761  0.00  0.00    +0.000 A 
ATOM     14  C   UNL     1       1.676  11.084  18.705  0.00  0.00    +0.000 A 
ATOM     15  C   UNL     1       1.010   9.860  18.570  0.00  0.00    +0.000 A 
ATOM     16  C   UNL     1      -0.379   9.866  18.440  0.00  0.00    +0.000 A 
BRANCH  11  18
ATOM     17  C   UNL     1      -2.760  11.121  16.622  0.00  0.00    +0.000 C 
ATOM     18  C   UNL     1      -2.565  11.087  18.132  0.00  0.00    +0.000 C 
ENDBRANCH  11  18
ENDBRANCH   7  15
ENDBRANCH   1   8
BRANCH   4  19
ATOM     19  C   UNL     1       1.873   3.036  18.649  0.00  0.00    +0.000 C 
BRANCH  19  20
ATOM     20  N   UNL     1       2.764   2.710  19.776  0.00  0.00    +0.000 NA
ATOM     21  H   UNL     1       2.362   2.068  20.461  0.00  0.00    +0.000 HD
BRANCH  20  22
ATOM     22  S   UNL     1       4.307   2.173  19.346  0.00  0.00    +0.000 S 
ATOM     23  O   UNL     1       5.106   2.142  20.549  0.00  0.00    +0.000 OA
ATOM     24  O   UNL     1       4.147   1.011  18.505  0.00  0.00    +0.000 OA
BRANCH  22  25
ATOM     25  C   UNL     1       5.025   3.409  18.291  0.00  0.00    +0.000 A 
ATOM     26  C   UNL     1       4.922   3.641  16.931  0.00  0.00    +0.000 A 
ATOM     27  C   UNL     1       5.643   4.802  16.525  0.00  0.00    +0.000 A 
ATOM     28  C   UNL     1       6.259   5.399  17.596  0.00  0.00    +0.000 A 
ATOM     29 BR   UNL     1       7.289   6.957  17.461  0.00  0.00    +0.000 Br
ATOM     30  S   UNL     1       5.987   4.598  19.063  0.00  0.00    +0.000 S 
ENDBRANCH  22  25
ENDBRANCH  20  22
ENDBRANCH  19  20
ENDBRANCH   4  19
TORSDOF 7
ENDMDL
MODEL 6
REMARK VINA RESULT:      -7.2      4.965      7.426
REMARK  Name = 
REMARK  8 active torsions:
REMARK  status: ('A' for Active; 'I' for Inactive)
REMARK    1  A    between atoms: C_1  and  C_2
REMARK    2  A    between atoms: C_2  and  C_3
REMARK    3  A    between atoms: C_7  and  N_8
REMARK    4  A    between atoms: C_9  and  C_11
REMARK    5  A    between atoms: C_14  and  C_15
REMARK    6  A    between atoms: C_15  and  N_16
REMARK    7  A    between atoms: N_16  and  S_17
REMARK    8  A    between atoms: S_17  and  C_20
REMARK                            x       y       z     vdW  Elec       q    Type
REMARK                         _______ _______ _______ _____ _____    ______ ____
ROOT
ATOM      1  C   UNL     1       2.834   6.454  19.685  0.00  0.00    +0.000 C 
ATOM      2  C   UNL     1       2.481   5.317  20.654  0.00  0.00    +0.000 C 
ATOM      3  C   UNL     1       1.106   4.714  20.365  0.00  0.00    +0.000 C 
ATOM      4  C   UNL     1       0.942   4.240  18.909  0.00  0.00    +0.000 C 
ATOM      5  C   UNL     1       1.309   5.366  17.932  0.00  0.00    +0.000 C 
ATOM      6  C   UNL     1       2.687   5.983  18.223  0.00  0.00    +0.000 C 
ENDROOT
BRANCH   1   8
ATOM      7  N   UNL     1       1.564   7.961  21.178  0.00  0.00    +0.000 N 
ATOM      8  C   UNL     1       1.985   7.709  19.888  0.00  0.00    +0.000 C 
ATOM      9  O   UNL     1       1.759   8.458  18.935  0.00  0.00    +0.000 OA
ATOM     10  H   UNL     1       2.013   7.467  21.933  0.00  0.00    +0.000 HD
BRANCH   7  15
ATOM     11  C   UNL     1      -0.641  10.936  20.833  0.00  0.00    +0.000 A 
ATOM     12  C   UNL     1      -1.102  11.096  22.145  0.00  0.00    +0.000 A 
ATOM     13  C   UNL     1      -0.673  10.231  23.141  0.00  0.00    +0.000 A 
ATOM     14  C   UNL     1       0.221   9.206  22.832  0.00  0.00    +0.000 A 
ATOM     15  C   UNL     1       0.660   8.996  21.520  0.00  0.00    +0.000 A 
ATOM     16  C   UNL     1       0.224   9.868  20.522  0.00  0.00    +0.000 A 
BRANCH  11  18
ATOM     17  C   UNL     1      -2.380  12.483  20.000  0.00  0.00    +0.000 C 
ATOM     18  C   UNL     1      -0.963  11.970  19.786  0.00  0.00    +0.000 C 
ENDBRANCH  11  18
ENDBRANCH   7  15
ENDBRANCH   1   8
BRANCH   4  19
ATOM     19  C   UNL     1       1.766   2.984  18.590  0.00  0.00    +0.000 C 
BRANCH  19  20
ATOM     20  N   UNL     1       2.677   2.677  19.705  0.00  0.00    +0.000 NA
ATOM     21  H   UNL     1       2.283   2.057  20.415  0.00  0.00    +0.000 HD
BRANCH  20  22
ATOM     22  S   UNL     1       4.206   2.113  19.256  0.00  0.00    +0.000 S 
ATOM     23  O   UNL     1       5.009   2.040  20.455  0.00  0.00    +0.000 OA
ATOM     24  O   UNL     1       4.014   0.972  18.394  0.00  0.00    +0.000 OA
BRANCH  22  25
ATOM     25  C   UNL     1       4.947   3.353  18.223  0.00  0.00    +0.000 A 
ATOM     26  C   UNL     1       4.862   3.599  16.864  0.00  0.00    +0.000 A 
ATOM     27  C   UNL     1       5.598   4.757  16.477  0.00  0.00    +0.000 A 
ATOM     28  C   UNL     1       6.206   5.338  17.562  0.00  0.00    +0.000 A 
ATOM     29 BR   UNL     1       7.253   6.888  17.454  0.00  0.00    +0.000 Br
ATOM     30  S   UNL     1       5.910   4.525  19.017  0.00  0.00    +0.000 S 
ENDBRANCH  22  25
ENDBRANCH  20  22
ENDBRANCH  19  20
ENDBRANCH   4  19
TORSDOF 7
ENDMDL
MODEL 7
REMARK VINA RESULT:      -7.1      4.854      8.192
REMARK  Name = 
REMARK  8 active torsions:
REMARK  status: ('A' for Active; 'I' for Inactive)
REMARK    1  A    between atoms: C_1  and  C_2
REMARK    2  A    between atoms: C_2  and  C_3
REMARK    3  A    between atoms: C_7  and  N_8
REMARK    4  A    between atoms: C_9  and  C_11
REMARK    5  A    between atoms: C_14  and  C_15
REMARK    6  A    between atoms: C_15  and  N_16
REMARK    7  A    between atoms: N_16  and  S_17
REMARK    8  A    between atoms: S_17  and  C_20
REMARK                            x       y       z     vdW  Elec       q    Type
REMARK                         _______ _______ _______ _____ _____    ______ ____
ROOT
ATOM      1  C   UNL     1       2.499   8.208  19.256  0.00  0.00    +0.000 C 
ATOM      2  C   UNL     1       2.081   7.639  20.619  0.00  0.00    +0.000 C 
ATOM      3  C   UNL     1       1.061   6.508  20.487  0.00  0.00    +0.000 C 
ATOM      4  C   UNL     1       1.528   5.371  19.560  0.00  0.00    +0.000 C 
ATOM      5  C   UNL     1       1.965   5.932  18.200  0.00  0.00    +0.000 C 
ATOM      6  C   UNL     1       2.984   7.076  18.325  0.00  0.00    +0.000 C 
ENDROOT
BRANCH   1   8
ATOM      7  N   UNL     1       0.463   9.605  19.372  0.00  0.00    +0.000 N 
ATOM      8  C   UNL     1       1.385   8.983  18.554  0.00  0.00    +0.000 C 
ATOM      9  O   UNL     1       1.378   9.070  17.325  0.00  0.00    +0.000 OA
ATOM     10  H   UNL     1       0.689   9.720  20.347  0.00  0.00    +0.000 HD
BRANCH   7  15
ATOM     11  C   UNL     1      -2.485  11.869  19.242  0.00  0.00    +0.000 A 
ATOM     12  C   UNL     1      -3.052  11.519  18.011  0.00  0.00    +0.000 A 
ATOM     13  C   UNL     1      -2.469  10.528  17.236  0.00  0.00    +0.000 A 
ATOM     14  C   UNL     1      -1.320   9.880  17.687  0.00  0.00    +0.000 A 
ATOM     15  C   UNL     1      -0.706  10.244  18.892  0.00  0.00    +0.000 A 
ATOM     16  C   UNL     1      -1.297  11.242  19.667  0.00  0.00    +0.000 A 
BRANCH  11  18
ATOM     17  C   UNL     1      -4.702  12.744  19.899  0.00  0.00    +0.000 C 
ATOM     18  C   UNL     1      -3.205  12.816  20.166  0.00  0.00    +0.000 C 
ENDBRANCH  11  18
ENDBRANCH   7  15
ENDBRANCH   1   8
BRANCH   4  19
ATOM     19  C   UNL     1       2.662   4.530  20.165  0.00  0.00    +0.000 C 
BRANCH  19  20
ATOM     20  N   UNL     1       2.561   3.135  19.701  0.00  0.00    +0.000 NA
ATOM     21  H   UNL     1       1.811   2.966  19.029  0.00  0.00    +0.000 HD
BRANCH  20  22
ATOM     22  S   UNL     1       3.997   2.461  19.120  0.00  0.00    +0.000 S 
ATOM     23  O   UNL     1       4.859   2.232  20.257  0.00  0.00    +0.000 OA
ATOM     24  O   UNL     1       3.644   1.404  18.204  0.00  0.00    +0.000 OA
BRANCH  22  25
ATOM     25  C   UNL     1       4.794   3.692  18.118  0.00  0.00    +0.000 A 
ATOM     26  C   UNL     1       4.669   4.021  16.780  0.00  0.00    +0.000 A 
ATOM     27  C   UNL     1       5.483   5.134  16.418  0.00  0.00    +0.000 A 
ATOM     28  C   UNL     1       6.187   5.601  17.500  0.00  0.00    +0.000 A 
ATOM     29 BR   UNL     1       7.356   7.062  17.423  0.00  0.00    +0.000 Br
ATOM     30  S   UNL     1       5.888   4.733  18.924  0.00  0.00    +0.000 S 
ENDBRANCH  22  25
ENDBRANCH  20  22
ENDBRANCH  19  20
ENDBRANCH   4  19
TORSDOF 7
ENDMDL
MODEL 8
REMARK VINA RESULT:      -7.0      5.152      7.365
REMARK  Name = 
REMARK  8 active torsions:
REMARK  status: ('A' for Active; 'I' for Inactive)
REMARK    1  A    between atoms: C_1  and  C_2
REMARK    2  A    between atoms: C_2  and  C_3
REMARK    3  A    between atoms: C_7  and  N_8
REMARK    4  A    between atoms: C_9  and  C_11
REMARK    5  A    between atoms: C_14  and  C_15
REMARK    6  A    between atoms: C_15  and  N_16
REMARK    7  A    between atoms: N_16  and  S_17
REMARK    8  A    between atoms: S_17  and  C_20
REMARK                            x       y       z     vdW  Elec       q    Type
REMARK                         _______ _______ _______ _____ _____    ______ ____
ROOT
ATOM      1  C   UNL     1       2.065   4.477  17.981  0.00  0.00    +0.000 C 
ATOM      2  C   UNL     1       1.988   4.094  19.465  0.00  0.00    +0.000 C 
ATOM      3  C   UNL     1       2.898   4.960  20.336  0.00  0.00    +0.000 C 
ATOM      4  C   UNL     1       2.650   6.469  20.165  0.00  0.00    +0.000 C 
ATOM      5  C   UNL     1       2.708   6.860  18.682  0.00  0.00    +0.000 C 
ATOM      6  C   UNL     1       1.802   5.987  17.798  0.00  0.00    +0.000 C 
ENDROOT
BRANCH   1   8
ATOM      7  N   UNL     1       4.005   5.126  16.592  0.00  0.00    +0.000 N 
ATOM      8  C   UNL     1       3.404   4.127  17.332  0.00  0.00    +0.000 C 
ATOM      9  O   UNL     1       3.911   3.022  17.529  0.00  0.00    +0.000 OA
ATOM     10  H   UNL     1       3.673   6.071  16.705  0.00  0.00    +0.000 HD
BRANCH   7  15
ATOM     11  C   UNL     1       6.189   4.118  13.756  0.00  0.00    +0.000 A 
ATOM     12  C   UNL     1       7.454   4.480  14.234  0.00  0.00    +0.000 A 
ATOM     13  C   UNL     1       7.582   5.042  15.496  0.00  0.00    +0.000 A 
ATOM     14  C   UNL     1       6.451   5.241  16.285  0.00  0.00    +0.000 A 
ATOM     15  C   UNL     1       5.171   4.931  15.812  0.00  0.00    +0.000 A 
ATOM     16  C   UNL     1       5.047   4.367  14.542  0.00  0.00    +0.000 A 
BRANCH  11  18
ATOM     17  C   UNL     1       4.643   3.508  11.924  0.00  0.00    +0.000 C 
ATOM     18  C   UNL     1       6.058   3.351  12.466  0.00  0.00    +0.000 C 
ENDBRANCH  11  18
ENDBRANCH   7  15
ENDBRANCH   1   8
BRANCH   4  19
ATOM     19  C   UNL     1       1.318   6.932  20.772  0.00  0.00    +0.000 C 
BRANCH  19  20
ATOM     20  N   UNL     1       1.181   8.393  20.643  0.00  0.00    +0.000 NA
ATOM     21  H   UNL     1       0.725   8.700  19.782  0.00  0.00    +0.000 HD
BRANCH  20  22
ATOM     22  S   UNL     1       0.468   9.173  21.962  0.00  0.00    +0.000 S 
ATOM     23  O   UNL     1      -0.704   8.412  22.332  0.00  0.00    +0.000 OA
ATOM     24  O   UNL     1       1.514   9.473  22.909  0.00  0.00    +0.000 OA
BRANCH  22  25
ATOM     25  C   UNL     1      -0.110  10.754  21.396  0.00  0.00    +0.000 A 
ATOM     26  C   UNL     1      -1.251  11.481  21.684  0.00  0.00    +0.000 A 
ATOM     27  C   UNL     1      -1.266  12.746  21.026  0.00  0.00    +0.000 A 
ATOM     28  C   UNL     1      -0.134  12.921  20.270  0.00  0.00    +0.000 A 
ATOM     29 BR   UNL     1       0.212  14.465  19.268  0.00  0.00    +0.000 Br
ATOM     30  S   UNL     1       0.932  11.607  20.338  0.00  0.00    +0.000 S 
ENDBRANCH  22  25
ENDBRANCH  20  22
ENDBRANCH  19  20
ENDBRANCH   4  19
TORSDOF 7
ENDMDL
MODEL 9
REMARK VINA RESULT:      -7.0      5.017      7.468
REMARK  Name = 
REMARK  8 active torsions:
REMARK  status: ('A' for Active; 'I' for Inactive)
REMARK    1  A    between atoms: C_1  and  C_2
REMARK    2  A    between atoms: C_2  and  C_3
REMARK    3  A    between atoms: C_7  and  N_8
REMARK    4  A    between atoms: C_9  and  C_11
REMARK    5  A    between atoms: C_14  and  C_15
REMARK    6  A    between atoms: C_15  and  N_16
REMARK    7  A    between atoms: N_16  and  S_17
REMARK    8  A    between atoms: S_17  and  C_20
REMARK                            x       y       z     vdW  Elec       q    Type
REMARK                         _______ _______ _______ _____ _____    ______ ____
ROOT
ATOM      1  C   UNL     1       2.776   6.521  19.536  0.00  0.00    +0.000 C 
ATOM      2  C   UNL     1       2.558   5.416  20.578  0.00  0.00    +0.000 C 
ATOM      3  C   UNL     1       1.222   4.696  20.391  0.00  0.00    +0.000 C 
ATOM      4  C   UNL     1       1.028   4.132  18.972  0.00  0.00    +0.000 C 
ATOM      5  C   UNL     1       1.261   5.226  17.921  0.00  0.00    +0.000 C 
ATOM      6  C   UNL     1       2.599   5.960  18.110  0.00  0.00    +0.000 C 
ENDROOT
BRANCH   1   8
ATOM      7  N   UNL     1       1.634   8.504  18.599  0.00  0.00    +0.000 N 
ATOM      8  C   UNL     1       1.843   7.718  19.716  0.00  0.00    +0.000 C 
ATOM      9  O   UNL     1       1.285   7.905  20.798  0.00  0.00    +0.000 OA
ATOM     10  H   UNL     1       1.897   8.135  17.699  0.00  0.00    +0.000 HD
BRANCH   7  15
ATOM     11  C   UNL     1      -1.103  10.963  18.060  0.00  0.00    +0.000 A 
ATOM     12  C   UNL     1      -0.544  12.127  18.601  0.00  0.00    +0.000 A 
ATOM     13  C   UNL     1       0.739  12.099  19.129  0.00  0.00    +0.000 A 
ATOM     14  C   UNL     1       1.469  10.912  19.115  0.00  0.00    +0.000 A 
ATOM     15  C   UNL     1       0.916   9.724  18.623  0.00  0.00    +0.000 A 
ATOM     16  C   UNL     1      -0.374   9.757  18.094  0.00  0.00    +0.000 A 
BRANCH  11  18
ATOM     17  C   UNL     1      -3.252   9.799  17.688  0.00  0.00    +0.000 C 
ATOM     18  C   UNL     1      -2.419  11.024  17.331  0.00  0.00    +0.000 C 
ENDBRANCH  11  18
ENDBRANCH   7  15
ENDBRANCH   1   8
BRANCH   4  19
ATOM     19  C   UNL     1       1.932   2.925  18.676  0.00  0.00    +0.000 C 
BRANCH  19  20
ATOM     20  N   UNL     1       2.664   2.530  19.891  0.00  0.00    +0.000 NA
ATOM     21  H   UNL     1       2.197   1.816  20.453  0.00  0.00    +0.000 HD
BRANCH  20  22
ATOM     22  S   UNL     1       4.277   2.086  19.651  0.00  0.00    +0.000 S 
ATOM     23  O   UNL     1       4.918   2.065  20.946  0.00  0.00    +0.000 OA
ATOM     24  O   UNL     1       4.289   0.940  18.774  0.00  0.00    +0.000 OA
BRANCH  22  25
ATOM     25  C   UNL     1       5.053   3.386  18.721  0.00  0.00    +0.000 A 
ATOM     26  C   UNL     1       5.779   4.498  19.110  0.00  0.00    +0.000 A 
ATOM     27  C   UNL     1       6.261   5.245  17.996  0.00  0.00    +0.000 A 
ATOM     28  C   UNL     1       5.881   4.665  16.812  0.00  0.00    +0.000 A 
ATOM     29 BR   UNL     1       6.336   5.350  15.130  0.00  0.00    +0.000 Br
ATOM     30  S   UNL     1       4.966   3.254  17.016  0.00  0.00    +0.000 S 
ENDBRANCH  22  25
ENDBRANCH  20  22
ENDBRANCH  19  20
ENDBRANCH   4  19
TORSDOF 7
ENDMDL
