MODEL 1
REMARK VINA RESULT:      -7.5      0.000      0.000
REMARK  Name = 
REMARK  7 active torsions:
REMARK  status: ('A' for Active; 'I' for Inactive)
REMARK    1  A    between atoms: C_1  and  C_2
REMARK    2  A    between atoms: C_7  and  C_9
REMARK    3  A    between atoms: C_9  and  S_10
REMARK    4  A    between atoms: S_10  and  C_11
REMARK    5  A    between atoms: C_14  and  C_15
REMARK    6  A    between atoms: N_16  and  C_17
REMARK    7  A    between atoms: C_17  and  C_18
REMARK                            x       y       z     vdW  Elec       q    Type
REMARK                         _______ _______ _______ _____ _____    ______ ____
ROOT
ATOM      1  S   UNL     1       3.977   3.460  18.080  0.00  0.00    +0.000 S 
ENDROOT
BRANCH   1   2
ATOM      2  C   UNL     1       5.279   4.493  18.565  0.00  0.00    +0.000 A 
ATOM      3  N   UNL     1       5.964   4.400  19.681  0.00  0.00    +0.000 NA
ATOM      4  N   UNL     1       6.957   5.351  19.643  0.00  0.00    +0.000 NA
ATOM      5  C   UNL     1       6.863   6.002  18.502  0.00  0.00    +0.000 A 
ATOM      6  C   UNL     1       7.787   7.049  18.005  0.00  0.00    +0.000 C 
ATOM      7  N   UNL     1       5.769   5.527  17.813  0.00  0.00    +0.000 N 
BRANCH   7   8
ATOM      8  C   UNL     1       5.247   6.060  16.568  0.00  0.00    +0.000 C 
BRANCH   8   9
ATOM      9  C   UNL     1       5.760   5.290  15.410  0.00  0.00    +0.000 A 
ATOM     10  C   UNL     1       5.309   4.179  14.729  0.00  0.00    +0.000 A 
ATOM     11  C   UNL     1       6.271   3.906  13.728  0.00  0.00    +0.000 A 
ATOM     12  C   UNL     1       7.237   4.877  13.848  0.00  0.00    +0.000 A 
ATOM     13  O   UNL     1       6.935   5.727  14.866  0.00  0.00    +0.000 OA
ENDBRANCH   8   9
ENDBRANCH   7   8
ENDBRANCH   1   2
BRANCH   1  14
ATOM     14  C   UNL     1       3.144   3.169  19.672  0.00  0.00    +0.000 C 
BRANCH  14  21
ATOM     15  C   UNL     1       1.732  10.019  17.894  0.00  0.00    +0.000 C 
ATOM     16  C   UNL     1       1.772   8.898  18.870  0.00  0.00    +0.000 A 
ATOM     17  C   UNL     1       1.255   8.902  20.150  0.00  0.00    +0.000 A 
ATOM     18  S   UNL     1       1.487   7.368  20.876  0.00  0.00    +0.000 S 
ATOM     19  C   UNL     1       2.245   6.814  19.454  0.00  0.00    +0.000 A 
ATOM     20  N   UNL     1       2.733   5.536  19.315  0.00  0.00    +0.000 N 
ATOM     21  C   UNL     1       2.450   4.452  20.121  0.00  0.00    +0.000 C 
ATOM     22  O   UNL     1       1.701   4.442  21.096  0.00  0.00    +0.000 OA
ATOM     23  N   UNL     1       2.375   7.701  18.495  0.00  0.00    +0.000 NA
ATOM     24  H   UNL     1       3.223   5.395  18.443  0.00  0.00    +0.000 HD
ENDBRANCH  14  21
ENDBRANCH   1  14
TORSDOF 5
ENDMDL
MODEL 2
REMARK VINA RESULT:      -7.4      2.971      4.676
REMARK  Name = 
REMARK  7 active torsions:
REMARK  status: ('A' for Active; 'I' for Inactive)
REMARK    1  A    between atoms: C_1  and  C_2
REMARK    2  A    between atoms: C_7  and  C_9
REMARK    3  A    between atoms: C_9  and  S_10
REMARK    4  A    between atoms: S_10  and  C_11
REMARK    5  A    between atoms: C_14  and  C_15
REMARK    6  A    between atoms: N_16  and  C_17
REMARK    7  A    between atoms: C_17  and  C_18
REMARK                            x       y       z     vdW  Elec       q    Type
REMARK                         _______ _______ _______ _____ _____    ______ ____
ROOT
ATOM      1  S   UNL     1       2.633   6.768  19.325  0.00  0.00    +0.000 S 
ENDROOT
BRANCH   1   2
ATOM      2  C   UNL     1       2.468   5.203  18.603  0.00  0.00    +0.000 A 
ATOM      3  N   UNL     1       1.494   4.817  17.812  0.00  0.00    +0.000 NA
ATOM      4  N   UNL     1       1.779   3.540  17.391  0.00  0.00    +0.000 NA
ATOM      5  C   UNL     1       2.925   3.173  17.927  0.00  0.00    +0.000 A 
ATOM      6  C   UNL     1       3.653   1.908  17.672  0.00  0.00    +0.000 C 
ATOM      7  N   UNL     1       3.367   4.182  18.755  0.00  0.00    +0.000 N 
BRANCH   7   8
ATOM      8  C   UNL     1       4.526   4.126  19.625  0.00  0.00    +0.000 C 
BRANCH   8   9
ATOM      9  C   UNL     1       5.695   4.775  18.985  0.00  0.00    +0.000 A 
ATOM     10  C   UNL     1       6.045   5.032  17.676  0.00  0.00    +0.000 A 
ATOM     11  C   UNL     1       7.314   5.655  17.717  0.00  0.00    +0.000 A 
ATOM     12  C   UNL     1       7.650   5.758  19.046  0.00  0.00    +0.000 A 
ATOM     13  O   UNL     1       6.671   5.230  19.827  0.00  0.00    +0.000 OA
ENDBRANCH   8   9
ENDBRANCH   7   8
ENDBRANCH   1   2
BRANCH   1  14
ATOM     14  C   UNL     1       2.589   7.843  17.856  0.00  0.00    +0.000 C 
BRANCH  14  21
ATOM     15  C   UNL     1      -1.192  11.309  22.934  0.00  0.00    +0.000 C 
ATOM     16  C   UNL     1      -0.666  11.177  21.550  0.00  0.00    +0.000 A 
ATOM     17  C   UNL     1      -0.748  12.121  20.545  0.00  0.00    +0.000 A 
ATOM     18  S   UNL     1       0.050  11.549  19.142  0.00  0.00    +0.000 S 
ATOM     19  C   UNL     1       0.446  10.108  19.960  0.00  0.00    +0.000 A 
ATOM     20  N   UNL     1       1.160   9.087  19.376  0.00  0.00    +0.000 N 
ATOM     21  C   UNL     1       1.899   9.157  18.213  0.00  0.00    +0.000 C 
ATOM     22  O   UNL     1       2.055  10.150  17.505  0.00  0.00    +0.000 OA
ATOM     23  N   UNL     1      -0.010  10.006  21.187  0.00  0.00    +0.000 NA
ATOM     24  H   UNL     1       1.239   8.273  19.969  0.00  0.00    +0.000 HD
ENDBRANCH  14  21
ENDBRANCH   1  14
TORSDOF 5
ENDMDL
MODEL 3
REMARK VINA RESULT:      -7.2      3.358      5.549
REMARK  Name = 
REMARK  7 active torsions:
REMARK  status: ('A' for Active; 'I' for Inactive)
REMARK    1  A    between atoms: C_1  and  C_2
REMARK    2  A    between atoms: C_7  and  C_9
REMARK    3  A    between atoms: C_9  and  S_10
REMARK    4  A    between atoms: S_10  and  C_11
REMARK    5  A    between atoms: C_14  and  C_15
REMARK    6  A    between atoms: N_16  and  C_17
REMARK    7  A    between atoms: C_17  and  C_18
REMARK                            x       y       z     vdW  Elec       q    Type
REMARK                         _______ _______ _______ _____ _____    ______ ____
ROOT
ATOM      1  S   UNL     1       2.368   7.456  19.061  0.00  0.00    +0.000 S 
ENDROOT
BRANCH   1   2
ATOM      2  C   UNL     1       3.458   6.559  18.059  0.00  0.00    +0.000 A 
ATOM      3  N   UNL     1       4.618   6.979  17.612  0.00  0.00    +0.000 NA
ATOM      4  N   UNL     1       5.204   5.940  16.927  0.00  0.00    +0.000 NA
ATOM      5  C   UNL     1       4.393   4.903  16.976  0.00  0.00    +0.000 A 
ATOM      6  C   UNL     1       4.665   3.545  16.447  0.00  0.00    +0.000 C 
ATOM      7  N   UNL     1       3.242   5.275  17.636  0.00  0.00    +0.000 N 
BRANCH   7   8
ATOM      8  C   UNL     1       2.050   4.464  17.796  0.00  0.00    +0.000 C 
BRANCH   8   9
ATOM      9  C   UNL     1       1.996   3.872  19.154  0.00  0.00    +0.000 A 
ATOM     10  C   UNL     1       0.979   3.652  20.059  0.00  0.00    +0.000 A 
ATOM     11  C   UNL     1       1.579   3.079  21.204  0.00  0.00    +0.000 A 
ATOM     12  C   UNL     1       2.920   2.967  20.921  0.00  0.00    +0.000 A 
ATOM     13  O   UNL     1       3.185   3.443  19.675  0.00  0.00    +0.000 OA
ENDBRANCH   8   9
ENDBRANCH   7   8
ENDBRANCH   1   2
BRANCH   1  14
ATOM     14  C   UNL     1       2.088   8.938  18.041  0.00  0.00    +0.000 C 
BRANCH  14  21
ATOM     15  C   UNL     1      -4.614  11.327  16.829  0.00  0.00    +0.000 C 
ATOM     16  C   UNL     1      -3.340  11.324  17.595  0.00  0.00    +0.000 A 
ATOM     17  C   UNL     1      -3.092  11.985  18.781  0.00  0.00    +0.000 A 
ATOM     18  S   UNL     1      -1.504  11.639  19.320  0.00  0.00    +0.000 S 
ATOM     19  C   UNL     1      -1.263  10.644  17.959  0.00  0.00    +0.000 A 
ATOM     20  N   UNL     1      -0.088   9.970  17.721  0.00  0.00    +0.000 N 
ATOM     21  C   UNL     1       0.930   9.742  18.625  0.00  0.00    +0.000 C 
ATOM     22  O   UNL     1       0.953  10.094  19.804  0.00  0.00    +0.000 OA
ATOM     23  N   UNL     1      -2.264  10.586  17.112  0.00  0.00    +0.000 NA
ATOM     24  H   UNL     1      -0.081   9.491  16.832  0.00  0.00    +0.000 HD
ENDBRANCH  14  21
ENDBRANCH   1  14
TORSDOF 5
ENDMDL
MODEL 4
REMARK VINA RESULT:      -7.1      2.404      6.679
REMARK  Name = 
REMARK  7 active torsions:
REMARK  status: ('A' for Active; 'I' for Inactive)
REMARK    1  A    between atoms: C_1  and  C_2
REMARK    2  A    between atoms: C_7  and  C_9
REMARK    3  A    between atoms: C_9  and  S_10
REMARK    4  A    between atoms: S_10  and  C_11
REMARK    5  A    between atoms: C_14  and  C_15
REMARK    6  A    between atoms: N_16  and  C_17
REMARK    7  A    between atoms: C_17  and  C_18
REMARK                            x       y       z     vdW  Elec       q    Type
REMARK                         _______ _______ _______ _____ _____    ______ ____
ROOT
ATOM      1  S   UNL     1       5.732   4.607  18.867  0.00  0.00    +0.000 S 
ENDROOT
BRANCH   1   2
ATOM      2  C   UNL     1       4.229   3.842  18.474  0.00  0.00    +0.000 A 
ATOM      3  N   UNL     1       4.032   2.980  17.505  0.00  0.00    +0.000 NA
ATOM      4  N   UNL     1       2.728   2.552  17.584  0.00  0.00    +0.000 NA
ATOM      5  C   UNL     1       2.155   3.157  18.605  0.00  0.00    +0.000 A 
ATOM      6  C   UNL     1       0.781   2.924  19.109  0.00  0.00    +0.000 C 
ATOM      7  N   UNL     1       3.060   4.033  19.161  0.00  0.00    +0.000 N 
BRANCH   7   8
ATOM      8  C   UNL     1       2.788   4.979  20.228  0.00  0.00    +0.000 C 
BRANCH   8   9
ATOM      9  C   UNL     1       2.443   6.310  19.675  0.00  0.00    +0.000 A 
ATOM     10  C   UNL     1       1.989   7.486  20.233  0.00  0.00    +0.000 A 
ATOM     11  C   UNL     1       1.815   8.396  19.163  0.00  0.00    +0.000 A 
ATOM     12  C   UNL     1       2.192   7.725  18.023  0.00  0.00    +0.000 A 
ATOM     13  O   UNL     1       2.580   6.457  18.323  0.00  0.00    +0.000 OA
ENDBRANCH   8   9
ENDBRANCH   7   8
ENDBRANCH   1   2
BRANCH   1  14
ATOM     14  C   UNL     1       5.672   6.078  17.795  0.00  0.00    +0.000 C 
BRANCH  14  21
ATOM     15  C   UNL     1       4.596   3.017  11.348  0.00  0.00    +0.000 C 
ATOM     16  C   UNL     1       5.479   3.590  12.398  0.00  0.00    +0.000 A 
ATOM     17  C   UNL     1       6.831   3.847  12.286  0.00  0.00    +0.000 A 
ATOM     18  S   UNL     1       7.409   4.562  13.731  0.00  0.00    +0.000 S 
ATOM     19  C   UNL     1       5.841   4.484  14.393  0.00  0.00    +0.000 A 
ATOM     20  N   UNL     1       5.538   4.933  15.657  0.00  0.00    +0.000 N 
ATOM     21  C   UNL     1       6.317   5.750  16.452  0.00  0.00    +0.000 C 
ATOM     22  O   UNL     1       7.413   6.225  16.158  0.00  0.00    +0.000 OA
ATOM     23  N   UNL     1       4.929   3.926  13.631  0.00  0.00    +0.000 NA
ATOM     24  H   UNL     1       4.583   4.741  15.925  0.00  0.00    +0.000 HD
ENDBRANCH  14  21
ENDBRANCH   1  14
TORSDOF 5
ENDMDL
MODEL 5
REMARK VINA RESULT:      -7.1      3.123      4.562
REMARK  Name = 
REMARK  7 active torsions:
REMARK  status: ('A' for Active; 'I' for Inactive)
REMARK    1  A    between atoms: C_1  and  C_2
REMARK    2  A    between atoms: C_7  and  C_9
REMARK    3  A    between atoms: C_9  and  S_10
REMARK    4  A    between atoms: S_10  and  C_11
REMARK    5  A    between atoms: C_14  and  C_15
REMARK    6  A    between atoms: N_16  and  C_17
REMARK    7  A    between atoms: C_17  and  C_18
REMARK                            x       y       z     vdW  Elec       q    Type
REMARK                         _______ _______ _______ _____ _____    ______ ____
ROOT
ATOM      1  S   UNL     1       2.887   6.873  18.154  0.00  0.00    +0.000 S 
ENDROOT
BRANCH   1   2
ATOM      2  C   UNL     1       2.481   5.190  18.125  0.00  0.00    +0.000 A 
ATOM      3  N   UNL     1       1.363   4.673  17.673  0.00  0.00    +0.000 NA
ATOM      4  N   UNL     1       1.472   3.305  17.752  0.00  0.00    +0.000 NA
ATOM      5  C   UNL     1       2.659   3.012  18.244  0.00  0.00    +0.000 A 
ATOM      6  C   UNL     1       3.233   1.656  18.415  0.00  0.00    +0.000 C 
ATOM      7  N   UNL     1       3.309   4.187  18.552  0.00  0.00    +0.000 N 
BRANCH   7   8
ATOM      8  C   UNL     1       4.589   4.303  19.226  0.00  0.00    +0.000 C 
BRANCH   8   9
ATOM      9  C   UNL     1       5.692   4.417  18.242  0.00  0.00    +0.000 A 
ATOM     10  C   UNL     1       5.743   4.438  16.864  0.00  0.00    +0.000 A 
ATOM     11  C   UNL     1       7.111   4.535  16.516  0.00  0.00    +0.000 A 
ATOM     12  C   UNL     1       7.807   4.586  17.701  0.00  0.00    +0.000 A 
ATOM     13  O   UNL     1       6.954   4.520  18.758  0.00  0.00    +0.000 OA
ENDBRANCH   8   9
ENDBRANCH   7   8
ENDBRANCH   1   2
BRANCH   1  14
ATOM     14  C   UNL     1       2.200   7.375  19.764  0.00  0.00    +0.000 C 
BRANCH  14  21
ATOM     15  C   UNL     1      -1.827  12.297  23.176  0.00  0.00    +0.000 C 
ATOM     16  C   UNL     1      -1.283  11.674  21.941  0.00  0.00    +0.000 A 
ATOM     17  C   UNL     1      -1.414  12.151  20.652  0.00  0.00    +0.000 A 
ATOM     18  S   UNL     1      -0.571  11.132  19.565  0.00  0.00    +0.000 S 
ATOM     19  C   UNL     1      -0.095  10.143  20.867  0.00  0.00    +0.000 A 
ATOM     20  N   UNL     1       0.685   9.021  20.711  0.00  0.00    +0.000 N 
ATOM     21  C   UNL     1       1.428   8.681  19.598  0.00  0.00    +0.000 C 
ATOM     22  O   UNL     1       1.529   9.332  18.560  0.00  0.00    +0.000 OA
ATOM     23  N   UNL     1      -0.553  10.494  22.047  0.00  0.00    +0.000 NA
ATOM     24  H   UNL     1       0.809   8.504  21.570  0.00  0.00    +0.000 HD
ENDBRANCH  14  21
ENDBRANCH   1  14
TORSDOF 5
ENDMDL
MODEL 6
REMARK VINA RESULT:      -7.1      3.175      4.769
REMARK  Name = 
REMARK  7 active torsions:
REMARK  status: ('A' for Active; 'I' for Inactive)
REMARK    1  A    between atoms: C_1  and  C_2
REMARK    2  A    between atoms: C_7  and  C_9
REMARK    3  A    between atoms: C_9  and  S_10
REMARK    4  A    between atoms: S_10  and  C_11
REMARK    5  A    between atoms: C_14  and  C_15
REMARK    6  A    between atoms: N_16  and  C_17
REMARK    7  A    between atoms: C_17  and  C_18
REMARK                            x       y       z     vdW  Elec       q    Type
REMARK                         _______ _______ _______ _____ _____    ______ ____
ROOT
ATOM      1  S   UNL     1       2.689   7.007  18.467  0.00  0.00    +0.000 S 
ENDROOT
BRANCH   1   2
ATOM      2  C   UNL     1       4.126   6.504  17.643  0.00  0.00    +0.000 A 
ATOM      3  N   UNL     1       4.559   6.966  16.494  0.00  0.00    +0.000 NA
ATOM      4  N   UNL     1       5.770   6.368  16.232  0.00  0.00    +0.000 NA
ATOM      5  C   UNL     1       6.056   5.557  17.230  0.00  0.00    +0.000 A 
ATOM      6  C   UNL     1       7.305   4.779  17.405  0.00  0.00    +0.000 C 
ATOM      7  N   UNL     1       5.005   5.568  18.121  0.00  0.00    +0.000 N 
BRANCH   7   8
ATOM      8  C   UNL     1       4.869   4.723  19.292  0.00  0.00    +0.000 C 
BRANCH   8   9
ATOM      9  C   UNL     1       3.869   3.655  19.056  0.00  0.00    +0.000 A 
ATOM     10  C   UNL     1       2.753   3.224  19.743  0.00  0.00    +0.000 A 
ATOM     11  C   UNL     1       2.233   2.129  19.015  0.00  0.00    +0.000 A 
ATOM     12  C   UNL     1       3.051   1.972  17.920  0.00  0.00    +0.000 A 
ATOM     13  O   UNL     1       4.047   2.897  17.933  0.00  0.00    +0.000 OA
ENDBRANCH   8   9
ENDBRANCH   7   8
ENDBRANCH   1   2
BRANCH   1  14
ATOM     14  C   UNL     1       2.414   8.648  17.728  0.00  0.00    +0.000 C 
BRANCH  14  21
ATOM     15  C   UNL     1      -4.189  11.476  17.028  0.00  0.00    +0.000 C 
ATOM     16  C   UNL     1      -2.925  11.265  17.781  0.00  0.00    +0.000 A 
ATOM     17  C   UNL     1      -2.668  11.650  19.082  0.00  0.00    +0.000 A 
ATOM     18  S   UNL     1      -1.098  11.141  19.540  0.00  0.00    +0.000 S 
ATOM     19  C   UNL     1      -0.876  10.451  17.999  0.00  0.00    +0.000 A 
ATOM     20  N   UNL     1       0.278   9.801  17.628  0.00  0.00    +0.000 N 
ATOM     21  C   UNL     1       1.278   9.350  18.466  0.00  0.00    +0.000 C 
ATOM     22  O   UNL     1       1.300   9.443  19.692  0.00  0.00    +0.000 OA
ATOM     23  N   UNL     1      -1.870  10.609  17.155  0.00  0.00    +0.000 NA
ATOM     24  H   UNL     1       0.278   9.522  16.657  0.00  0.00    +0.000 HD
ENDBRANCH  14  21
ENDBRANCH   1  14
TORSDOF 5
ENDMDL
MODEL 7
REMARK VINA RESULT:      -7.0      2.425      6.797
REMARK  Name = 
REMARK  7 active torsions:
REMARK  status: ('A' for Active; 'I' for Inactive)
REMARK    1  A    between atoms: C_1  and  C_2
REMARK    2  A    between atoms: C_7  and  C_9
REMARK    3  A    between atoms: C_9  and  S_10
REMARK    4  A    between atoms: S_10  and  C_11
REMARK    5  A    between atoms: C_14  and  C_15
REMARK    6  A    between atoms: N_16  and  C_17
REMARK    7  A    between atoms: C_17  and  C_18
REMARK                            x       y       z     vdW  Elec       q    Type
REMARK                         _______ _______ _______ _____ _____    ______ ____
ROOT
ATOM      1  S   UNL     1       5.666   5.535  18.956  0.00  0.00    +0.000 S 
ENDROOT
BRANCH   1   2
ATOM      2  C   UNL     1       4.337   4.471  18.641  0.00  0.00    +0.000 A 
ATOM      3  N   UNL     1       4.348   3.443  17.826  0.00  0.00    +0.000 NA
ATOM      4  N   UNL     1       3.128   2.816  17.926  0.00  0.00    +0.000 NA
ATOM      5  C   UNL     1       2.398   3.470  18.806  0.00  0.00    +0.000 A 
ATOM      6  C   UNL     1       1.050   3.091  19.290  0.00  0.00    +0.000 C 
ATOM      7  N   UNL     1       3.110   4.567  19.240  0.00  0.00    +0.000 N 
BRANCH   7   8
ATOM      8  C   UNL     1       2.617   5.611  20.119  0.00  0.00    +0.000 C 
BRANCH   8   9
ATOM      9  C   UNL     1       2.295   6.836  19.351  0.00  0.00    +0.000 A 
ATOM     10  C   UNL     1       2.377   7.174  18.016  0.00  0.00    +0.000 A 
ATOM     11  C   UNL     1       1.948   8.519  17.917  0.00  0.00    +0.000 A 
ATOM     12  C   UNL     1       1.612   8.910  19.191  0.00  0.00    +0.000 A 
ATOM     13  O   UNL     1       1.815   7.894  20.071  0.00  0.00    +0.000 OA
ENDBRANCH   8   9
ENDBRANCH   7   8
ENDBRANCH   1   2
BRANCH   1  14
ATOM     14  C   UNL     1       7.048   4.602  18.226  0.00  0.00    +0.000 C 
BRANCH  14  21
ATOM     15  C   UNL     1       5.216   2.637  11.527  0.00  0.00    +0.000 C 
ATOM     16  C   UNL     1       6.016   3.444  12.486  0.00  0.00    +0.000 A 
ATOM     17  C   UNL     1       6.874   4.480  12.174  0.00  0.00    +0.000 A 
ATOM     18  S   UNL     1       7.527   5.147  13.610  0.00  0.00    +0.000 S 
ATOM     19  C   UNL     1       6.633   4.028  14.532  0.00  0.00    +0.000 A 
ATOM     20  N   UNL     1       6.677   3.984  15.906  0.00  0.00    +0.000 N 
ATOM     21  C   UNL     1       7.173   4.959  16.747  0.00  0.00    +0.000 C 
ATOM     22  O   UNL     1       7.651   6.041  16.410  0.00  0.00    +0.000 OA
ATOM     23  N   UNL     1       5.917   3.168  13.845  0.00  0.00    +0.000 NA
ATOM     24  H   UNL     1       6.152   3.212  16.292  0.00  0.00    +0.000 HD
ENDBRANCH  14  21
ENDBRANCH   1  14
TORSDOF 5
ENDMDL
MODEL 8
REMARK VINA RESULT:      -7.0      2.711      4.254
REMARK  Name = 
REMARK  7 active torsions:
REMARK  status: ('A' for Active; 'I' for Inactive)
REMARK    1  A    between atoms: C_1  and  C_2
REMARK    2  A    between atoms: C_7  and  C_9
REMARK    3  A    between atoms: C_9  and  S_10
REMARK    4  A    between atoms: S_10  and  C_11
REMARK    5  A    between atoms: C_14  and  C_15
REMARK    6  A    between atoms: N_16  and  C_17
REMARK    7  A    between atoms: C_17  and  C_18
REMARK                            x       y       z     vdW  Elec       q    Type
REMARK                         _______ _______ _______ _____ _____    ______ ____
ROOT
ATOM      1  S   UNL     1       2.331   6.118  20.044  0.00  0.00    +0.000 S 
ENDROOT
BRANCH   1   2
ATOM      2  C   UNL     1       2.249   4.479  19.491  0.00  0.00    +0.000 A 
ATOM      3  N   UNL     1       1.153   3.808  19.226  0.00  0.00    +0.000 NA
ATOM      4  N   UNL     1       1.523   2.577  18.738  0.00  0.00    +0.000 NA
ATOM      5  C   UNL     1       2.839   2.523  18.707  0.00  0.00    +0.000 A 
ATOM      6  C   UNL     1       3.665   1.417  18.168  0.00  0.00    +0.000 C 
ATOM      7  N   UNL     1       3.340   3.692  19.237  0.00  0.00    +0.000 N 
BRANCH   7   8
ATOM      8  C   UNL     1       4.738   3.983  19.495  0.00  0.00    +0.000 C 
BRANCH   8   9
ATOM      9  C   UNL     1       5.451   4.297  18.234  0.00  0.00    +0.000 A 
ATOM     10  C   UNL     1       5.039   4.540  16.941  0.00  0.00    +0.000 A 
ATOM     11  C   UNL     1       6.213   4.745  16.179  0.00  0.00    +0.000 A 
ATOM     12  C   UNL     1       7.266   4.635  17.057  0.00  0.00    +0.000 A 
ATOM     13  O   UNL     1       6.814   4.366  18.311  0.00  0.00    +0.000 OA
ENDBRANCH   8   9
ENDBRANCH   7   8
ENDBRANCH   1   2
BRANCH   1  14
ATOM     14  C   UNL     1       2.792   6.986  18.512  0.00  0.00    +0.000 C 
BRANCH  14  21
ATOM     15  C   UNL     1      -0.688  11.963  22.411  0.00  0.00    +0.000 C 
ATOM     16  C   UNL     1      -0.288  11.356  21.114  0.00  0.00    +0.000 A 
ATOM     17  C   UNL     1      -0.517  11.876  19.856  0.00  0.00    +0.000 A 
ATOM     18  S   UNL     1       0.178  10.856  18.669  0.00  0.00    +0.000 S 
ATOM     19  C   UNL     1       0.730   9.810  19.896  0.00  0.00    +0.000 A 
ATOM     20  N   UNL     1       1.443   8.663  19.638  0.00  0.00    +0.000 N 
ATOM     21  C   UNL     1       2.065   8.326  18.452  0.00  0.00    +0.000 C 
ATOM     22  O   UNL     1       2.097   9.004  17.426  0.00  0.00    +0.000 OA
ATOM     23  N   UNL     1       0.398  10.145  21.121  0.00  0.00    +0.000 NA
ATOM     24  H   UNL     1       1.623   8.116  20.468  0.00  0.00    +0.000 HD
ENDBRANCH  14  21
ENDBRANCH   1  14
TORSDOF 5
ENDMDL
MODEL 9
REMARK VINA RESULT:      -7.0      2.552      3.970
REMARK  Name = 
REMARK  7 active torsions:
REMARK  status: ('A' for Active; 'I' for Inactive)
REMARK    1  A    between atoms: C_1  and  C_2
REMARK    2  A    between atoms: C_7  and  C_9
REMARK    3  A    between atoms: C_9  and  S_10
REMARK    4  A    between atoms: S_10  and  C_11
REMARK    5  A    between atoms: C_14  and  C_15
REMARK    6  A    between atoms: N_16  and  C_17
REMARK    7  A    between atoms: C_17  and  C_18
REMARK                            x       y       z     vdW  Elec       q    Type
REMARK                         _______ _______ _______ _____ _____    ______ ____
ROOT
ATOM      1  S   UNL     1       2.406   6.505  18.107  0.00  0.00    +0.000 S 
ENDROOT
BRANCH   1   2
ATOM      2  C   UNL     1       2.286   4.778  18.069  0.00  0.00    +0.000 A 
ATOM      3  N   UNL     1       1.261   4.085  17.632  0.00  0.00    +0.000 NA
ATOM      4  N   UNL     1       1.598   2.753  17.696  0.00  0.00    +0.000 NA
ATOM      5  C   UNL     1       2.826   2.659  18.165  0.00  0.00    +0.000 A 
ATOM      6  C   UNL     1       3.621   1.417  18.313  0.00  0.00    +0.000 C 
ATOM      7  N   UNL     1       3.278   3.924  18.473  0.00  0.00    +0.000 N 
BRANCH   7   8
ATOM      8  C   UNL     1       4.533   4.247  19.126  0.00  0.00    +0.000 C 
BRANCH   8   9
ATOM      9  C   UNL     1       5.622   4.385  18.130  0.00  0.00    +0.000 A 
ATOM     10  C   UNL     1       5.654   4.442  16.753  0.00  0.00    +0.000 A 
ATOM     11  C   UNL     1       7.017   4.545  16.388  0.00  0.00    +0.000 A 
ATOM     12  C   UNL     1       7.729   4.565  17.564  0.00  0.00    +0.000 A 
ATOM     13  O   UNL     1       6.891   4.472  18.631  0.00  0.00    +0.000 OA
ENDBRANCH   8   9
ENDBRANCH   7   8
ENDBRANCH   1   2
BRANCH   1  14
ATOM     14  C   UNL     1       2.614   6.806  19.891  0.00  0.00    +0.000 C 
BRANCH  14  21
ATOM     15  C   UNL     1      -0.787  12.913  18.094  0.00  0.00    +0.000 C 
ATOM     16  C   UNL     1      -0.392  11.871  19.078  0.00  0.00    +0.000 A 
ATOM     17  C   UNL     1      -0.850  11.750  20.375  0.00  0.00    +0.000 A 
ATOM     18  S   UNL     1      -0.160  10.364  21.108  0.00  0.00    +0.000 S 
ATOM     19  C   UNL     1       0.684  10.027  19.668  0.00  0.00    +0.000 A 
ATOM     20  N   UNL     1       1.520   8.944  19.524  0.00  0.00    +0.000 N 
ATOM     21  C   UNL     1       1.590   7.840  20.350  0.00  0.00    +0.000 C 
ATOM     22  O   UNL     1       0.906   7.632  21.351  0.00  0.00    +0.000 OA
ATOM     23  N   UNL     1       0.521  10.895  18.696  0.00  0.00    +0.000 NA
ATOM     24  H   UNL     1       2.004   8.934  18.638  0.00  0.00    +0.000 HD
ENDBRANCH  14  21
ENDBRANCH   1  14
TORSDOF 5
ENDMDL
