MODEL 1
REMARK VINA RESULT:      -8.0      0.000      0.000
REMARK  Name = 
REMARK  9 active torsions:
REMARK  status: ('A' for Active; 'I' for Inactive)
REMARK    1  A    between atoms: C_1  and  C_2
REMARK    2  A    between atoms: C_2  and  C_3
REMARK    3  A    between atoms: C_3  and  C_4
REMARK    4  A    between atoms: C_4  and  C_5
REMARK    5  A    between atoms: C_5  and  C_6
REMARK    6  A    between atoms: C_6  and  C_7
REMARK    7  A    between atoms: C_7  and  C_8
REMARK    8  A    between atoms: C_8  and  N_9
REMARK    9  A    between atoms: N_12  and  C_13
REMARK                            x       y       z     vdW  Elec       q    Type
REMARK                         _______ _______ _______ _____ _____    ______ ____
ROOT
ATOM      1  N   UNL     1       6.662   6.055  16.149  0.00  0.00    +0.000 NA
ATOM      2  C   UNL     1       5.191   6.117  15.971  0.00  0.00    +0.000 C 
ATOM      3  C   UNL     1       4.411   4.968  16.646  0.00  0.00    +0.000 C 
ATOM      4  N   UNL     1       4.770   4.917  18.070  0.00  0.00    +0.000 N 
ATOM      5  C   UNL     1       6.206   4.875  18.370  0.00  0.00    +0.000 C 
ATOM      6  C   UNL     1       6.939   6.003  17.607  0.00  0.00    +0.000 C 
ENDROOT
BRANCH   4   7
ATOM      7  C   UNL     1       3.798   4.668  19.021  0.00  0.00    +0.000 A 
ATOM      8  C   UNL     1       3.646   3.385  19.588  0.00  0.00    +0.000 A 
ATOM      9  C   UNL     1       2.767   3.113  20.640  0.00  0.00    +0.000 A 
ATOM     10  C   UNL     1       1.970   4.122  21.185  0.00  0.00    +0.000 A 
ATOM     11  C   UNL     1       2.057   5.411  20.639  0.00  0.00    +0.000 A 
ATOM     12  C   UNL     1       1.432   6.658  20.910  0.00  0.00    +0.000 A 
ATOM     13  C   UNL     1       1.945   7.558  20.006  0.00  0.00    +0.000 A 
ATOM     14  O   UNL     1       2.857   6.953  19.206  0.00  0.00    +0.000 OA
ATOM     15  C   UNL     1       2.946   5.639  19.592  0.00  0.00    +0.000 A 
ENDBRANCH   4   7
BRANCH   1  16
ATOM     16  C   UNL     1       7.271   4.905  15.461  0.00  0.00    +0.000 C 
BRANCH  16  17
ATOM     17  C   UNL     1       7.033   4.898  13.948  0.00  0.00    +0.000 C 
BRANCH  17  18
ATOM     18  C   UNL     1       6.160   3.723  13.514  0.00  0.00    +0.000 C 
BRANCH  18  19
ATOM     19  C   UNL     1       6.443   3.332  12.071  0.00  0.00    +0.000 C 
BRANCH  19  20
ATOM     20  C   UNL     1       5.277   2.529  11.497  0.00  0.00    +0.000 C 
BRANCH  20  21
ATOM     21  C   UNL     1       4.006   3.371  11.463  0.00  0.00    +0.000 C 
BRANCH  21  23
ATOM     22  C   UNL     1       2.837   4.429   9.514  0.00  0.00    +0.000 C 
ATOM     23  C   UNL     1       3.213   3.120  10.185  0.00  0.00    +0.000 C 
ENDBRANCH  21  23
ENDBRANCH  20  21
ENDBRANCH  19  20
ENDBRANCH  18  19
ENDBRANCH  17  18
ENDBRANCH  16  17
ENDBRANCH   1  16
TORSDOF 8
ENDMDL
MODEL 2
REMARK VINA RESULT:      -7.5      3.652      6.936
REMARK  Name = 
REMARK  9 active torsions:
REMARK  status: ('A' for Active; 'I' for Inactive)
REMARK    1  A    between atoms: C_1  and  C_2
REMARK    2  A    between atoms: C_2  and  C_3
REMARK    3  A    between atoms: C_3  and  C_4
REMARK    4  A    between atoms: C_4  and  C_5
REMARK    5  A    between atoms: C_5  and  C_6
REMARK    6  A    between atoms: C_6  and  C_7
REMARK    7  A    between atoms: C_7  and  C_8
REMARK    8  A    between atoms: C_8  and  N_9
REMARK    9  A    between atoms: N_12  and  C_13
REMARK                            x       y       z     vdW  Elec       q    Type
REMARK                         _______ _______ _______ _____ _____    ______ ____
ROOT
ATOM      1  N   UNL     1       7.548   6.169  17.184  0.00  0.00    +0.000 NA
ATOM      2  C   UNL     1       7.414   4.802  17.745  0.00  0.00    +0.000 C 
ATOM      3  C   UNL     1       6.211   4.610  18.694  0.00  0.00    +0.000 C 
ATOM      4  N   UNL     1       4.983   5.019  18.000  0.00  0.00    +0.000 N 
ATOM      5  C   UNL     1       5.006   6.351  17.384  0.00  0.00    +0.000 C 
ATOM      6  C   UNL     1       6.270   6.506  16.506  0.00  0.00    +0.000 C 
ENDROOT
BRANCH   4   7
ATOM      7  C   UNL     1       3.821   4.286  18.156  0.00  0.00    +0.000 A 
ATOM      8  C   UNL     1       3.581   3.130  17.383  0.00  0.00    +0.000 A 
ATOM      9  C   UNL     1       2.485   2.287  17.589  0.00  0.00    +0.000 A 
ATOM     10  C   UNL     1       1.549   2.563  18.588  0.00  0.00    +0.000 A 
ATOM     11  C   UNL     1       1.721   3.718  19.366  0.00  0.00    +0.000 A 
ATOM     12  C   UNL     1       1.009   4.317  20.440  0.00  0.00    +0.000 A 
ATOM     13  C   UNL     1       1.693   5.462  20.771  0.00  0.00    +0.000 A 
ATOM     14  O   UNL     1       2.789   5.601  19.985  0.00  0.00    +0.000 OA
ATOM     15  C   UNL     1       2.827   4.530  19.128  0.00  0.00    +0.000 A 
ENDBRANCH   4   7
BRANCH   1  16
ATOM     16  C   UNL     1       7.876   7.175  18.207  0.00  0.00    +0.000 C 
BRANCH  16  17
ATOM     17  C   UNL     1       8.008   8.596  17.651  0.00  0.00    +0.000 C 
BRANCH  17  18
ATOM     18  C   UNL     1       8.733   9.523  18.624  0.00  0.00    +0.000 C 
BRANCH  18  19
ATOM     19  C   UNL     1       9.435  10.654  17.885  0.00  0.00    +0.000 C 
BRANCH  19  20
ATOM     20  C   UNL     1       9.214  11.981  18.607  0.00  0.00    +0.000 C 
BRANCH  20  21
ATOM     21  C   UNL     1      10.519  12.496  19.204  0.00  0.00    +0.000 C 
BRANCH  21  23
ATOM     22  C   UNL     1       9.513  12.180  21.478  0.00  0.00    +0.000 C 
ATOM     23  C   UNL     1      10.736  11.948  20.610  0.00  0.00    +0.000 C 
ENDBRANCH  21  23
ENDBRANCH  20  21
ENDBRANCH  19  20
ENDBRANCH  18  19
ENDBRANCH  17  18
ENDBRANCH  16  17
ENDBRANCH   1  16
TORSDOF 8
ENDMDL
MODEL 3
REMARK VINA RESULT:      -7.4      3.835      6.975
REMARK  Name = 
REMARK  9 active torsions:
REMARK  status: ('A' for Active; 'I' for Inactive)
REMARK    1  A    between atoms: C_1  and  C_2
REMARK    2  A    between atoms: C_2  and  C_3
REMARK    3  A    between atoms: C_3  and  C_4
REMARK    4  A    between atoms: C_4  and  C_5
REMARK    5  A    between atoms: C_5  and  C_6
REMARK    6  A    between atoms: C_6  and  C_7
REMARK    7  A    between atoms: C_7  and  C_8
REMARK    8  A    between atoms: C_8  and  N_9
REMARK    9  A    between atoms: N_12  and  C_13
REMARK                            x       y       z     vdW  Elec       q    Type
REMARK                         _______ _______ _______ _____ _____    ______ ____
ROOT
ATOM      1  N   UNL     1       7.455   6.268  17.196  0.00  0.00    +0.000 NA
ATOM      2  C   UNL     1       7.335   5.404  18.396  0.00  0.00    +0.000 C 
ATOM      3  C   UNL     1       5.921   5.350  19.014  0.00  0.00    +0.000 C 
ATOM      4  N   UNL     1       4.960   4.951  17.978  0.00  0.00    +0.000 N 
ATOM      5  C   UNL     1       5.000   5.725  16.731  0.00  0.00    +0.000 C 
ATOM      6  C   UNL     1       6.452   5.804  16.203  0.00  0.00    +0.000 C 
ENDROOT
BRANCH   4   7
ATOM      7  C   UNL     1       3.934   4.076  18.283  0.00  0.00    +0.000 A 
ATOM      8  C   UNL     1       3.900   2.775  17.737  0.00  0.00    +0.000 A 
ATOM      9  C   UNL     1       2.957   1.814  18.111  0.00  0.00    +0.000 A 
ATOM     10  C   UNL     1       1.973   2.108  19.057  0.00  0.00    +0.000 A 
ATOM     11  C   UNL     1       1.940   3.397  19.610  0.00  0.00    +0.000 A 
ATOM     12  C   UNL     1       1.123   4.055  20.568  0.00  0.00    +0.000 A 
ATOM     13  C   UNL     1       1.602   5.339  20.675  0.00  0.00    +0.000 A 
ATOM     14  O   UNL     1       2.671   5.512  19.859  0.00  0.00    +0.000 OA
ATOM     15  C   UNL     1       2.899   4.324  19.210  0.00  0.00    +0.000 A 
ENDBRANCH   4   7
BRANCH   1  16
ATOM     16  C   UNL     1       7.264   7.695  17.501  0.00  0.00    +0.000 C 
BRANCH  16  17
ATOM     17  C   UNL     1       8.407   8.307  18.316  0.00  0.00    +0.000 C 
BRANCH  17  18
ATOM     18  C   UNL     1       8.555   9.804  18.055  0.00  0.00    +0.000 C 
BRANCH  18  19
ATOM     19  C   UNL     1       9.316  10.486  19.183  0.00  0.00    +0.000 C 
BRANCH  19  20
ATOM     20  C   UNL     1      10.498  11.277  18.627  0.00  0.00    +0.000 C 
BRANCH  20  21
ATOM     21  C   UNL     1      10.040  12.628  18.089  0.00  0.00    +0.000 C 
BRANCH  21  23
ATOM     22  C   UNL     1      11.425  13.542  19.968  0.00  0.00    +0.000 C 
ATOM     23  C   UNL     1      10.980  13.744  18.530  0.00  0.00    +0.000 C 
ENDBRANCH  21  23
ENDBRANCH  20  21
ENDBRANCH  19  20
ENDBRANCH  18  19
ENDBRANCH  17  18
ENDBRANCH  16  17
ENDBRANCH   1  16
TORSDOF 8
ENDMDL
MODEL 4
REMARK VINA RESULT:      -7.2      1.226      2.349
REMARK  Name = 
REMARK  9 active torsions:
REMARK  status: ('A' for Active; 'I' for Inactive)
REMARK    1  A    between atoms: C_1  and  C_2
REMARK    2  A    between atoms: C_2  and  C_3
REMARK    3  A    between atoms: C_3  and  C_4
REMARK    4  A    between atoms: C_4  and  C_5
REMARK    5  A    between atoms: C_5  and  C_6
REMARK    6  A    between atoms: C_6  and  C_7
REMARK    7  A    between atoms: C_7  and  C_8
REMARK    8  A    between atoms: C_8  and  N_9
REMARK    9  A    between atoms: N_12  and  C_13
REMARK                            x       y       z     vdW  Elec       q    Type
REMARK                         _______ _______ _______ _____ _____    ______ ____
ROOT
ATOM      1  N   UNL     1       6.885   4.165  16.367  0.00  0.00    +0.000 NA
ATOM      2  C   UNL     1       7.109   4.628  17.759  0.00  0.00    +0.000 C 
ATOM      3  C   UNL     1       6.121   5.710  18.245  0.00  0.00    +0.000 C 
ATOM      4  N   UNL     1       4.748   5.220  18.065  0.00  0.00    +0.000 N 
ATOM      5  C   UNL     1       4.415   4.715  16.728  0.00  0.00    +0.000 C 
ATOM      6  C   UNL     1       5.481   3.692  16.268  0.00  0.00    +0.000 C 
ENDROOT
BRANCH   4   7
ATOM      7  C   UNL     1       3.790   5.470  19.030  0.00  0.00    +0.000 A 
ATOM      8  C   UNL     1       3.190   6.742  19.149  0.00  0.00    +0.000 A 
ATOM      9  C   UNL     1       2.132   7.010  20.021  0.00  0.00    +0.000 A 
ATOM     10  C   UNL     1       1.613   6.009  20.844  0.00  0.00    +0.000 A 
ATOM     11  C   UNL     1       2.192   4.732  20.791  0.00  0.00    +0.000 A 
ATOM     12  C   UNL     1       1.952   3.495  21.448  0.00  0.00    +0.000 A 
ATOM     13  C   UNL     1       2.879   2.606  20.958  0.00  0.00    +0.000 A 
ATOM     14  O   UNL     1       3.664   3.207  20.031  0.00  0.00    +0.000 OA
ATOM     15  C   UNL     1       3.244   4.508  19.907  0.00  0.00    +0.000 A 
ENDBRANCH   4   7
BRANCH   1  16
ATOM     16  C   UNL     1       7.154   5.212  15.369  0.00  0.00    +0.000 C 
BRANCH  16  17
ATOM     17  C   UNL     1       6.426   4.995  14.039  0.00  0.00    +0.000 C 
BRANCH  17  18
ATOM     18  C   UNL     1       7.387   4.599  12.922  0.00  0.00    +0.000 C 
BRANCH  18  19
ATOM     19  C   UNL     1       6.773   3.537  12.019  0.00  0.00    +0.000 C 
BRANCH  19  20
ATOM     20  C   UNL     1       5.256   3.505  12.189  0.00  0.00    +0.000 C 
BRANCH  20  21
ATOM     21  C   UNL     1       4.619   2.561  11.174  0.00  0.00    +0.000 C 
BRANCH  21  23
ATOM     22  C   UNL     1       3.221   4.149   9.830  0.00  0.00    +0.000 C 
ATOM     23  C   UNL     1       3.202   3.003  10.826  0.00  0.00    +0.000 C 
ENDBRANCH  21  23
ENDBRANCH  20  21
ENDBRANCH  19  20
ENDBRANCH  18  19
ENDBRANCH  17  18
ENDBRANCH  16  17
ENDBRANCH   1  16
TORSDOF 8
ENDMDL
MODEL 5
REMARK VINA RESULT:      -7.0      3.439      6.275
REMARK  Name = 
REMARK  9 active torsions:
REMARK  status: ('A' for Active; 'I' for Inactive)
REMARK    1  A    between atoms: C_1  and  C_2
REMARK    2  A    between atoms: C_2  and  C_3
REMARK    3  A    between atoms: C_3  and  C_4
REMARK    4  A    between atoms: C_4  and  C_5
REMARK    5  A    between atoms: C_5  and  C_6
REMARK    6  A    between atoms: C_6  and  C_7
REMARK    7  A    between atoms: C_7  and  C_8
REMARK    8  A    between atoms: C_8  and  N_9
REMARK    9  A    between atoms: N_12  and  C_13
REMARK                            x       y       z     vdW  Elec       q    Type
REMARK                         _______ _______ _______ _____ _____    ______ ____
ROOT
ATOM      1  N   UNL     1       7.313   6.418  16.847  0.00  0.00    +0.000 NA
ATOM      2  C   UNL     1       7.294   5.279  17.798  0.00  0.00    +0.000 C 
ATOM      3  C   UNL     1       6.019   5.181  18.662  0.00  0.00    +0.000 C 
ATOM      4  N   UNL     1       4.844   5.154  17.781  0.00  0.00    +0.000 N 
ATOM      5  C   UNL     1       4.765   6.225  16.781  0.00  0.00    +0.000 C 
ATOM      6  C   UNL     1       6.097   6.320  16.000  0.00  0.00    +0.000 C 
ENDROOT
BRANCH   4   7
ATOM      7  C   UNL     1       3.780   4.319  18.069  0.00  0.00    +0.000 A 
ATOM      8  C   UNL     1       3.626   3.082  17.406  0.00  0.00    +0.000 A 
ATOM      9  C   UNL     1       2.643   2.149  17.748  0.00  0.00    +0.000 A 
ATOM     10  C   UNL     1       1.740   2.408  18.780  0.00  0.00    +0.000 A 
ATOM     11  C   UNL     1       1.826   3.637  19.453  0.00  0.00    +0.000 A 
ATOM     12  C   UNL     1       1.113   4.247  20.520  0.00  0.00    +0.000 A 
ATOM     13  C   UNL     1       1.684   5.481  20.716  0.00  0.00    +0.000 A 
ATOM     14  O   UNL     1       2.712   5.667  19.852  0.00  0.00    +0.000 OA
ATOM     15  C   UNL     1       2.820   4.538  19.081  0.00  0.00    +0.000 A 
ENDBRANCH   4   7
BRANCH   1  16
ATOM     16  C   UNL     1       7.372   7.723  17.524  0.00  0.00    +0.000 C 
BRANCH  16  17
ATOM     17  C   UNL     1       8.522   7.842  18.529  0.00  0.00    +0.000 C 
BRANCH  17  18
ATOM     18  C   UNL     1       8.724   9.282  18.996  0.00  0.00    +0.000 C 
BRANCH  18  19
ATOM     19  C   UNL     1       8.776  10.240  17.814  0.00  0.00    +0.000 C 
BRANCH  19  20
ATOM     20  C   UNL     1       9.895  11.261  18.004  0.00  0.00    +0.000 C 
BRANCH  20  21
ATOM     21  C   UNL     1       9.353  12.683  17.899  0.00  0.00    +0.000 C 
BRANCH  21  23
ATOM     22  C   UNL     1       7.262  14.030  17.584  0.00  0.00    +0.000 C 
ATOM     23  C   UNL     1       7.935  12.691  17.337  0.00  0.00    +0.000 C 
ENDBRANCH  21  23
ENDBRANCH  20  21
ENDBRANCH  19  20
ENDBRANCH  18  19
ENDBRANCH  17  18
ENDBRANCH  16  17
ENDBRANCH   1  16
TORSDOF 8
ENDMDL
MODEL 6
REMARK VINA RESULT:      -7.0      1.451      2.225
REMARK  Name = 
REMARK  9 active torsions:
REMARK  status: ('A' for Active; 'I' for Inactive)
REMARK    1  A    between atoms: C_1  and  C_2
REMARK    2  A    between atoms: C_2  and  C_3
REMARK    3  A    between atoms: C_3  and  C_4
REMARK    4  A    between atoms: C_4  and  C_5
REMARK    5  A    between atoms: C_5  and  C_6
REMARK    6  A    between atoms: C_6  and  C_7
REMARK    7  A    between atoms: C_7  and  C_8
REMARK    8  A    between atoms: C_8  and  N_9
REMARK    9  A    between atoms: N_12  and  C_13
REMARK                            x       y       z     vdW  Elec       q    Type
REMARK                         _______ _______ _______ _____ _____    ______ ____
ROOT
ATOM      1  N   UNL     1       6.920   6.337  16.862  0.00  0.00    +0.000 NA
ATOM      2  C   UNL     1       5.535   6.835  16.675  0.00  0.00    +0.000 C 
ATOM      3  C   UNL     1       4.434   5.773  16.882  0.00  0.00    +0.000 C 
ATOM      4  N   UNL     1       4.602   5.162  18.207  0.00  0.00    +0.000 N 
ATOM      5  C   UNL     1       5.942   4.650  18.514  0.00  0.00    +0.000 C 
ATOM      6  C   UNL     1       7.004   5.734  18.217  0.00  0.00    +0.000 C 
ENDROOT
BRANCH   4   7
ATOM      7  C   UNL     1       3.494   4.874  18.983  0.00  0.00    +0.000 A 
ATOM      8  C   UNL     1       3.046   5.772  19.975  0.00  0.00    +0.000 A 
ATOM      9  C   UNL     1       1.864   5.587  20.696  0.00  0.00    +0.000 A 
ATOM     10  C   UNL     1       1.057   4.470  20.472  0.00  0.00    +0.000 A 
ATOM     11  C   UNL     1       1.470   3.526  19.519  0.00  0.00    +0.000 A 
ATOM     12  C   UNL     1       0.940   2.304  19.024  0.00  0.00    +0.000 A 
ATOM     13  C   UNL     1       1.833   1.841  18.088  0.00  0.00    +0.000 A 
ATOM     14  O   UNL     1       2.871   2.704  17.960  0.00  0.00    +0.000 OA
ATOM     15  C   UNL     1       2.654   3.750  18.822  0.00  0.00    +0.000 A 
ENDBRANCH   4   7
BRANCH   1  16
ATOM     16  C   UNL     1       7.318   5.363  15.833  0.00  0.00    +0.000 C 
BRANCH  16  17
ATOM     17  C   UNL     1       6.299   5.215  14.699  0.00  0.00    +0.000 C 
BRANCH  17  18
ATOM     18  C   UNL     1       6.280   3.799  14.131  0.00  0.00    +0.000 C 
BRANCH  18  19
ATOM     19  C   UNL     1       6.100   3.815  12.619  0.00  0.00    +0.000 C 
BRANCH  19  20
ATOM     20  C   UNL     1       5.942   2.393  12.085  0.00  0.00    +0.000 C 
BRANCH  20  21
ATOM     21  C   UNL     1       4.847   2.332  11.025  0.00  0.00    +0.000 C 
BRANCH  21  23
ATOM     22  C   UNL     1       3.040   3.627   9.866  0.00  0.00    +0.000 C 
ATOM     23  C   UNL     1       3.979   3.585  11.058  0.00  0.00    +0.000 C 
ENDBRANCH  21  23
ENDBRANCH  20  21
ENDBRANCH  19  20
ENDBRANCH  18  19
ENDBRANCH  17  18
ENDBRANCH  16  17
ENDBRANCH   1  16
TORSDOF 8
ENDMDL
MODEL 7
REMARK VINA RESULT:      -6.9      3.806      7.207
REMARK  Name = 
REMARK  9 active torsions:
REMARK  status: ('A' for Active; 'I' for Inactive)
REMARK    1  A    between atoms: C_1  and  C_2
REMARK    2  A    between atoms: C_2  and  C_3
REMARK    3  A    between atoms: C_3  and  C_4
REMARK    4  A    between atoms: C_4  and  C_5
REMARK    5  A    between atoms: C_5  and  C_6
REMARK    6  A    between atoms: C_6  and  C_7
REMARK    7  A    between atoms: C_7  and  C_8
REMARK    8  A    between atoms: C_8  and  N_9
REMARK    9  A    between atoms: N_12  and  C_13
REMARK                            x       y       z     vdW  Elec       q    Type
REMARK                         _______ _______ _______ _____ _____    ______ ____
ROOT
ATOM      1  N   UNL     1       6.819   6.612  16.882  0.00  0.00    +0.000 NA
ATOM      2  C   UNL     1       6.921   5.727  18.068  0.00  0.00    +0.000 C 
ATOM      3  C   UNL     1       5.822   5.943  19.130  0.00  0.00    +0.000 C 
ATOM      4  N   UNL     1       4.506   5.821  18.490  0.00  0.00    +0.000 N 
ATOM      5  C   UNL     1       4.296   6.637  17.289  0.00  0.00    +0.000 C 
ATOM      6  C   UNL     1       5.466   6.432  16.298  0.00  0.00    +0.000 C 
ENDROOT
BRANCH   4   7
ATOM      7  C   UNL     1       3.475   5.171  19.143  0.00  0.00    +0.000 A 
ATOM      8  C   UNL     1       2.633   5.860  20.042  0.00  0.00    +0.000 A 
ATOM      9  C   UNL     1       1.504   5.282  20.629  0.00  0.00    +0.000 A 
ATOM     10  C   UNL     1       1.154   3.958  20.354  0.00  0.00    +0.000 A 
ATOM     11  C   UNL     1       1.974   3.215  19.491  0.00  0.00    +0.000 A 
ATOM     12  C   UNL     1       1.951   1.887  18.985  0.00  0.00    +0.000 A 
ATOM     13  C   UNL     1       3.055   1.759  18.176  0.00  0.00    +0.000 A 
ATOM     14  O   UNL     1       3.749   2.923  18.137  0.00  0.00    +0.000 OA
ATOM     15  C   UNL     1       3.089   3.830  18.928  0.00  0.00    +0.000 A 
ENDBRANCH   4   7
BRANCH   1  16
ATOM     16  C   UNL     1       7.063   8.027  17.205  0.00  0.00    +0.000 C 
BRANCH  16  17
ATOM     17  C   UNL     1       8.254   8.247  18.143  0.00  0.00    +0.000 C 
BRANCH  17  18
ATOM     18  C   UNL     1       8.632   9.722  18.247  0.00  0.00    +0.000 C 
BRANCH  18  19
ATOM     19  C   UNL     1       9.381  10.008  19.541  0.00  0.00    +0.000 C 
BRANCH  19  20
ATOM     20  C   UNL     1       9.386  11.506  19.836  0.00  0.00    +0.000 C 
BRANCH  20  21
ATOM     21  C   UNL     1      10.718  11.933  20.442  0.00  0.00    +0.000 C 
BRANCH  21  23
ATOM     22  C   UNL     1      11.437  12.740  18.180  0.00  0.00    +0.000 C 
ATOM     23  C   UNL     1      11.337  13.083  19.656  0.00  0.00    +0.000 C 
ENDBRANCH  21  23
ENDBRANCH  20  21
ENDBRANCH  19  20
ENDBRANCH  18  19
ENDBRANCH  17  18
ENDBRANCH  16  17
ENDBRANCH   1  16
TORSDOF 8
ENDMDL
MODEL 8
REMARK VINA RESULT:      -6.9      1.126      1.276
REMARK  Name = 
REMARK  9 active torsions:
REMARK  status: ('A' for Active; 'I' for Inactive)
REMARK    1  A    between atoms: C_1  and  C_2
REMARK    2  A    between atoms: C_2  and  C_3
REMARK    3  A    between atoms: C_3  and  C_4
REMARK    4  A    between atoms: C_4  and  C_5
REMARK    5  A    between atoms: C_5  and  C_6
REMARK    6  A    between atoms: C_6  and  C_7
REMARK    7  A    between atoms: C_7  and  C_8
REMARK    8  A    between atoms: C_8  and  N_9
REMARK    9  A    between atoms: N_12  and  C_13
REMARK                            x       y       z     vdW  Elec       q    Type
REMARK                         _______ _______ _______ _____ _____    ______ ____
ROOT
ATOM      1  N   UNL     1       6.805   5.549  15.969  0.00  0.00    +0.000 NA
ATOM      2  C   UNL     1       5.893   6.494  16.660  0.00  0.00    +0.000 C 
ATOM      3  C   UNL     1       4.398   6.111  16.595  0.00  0.00    +0.000 C 
ATOM      4  N   UNL     1       4.231   4.745  17.107  0.00  0.00    +0.000 N 
ATOM      5  C   UNL     1       5.100   3.723  16.511  0.00  0.00    +0.000 C 
ATOM      6  C   UNL     1       6.572   4.197  16.540  0.00  0.00    +0.000 C 
ENDROOT
BRANCH   4   7
ATOM      7  C   UNL     1       3.148   4.432  17.907  0.00  0.00    +0.000 A 
ATOM      8  C   UNL     1       2.516   3.173  17.818  0.00  0.00    +0.000 A 
ATOM      9  C   UNL     1       1.502   2.763  18.688  0.00  0.00    +0.000 A 
ATOM     10  C   UNL     1       1.048   3.606  19.704  0.00  0.00    +0.000 A 
ATOM     11  C   UNL     1       1.618   4.883  19.820  0.00  0.00    +0.000 A 
ATOM     12  C   UNL     1       1.432   5.988  20.693  0.00  0.00    +0.000 A 
ATOM     13  C   UNL     1       2.302   6.967  20.276  0.00  0.00    +0.000 A 
ATOM     14  O   UNL     1       3.025   6.533  19.214  0.00  0.00    +0.000 OA
ATOM     15  C   UNL     1       2.627   5.251  18.932  0.00  0.00    +0.000 A 
ENDBRANCH   4   7
BRANCH   1  16
ATOM     16  C   UNL     1       6.616   5.539  14.510  0.00  0.00    +0.000 C 
BRANCH  16  17
ATOM     17  C   UNL     1       6.927   4.187  13.860  0.00  0.00    +0.000 C 
BRANCH  17  18
ATOM     18  C   UNL     1       6.670   4.207  12.355  0.00  0.00    +0.000 C 
BRANCH  18  19
ATOM     19  C   UNL     1       6.731   2.803  11.769  0.00  0.00    +0.000 C 
BRANCH  19  20
ATOM     20  C   UNL     1       5.323   2.259  11.538  0.00  0.00    +0.000 C 
BRANCH  20  21
ATOM     21  C   UNL     1       4.314   3.398  11.438  0.00  0.00    +0.000 C 
BRANCH  21  23
ATOM     22  C   UNL     1       2.903   4.278   9.562  0.00  0.00    +0.000 C 
ATOM     23  C   UNL     1       3.215   3.074  10.433  0.00  0.00    +0.000 C 
ENDBRANCH  21  23
ENDBRANCH  20  21
ENDBRANCH  19  20
ENDBRANCH  18  19
ENDBRANCH  17  18
ENDBRANCH  16  17
ENDBRANCH   1  16
TORSDOF 8
ENDMDL
MODEL 9
REMARK VINA RESULT:      -6.9      3.884      7.045
REMARK  Name = 
REMARK  9 active torsions:
REMARK  status: ('A' for Active; 'I' for Inactive)
REMARK    1  A    between atoms: C_1  and  C_2
REMARK    2  A    between atoms: C_2  and  C_3
REMARK    3  A    between atoms: C_3  and  C_4
REMARK    4  A    between atoms: C_4  and  C_5
REMARK    5  A    between atoms: C_5  and  C_6
REMARK    6  A    between atoms: C_6  and  C_7
REMARK    7  A    between atoms: C_7  and  C_8
REMARK    8  A    between atoms: C_8  and  N_9
REMARK    9  A    between atoms: N_12  and  C_13
REMARK                            x       y       z     vdW  Elec       q    Type
REMARK                         _______ _______ _______ _____ _____    ______ ____
ROOT
ATOM      1  N   UNL     1       6.921   6.109  16.750  0.00  0.00    +0.000 NA
ATOM      2  C   UNL     1       6.894   4.655  17.043  0.00  0.00    +0.000 C 
ATOM      3  C   UNL     1       5.942   4.247  18.188  0.00  0.00    +0.000 C 
ATOM      4  N   UNL     1       4.595   4.753  17.895  0.00  0.00    +0.000 N 
ATOM      5  C   UNL     1       4.501   6.181  17.568  0.00  0.00    +0.000 C 
ATOM      6  C   UNL     1       5.528   6.541  16.469  0.00  0.00    +0.000 C 
ENDROOT
BRANCH   4   7
ATOM      7  C   UNL     1       3.486   3.973  18.168  0.00  0.00    +0.000 A 
ATOM      8  C   UNL     1       3.033   3.004  17.248  0.00  0.00    +0.000 A 
ATOM      9  C   UNL     1       1.999   2.108  17.529  0.00  0.00    +0.000 A 
ATOM     10  C   UNL     1       1.341   2.138  18.761  0.00  0.00    +0.000 A 
ATOM     11  C   UNL     1       1.729   3.103  19.703  0.00  0.00    +0.000 A 
ATOM     12  C   UNL     1       1.316   3.439  21.020  0.00  0.00    +0.000 A 
ATOM     13  C   UNL     1       2.091   4.504  21.413  0.00  0.00    +0.000 A 
ATOM     14  O   UNL     1       2.966   4.837  20.432  0.00  0.00    +0.000 OA
ATOM     15  C   UNL     1       2.765   3.976  19.382  0.00  0.00    +0.000 A 
ENDBRANCH   4   7
BRANCH   1  16
ATOM     16  C   UNL     1       7.501   6.901  17.847  0.00  0.00    +0.000 C 
BRANCH  16  17
ATOM     17  C   UNL     1       7.825   8.346  17.458  0.00  0.00    +0.000 C 
BRANCH  17  18
ATOM     18  C   UNL     1       8.621   9.064  18.545  0.00  0.00    +0.000 C 
BRANCH  18  19
ATOM     19  C   UNL     1       9.025  10.462  18.098  0.00  0.00    +0.000 C 
BRANCH  19  20
ATOM     20  C   UNL     1       9.808  11.170  19.201  0.00  0.00    +0.000 C 
BRANCH  20  21
ATOM     21  C   UNL     1       9.895  12.668  18.926  0.00  0.00    +0.000 C 
BRANCH  21  23
ATOM     22  C   UNL     1      10.561  14.787  20.088  0.00  0.00    +0.000 C 
ATOM     23  C   UNL     1      10.924  13.335  19.832  0.00  0.00    +0.000 C 
ENDBRANCH  21  23
ENDBRANCH  20  21
ENDBRANCH  19  20
ENDBRANCH  18  19
ENDBRANCH  17  18
ENDBRANCH  16  17
ENDBRANCH   1  16
TORSDOF 8
ENDMDL
