MODEL 1
REMARK VINA RESULT:      -7.5      0.000      0.000
REMARK  Name = 
REMARK  3 active torsions:
REMARK  status: ('A' for Active; 'I' for Inactive)
REMARK    1  A    between atoms: C_1  and  O_2
REMARK    2  A    between atoms: O_2  and  C_3
REMARK    3  A    between atoms: C_9  and  C_10
REMARK                            x       y       z     vdW  Elec       q    Type
REMARK                         _______ _______ _______ _____ _____    ______ ____
ROOT
ATOM      1  C   UNL     1       0.313   9.420  20.612  0.00  0.00    +0.000 C 
ATOM      2  O   UNL     1      -0.132   9.494  21.762  0.00  0.00    +0.000 OA
ATOM      3  N   UNL     1       1.371   8.560  20.313  0.00  0.00    +0.000 N 
ATOM      4  C   UNL     1       1.829   7.606  21.324  0.00  0.00    +0.000 C 
ATOM      5  C   UNL     1       1.653   6.173  20.816  0.00  0.00    +0.000 C 
ATOM      6  C   UNL     1       2.298   5.937  19.426  0.00  0.00    +0.000 C 
ATOM      7  C   UNL     1       1.902   7.087  18.463  0.00  0.00    +0.000 C 
ATOM      8  C   UNL     1       2.109   8.472  19.070  0.00  0.00    +0.000 C 
ATOM      9  C   UNL     1       1.811   4.575  18.908  0.00  0.00    +0.000 C 
ATOM     10  C   UNL     1       2.475   4.275  17.592  0.00  0.00    +0.000 C 
ATOM     11  O   UNL     1       1.923   3.641  16.701  0.00  0.00    +0.000 OA
ATOM     12  C   UNL     1       3.856   4.763  17.446  0.00  0.00    +0.000 A 
ATOM     13  C   UNL     1       4.577   4.515  16.276  0.00  0.00    +0.000 A 
ATOM     14  C   UNL     1       5.878   5.004  16.154  0.00  0.00    +0.000 A 
ATOM     15  C   UNL     1       6.458   5.712  17.207  0.00  0.00    +0.000 A 
ATOM     16  C   UNL     1       5.734   5.961  18.375  0.00  0.00    +0.000 A 
ATOM     17  C   UNL     1       4.419   5.515  18.482  0.00  0.00    +0.000 A 
ATOM     18  O   UNL     1       3.729   5.901  19.606  0.00  0.00    +0.000 OA
ENDROOT
BRANCH   1  25
ATOM     19  C   UNL     1       0.078  11.655  19.305  0.00  0.00    +0.000 A 
ATOM     20  C   UNL     1      -0.507  12.322  18.213  0.00  0.00    +0.000 A 
ATOM     21  C   UNL     1      -1.480  11.706  17.428  0.00  0.00    +0.000 A 
ATOM     22  C   UNL     1      -1.883  10.412  17.732  0.00  0.00    +0.000 A 
ATOM     23 CL   UNL     1      -3.046   9.632  16.733  0.00  0.00    +0.000 Cl
ATOM     24  C   UNL     1      -1.317   9.734  18.810  0.00  0.00    +0.000 A 
ATOM     25  C   UNL     1      -0.325  10.340  19.613  0.00  0.00    +0.000 A 
BRANCH  19  27
ATOM     26  C   UNL     1       2.056  12.962  19.217  0.00  0.00    +0.000 C 
ATOM     27  O   UNL     1       1.103  12.236  20.002  0.00  0.00    +0.000 OA
ENDBRANCH  19  27
ENDBRANCH   1  25
TORSDOF 2
ENDMDL
MODEL 2
REMARK VINA RESULT:      -7.0      1.608      2.261
REMARK  Name = 
REMARK  3 active torsions:
REMARK  status: ('A' for Active; 'I' for Inactive)
REMARK    1  A    between atoms: C_1  and  O_2
REMARK    2  A    between atoms: O_2  and  C_3
REMARK    3  A    between atoms: C_9  and  C_10
REMARK                            x       y       z     vdW  Elec       q    Type
REMARK                         _______ _______ _______ _____ _____    ______ ____
ROOT
ATOM      1  C   UNL     1       0.402   9.390  20.472  0.00  0.00    +0.000 C 
ATOM      2  O   UNL     1      -0.251   9.463  21.518  0.00  0.00    +0.000 OA
ATOM      3  N   UNL     1       1.391   8.417  20.317  0.00  0.00    +0.000 N 
ATOM      4  C   UNL     1       1.527   7.364  21.324  0.00  0.00    +0.000 C 
ATOM      5  C   UNL     1       1.291   5.992  20.688  0.00  0.00    +0.000 C 
ATOM      6  C   UNL     1       2.166   5.745  19.433  0.00  0.00    +0.000 C 
ATOM      7  C   UNL     1       2.104   6.982  18.499  0.00  0.00    +0.000 C 
ATOM      8  C   UNL     1       2.346   8.298  19.234  0.00  0.00    +0.000 C 
ATOM      9  C   UNL     1       1.638   4.483  18.733  0.00  0.00    +0.000 C 
ATOM     10  C   UNL     1       2.509   4.167  17.549  0.00  0.00    +0.000 C 
ATOM     11  O   UNL     1       2.076   3.653  16.525  0.00  0.00    +0.000 OA
ATOM     12  C   UNL     1       3.939   4.481  17.705  0.00  0.00    +0.000 A 
ATOM     13  C   UNL     1       4.844   4.202  16.679  0.00  0.00    +0.000 A 
ATOM     14  C   UNL     1       6.190   4.526  16.842  0.00  0.00    +0.000 A 
ATOM     15  C   UNL     1       6.629   5.102  18.035  0.00  0.00    +0.000 A 
ATOM     16  C   UNL     1       5.721   5.383  19.059  0.00  0.00    +0.000 A 
ATOM     17  C   UNL     1       4.369   5.103  18.881  0.00  0.00    +0.000 A 
ATOM     18  O   UNL     1       3.520   5.518  19.879  0.00  0.00    +0.000 OA
ENDROOT
BRANCH   1  25
ATOM     19  C   UNL     1      -1.052  10.467  18.605  0.00  0.00    +0.000 A 
ATOM     20  C   UNL     1      -1.299  11.608  17.819  0.00  0.00    +0.000 A 
ATOM     21  C   UNL     1      -0.441  12.706  17.850  0.00  0.00    +0.000 A 
ATOM     22  C   UNL     1       0.681  12.672  18.668  0.00  0.00    +0.000 A 
ATOM     23 CL   UNL     1       1.712  14.046  18.746  0.00  0.00    +0.000 Cl
ATOM     24  C   UNL     1       0.945  11.551  19.453  0.00  0.00    +0.000 A 
ATOM     25  C   UNL     1       0.084  10.431  19.440  0.00  0.00    +0.000 A 
BRANCH  19  27
ATOM     26  C   UNL     1      -3.087   9.580  17.770  0.00  0.00    +0.000 C 
ATOM     27  O   UNL     1      -1.957   9.441  18.639  0.00  0.00    +0.000 OA
ENDBRANCH  19  27
ENDBRANCH   1  25
TORSDOF 2
ENDMDL
MODEL 3
REMARK VINA RESULT:      -6.7      4.862      6.916
REMARK  Name = 
REMARK  3 active torsions:
REMARK  status: ('A' for Active; 'I' for Inactive)
REMARK    1  A    between atoms: C_1  and  O_2
REMARK    2  A    between atoms: O_2  and  C_3
REMARK    3  A    between atoms: C_9  and  C_10
REMARK                            x       y       z     vdW  Elec       q    Type
REMARK                         _______ _______ _______ _____ _____    ______ ____
ROOT
ATOM      1  C   UNL     1      -4.283  12.632  22.510  0.00  0.00    +0.000 C 
ATOM      2  O   UNL     1      -4.687  12.268  23.619  0.00  0.00    +0.000 OA
ATOM      3  N   UNL     1      -2.916  12.699  22.239  0.00  0.00    +0.000 N 
ATOM      4  C   UNL     1      -1.963  12.158  23.208  0.00  0.00    +0.000 C 
ATOM      5  C   UNL     1      -1.156  11.021  22.576  0.00  0.00    +0.000 C 
ATOM      6  C   UNL     1      -0.492  11.419  21.234  0.00  0.00    +0.000 C 
ATOM      7  C   UNL     1      -1.526  12.144  20.332  0.00  0.00    +0.000 C 
ATOM      8  C   UNL     1      -2.279  13.253  21.061  0.00  0.00    +0.000 C 
ATOM      9  C   UNL     1       0.033  10.136  20.570  0.00  0.00    +0.000 C 
ATOM     10  C   UNL     1       0.752  10.490  19.298  0.00  0.00    +0.000 C 
ATOM     11  O   UNL     1       0.760   9.758  18.316  0.00  0.00    +0.000 OA
ATOM     12  C   UNL     1       1.486  11.767  19.312  0.00  0.00    +0.000 A 
ATOM     13  C   UNL     1       2.212  12.180  18.193  0.00  0.00    +0.000 A 
ATOM     14  C   UNL     1       2.884  13.402  18.223  0.00  0.00    +0.000 A 
ATOM     15  C   UNL     1       2.847  14.190  19.374  0.00  0.00    +0.000 A 
ATOM     16  C   UNL     1       2.117  13.776  20.491  0.00  0.00    +0.000 A 
ATOM     17  C   UNL     1       1.407  12.578  20.448  0.00  0.00    +0.000 A 
ATOM     18  O   UNL     1       0.615  12.295  21.535  0.00  0.00    +0.000 OA
ENDROOT
BRANCH   1  25
ATOM     19  C   UNL     1      -5.931  14.309  21.399  0.00  0.00    +0.000 A 
ATOM     20  C   UNL     1      -6.787  14.571  20.314  0.00  0.00    +0.000 A 
ATOM     21  C   UNL     1      -7.074  13.589  19.367  0.00  0.00    +0.000 A 
ATOM     22  C   UNL     1      -6.507  12.327  19.500  0.00  0.00    +0.000 A 
ATOM     23 CL   UNL     1      -6.820  11.131  18.305  0.00  0.00    +0.000 Cl
ATOM     24  C   UNL     1      -5.658  12.047  20.568  0.00  0.00    +0.000 A 
ATOM     25  C   UNL     1      -5.351  13.031  21.534  0.00  0.00    +0.000 A 
BRANCH  19  27
ATOM     26  C   UNL     1      -4.589  16.227  21.780  0.00  0.00    +0.000 C 
ATOM     27  O   UNL     1      -5.580  15.312  22.261  0.00  0.00    +0.000 OA
ENDBRANCH  19  27
ENDBRANCH   1  25
TORSDOF 2
ENDMDL
MODEL 4
REMARK VINA RESULT:      -6.6      5.746     10.535
REMARK  Name = 
REMARK  3 active torsions:
REMARK  status: ('A' for Active; 'I' for Inactive)
REMARK    1  A    between atoms: C_1  and  O_2
REMARK    2  A    between atoms: O_2  and  C_3
REMARK    3  A    between atoms: C_9  and  C_10
REMARK                            x       y       z     vdW  Elec       q    Type
REMARK                         _______ _______ _______ _____ _____    ______ ____
ROOT
ATOM      1  C   UNL     1      -2.845  11.382  18.168  0.00  0.00    +0.000 C 
ATOM      2  O   UNL     1      -2.875  10.844  17.057  0.00  0.00    +0.000 OA
ATOM      3  N   UNL     1      -3.954  12.077  18.652  0.00  0.00    +0.000 N 
ATOM      4  C   UNL     1      -5.219  12.010  17.921  0.00  0.00    +0.000 C 
ATOM      5  C   UNL     1      -6.306  11.388  18.801  0.00  0.00    +0.000 C 
ATOM      6  C   UNL     1      -6.441  12.081  20.181  0.00  0.00    +0.000 C 
ATOM      7  C   UNL     1      -5.037  12.271  20.812  0.00  0.00    +0.000 C 
ATOM      8  C   UNL     1      -4.028  12.891  19.848  0.00  0.00    +0.000 C 
ATOM      9  C   UNL     1      -7.341  11.201  21.062  0.00  0.00    +0.000 C 
ATOM     10  C   UNL     1      -7.558  11.878  22.387  0.00  0.00    +0.000 C 
ATOM     11  O   UNL     1      -7.697  11.257  23.434  0.00  0.00    +0.000 OA
ATOM     12  C   UNL     1      -7.630  13.348  22.351  0.00  0.00    +0.000 A 
ATOM     13  C   UNL     1      -7.858  14.077  23.519  0.00  0.00    +0.000 A 
ATOM     14  C   UNL     1      -7.904  15.470  23.463  0.00  0.00    +0.000 A 
ATOM     15  C   UNL     1      -7.748  16.124  22.239  0.00  0.00    +0.000 A 
ATOM     16  C   UNL     1      -7.517  15.392  21.072  0.00  0.00    +0.000 A 
ATOM     17  C   UNL     1      -7.425  14.003  21.133  0.00  0.00    +0.000 A 
ATOM     18  O   UNL     1      -7.076  13.360  19.969  0.00  0.00    +0.000 OA
ENDROOT
BRANCH   1  25
ATOM     19  C   UNL     1      -0.531  12.249  18.978  0.00  0.00    +0.000 A 
ATOM     20  C   UNL     1       0.551  12.065  19.859  0.00  0.00    +0.000 A 
ATOM     21  C   UNL     1       0.642  10.930  20.662  0.00  0.00    +0.000 A 
ATOM     22  C   UNL     1      -0.350   9.960  20.589  0.00  0.00    +0.000 A 
ATOM     23 CL   UNL     1      -0.264   8.584  21.616  0.00  0.00    +0.000 Cl
ATOM     24  C   UNL     1      -1.428  10.122  19.721  0.00  0.00    +0.000 A 
ATOM     25  C   UNL     1      -1.542  11.268  18.904  0.00  0.00    +0.000 A 
BRANCH  19  27
ATOM     26  C   UNL     1      -0.325  14.612  18.983  0.00  0.00    +0.000 C 
ATOM     27  O   UNL     1      -0.658  13.415  18.271  0.00  0.00    +0.000 OA
ENDBRANCH  19  27
ENDBRANCH   1  25
TORSDOF 2
ENDMDL
MODEL 5
REMARK VINA RESULT:      -6.5      2.297      7.538
REMARK  Name = 
REMARK  3 active torsions:
REMARK  status: ('A' for Active; 'I' for Inactive)
REMARK    1  A    between atoms: C_1  and  O_2
REMARK    2  A    between atoms: O_2  and  C_3
REMARK    3  A    between atoms: C_9  and  C_10
REMARK                            x       y       z     vdW  Elec       q    Type
REMARK                         _______ _______ _______ _____ _____    ______ ____
ROOT
ATOM      1  C   UNL     1       3.235   5.663  19.490  0.00  0.00    +0.000 C 
ATOM      2  O   UNL     1       3.406   4.855  20.409  0.00  0.00    +0.000 OA
ATOM      3  N   UNL     1       2.164   6.557  19.521  0.00  0.00    +0.000 N 
ATOM      4  C   UNL     1       1.351   6.664  20.732  0.00  0.00    +0.000 C 
ATOM      5  C   UNL     1       1.433   8.084  21.299  0.00  0.00    +0.000 C 
ATOM      6  C   UNL     1       1.102   9.176  20.251  0.00  0.00    +0.000 C 
ATOM      7  C   UNL     1       1.872   8.891  18.935  0.00  0.00    +0.000 C 
ATOM      8  C   UNL     1       1.731   7.447  18.462  0.00  0.00    +0.000 C 
ATOM      9  C   UNL     1       1.496  10.536  20.851  0.00  0.00    +0.000 C 
ATOM     10  C   UNL     1       1.121  11.632  19.891  0.00  0.00    +0.000 C 
ATOM     11  O   UNL     1       1.768  12.666  19.782  0.00  0.00    +0.000 OA
ATOM     12  C   UNL     1      -0.104  11.404  19.107  0.00  0.00    +0.000 A 
ATOM     13  C   UNL     1      -0.561  12.369  18.207  0.00  0.00    +0.000 A 
ATOM     14  C   UNL     1      -1.713  12.123  17.461  0.00  0.00    +0.000 A 
ATOM     15  C   UNL     1      -2.415  10.930  17.636  0.00  0.00    +0.000 A 
ATOM     16  C   UNL     1      -1.954   9.964  18.534  0.00  0.00    +0.000 A 
ATOM     17  C   UNL     1      -0.778  10.188  19.247  0.00  0.00    +0.000 A 
ATOM     18  O   UNL     1      -0.322   9.146  20.018  0.00  0.00    +0.000 OA
ENDROOT
BRANCH   1  25
ATOM     19  C   UNL     1       4.084   4.771  17.201  0.00  0.00    +0.000 A 
ATOM     20  C   UNL     1       4.998   4.930  16.143  0.00  0.00    +0.000 A 
ATOM     21  C   UNL     1       6.031   5.864  16.216  0.00  0.00    +0.000 A 
ATOM     22  C   UNL     1       6.163   6.647  17.355  0.00  0.00    +0.000 A 
ATOM     23 CL   UNL     1       7.406   7.834  17.426  0.00  0.00    +0.000 Cl
ATOM     24  C   UNL     1       5.270   6.503  18.415  0.00  0.00    +0.000 A 
ATOM     25  C   UNL     1       4.214   5.567  18.357  0.00  0.00    +0.000 A 
BRANCH  19  27
ATOM     26  C   UNL     1       3.197   2.611  17.617  0.00  0.00    +0.000 C 
ATOM     27  O   UNL     1       3.017   3.923  17.072  0.00  0.00    +0.000 OA
ENDBRANCH  19  27
ENDBRANCH   1  25
TORSDOF 2
ENDMDL
MODEL 6
REMARK VINA RESULT:      -6.5      5.095      7.391
REMARK  Name = 
REMARK  3 active torsions:
REMARK  status: ('A' for Active; 'I' for Inactive)
REMARK    1  A    between atoms: C_1  and  O_2
REMARK    2  A    between atoms: O_2  and  C_3
REMARK    3  A    between atoms: C_9  and  C_10
REMARK                            x       y       z     vdW  Elec       q    Type
REMARK                         _______ _______ _______ _____ _____    ______ ____
ROOT
ATOM      1  C   UNL     1      -4.628  12.703  21.952  0.00  0.00    +0.000 C 
ATOM      2  O   UNL     1      -5.130  12.398  23.038  0.00  0.00    +0.000 OA
ATOM      3  N   UNL     1      -3.244  12.818  21.815  0.00  0.00    +0.000 N 
ATOM      4  C   UNL     1      -2.375  12.396  22.914  0.00  0.00    +0.000 C 
ATOM      5  C   UNL     1      -1.459  11.258  22.457  0.00  0.00    +0.000 C 
ATOM      6  C   UNL     1      -0.676  11.592  21.162  0.00  0.00    +0.000 C 
ATOM      7  C   UNL     1      -1.639  12.198  20.108  0.00  0.00    +0.000 C 
ATOM      8  C   UNL     1      -2.511  13.318  20.669  0.00  0.00    +0.000 C 
ATOM      9  C   UNL     1      -0.030  10.293  20.655  0.00  0.00    +0.000 C 
ATOM     10  C   UNL     1       0.803  10.591  19.439  0.00  0.00    +0.000 C 
ATOM     11  O   UNL     1       0.945   9.792  18.521  0.00  0.00    +0.000 OA
ATOM     12  C   UNL     1       1.476  11.901  19.429  0.00  0.00    +0.000 A 
ATOM     13  C   UNL     1       2.297  12.268  18.362  0.00  0.00    +0.000 A 
ATOM     14  C   UNL     1       2.909  13.521  18.366  0.00  0.00    +0.000 A 
ATOM     15  C   UNL     1       2.719  14.387  19.444  0.00  0.00    +0.000 A 
ATOM     16  C   UNL     1       1.894  14.018  20.509  0.00  0.00    +0.000 A 
ATOM     17  C   UNL     1       1.245  12.786  20.486  0.00  0.00    +0.000 A 
ATOM     18  O   UNL     1       0.356  12.542  21.506  0.00  0.00    +0.000 OA
ENDROOT
BRANCH   1  25
ATOM     19  C   UNL     1      -6.525  12.062  20.294  0.00  0.00    +0.000 A 
ATOM     20  C   UNL     1      -7.500  12.522  19.388  0.00  0.00    +0.000 A 
ATOM     21  C   UNL     1      -7.572  13.866  19.026  0.00  0.00    +0.000 A 
ATOM     22  C   UNL     1      -6.663  14.767  19.565  0.00  0.00    +0.000 A 
ATOM     23 CL   UNL     1      -6.784  16.434  19.158  0.00  0.00    +0.000 Cl
ATOM     24  C   UNL     1      -5.689  14.332  20.461  0.00  0.00    +0.000 A 
ATOM     25  C   UNL     1      -5.603  12.976  20.845  0.00  0.00    +0.000 A 
BRANCH  19  27
ATOM     26  C   UNL     1      -7.825  10.163  20.868  0.00  0.00    +0.000 C 
ATOM     27  O   UNL     1      -6.532  10.760  20.716  0.00  0.00    +0.000 OA
ENDBRANCH  19  27
ENDBRANCH   1  25
TORSDOF 2
ENDMDL
MODEL 7
REMARK VINA RESULT:      -6.5      5.375      7.551
REMARK  Name = 
REMARK  3 active torsions:
REMARK  status: ('A' for Active; 'I' for Inactive)
REMARK    1  A    between atoms: C_1  and  O_2
REMARK    2  A    between atoms: O_2  and  C_3
REMARK    3  A    between atoms: C_9  and  C_10
REMARK                            x       y       z     vdW  Elec       q    Type
REMARK                         _______ _______ _______ _____ _____    ______ ____
ROOT
ATOM      1  C   UNL     1      -4.370  12.855  22.892  0.00  0.00    +0.000 C 
ATOM      2  O   UNL     1      -4.786  12.392  23.959  0.00  0.00    +0.000 OA
ATOM      3  N   UNL     1      -3.008  12.832  22.591  0.00  0.00    +0.000 N 
ATOM      4  C   UNL     1      -2.092  12.089  23.457  0.00  0.00    +0.000 C 
ATOM      5  C   UNL     1      -1.406  10.972  22.666  0.00  0.00    +0.000 C 
ATOM      6  C   UNL     1      -0.733  11.474  21.364  0.00  0.00    +0.000 C 
ATOM      7  C   UNL     1      -1.711  12.397  20.590  0.00  0.00    +0.000 C 
ATOM      8  C   UNL     1      -2.344  13.469  21.472  0.00  0.00    +0.000 C 
ATOM      9  C   UNL     1      -0.341  10.243  20.532  0.00  0.00    +0.000 C 
ATOM     10  C   UNL     1       0.384  10.688  19.292  0.00  0.00    +0.000 C 
ATOM     11  O   UNL     1       0.306  10.087  18.227  0.00  0.00    +0.000 OA
ATOM     12  C   UNL     1       1.233  11.881  19.441  0.00  0.00    +0.000 A 
ATOM     13  C   UNL     1       1.975  12.364  18.361  0.00  0.00    +0.000 A 
ATOM     14  C   UNL     1       2.758  13.507  18.521  0.00  0.00    +0.000 A 
ATOM     15  C   UNL     1       2.816  14.144  19.762  0.00  0.00    +0.000 A 
ATOM     16  C   UNL     1       2.070  13.660  20.840  0.00  0.00    +0.000 A 
ATOM     17  C   UNL     1       1.252  12.546  20.670  0.00  0.00    +0.000 A 
ATOM     18  O   UNL     1       0.457  12.202  21.737  0.00  0.00    +0.000 OA
ENDROOT
BRANCH   1  25
ATOM     19  C   UNL     1      -6.223  12.790  21.069  0.00  0.00    +0.000 A 
ATOM     20  C   UNL     1      -7.283  13.474  20.446  0.00  0.00    +0.000 A 
ATOM     21  C   UNL     1      -7.551  14.810  20.738  0.00  0.00    +0.000 A 
ATOM     22  C   UNL     1      -6.754  15.481  21.657  0.00  0.00    +0.000 A 
ATOM     23 CL   UNL     1      -7.114  17.114  22.056  0.00  0.00    +0.000 Cl
ATOM     24  C   UNL     1      -5.697  14.823  22.284  0.00  0.00    +0.000 A 
ATOM     25  C   UNL     1      -5.414  13.467  22.005  0.00  0.00    +0.000 A 
BRANCH  19  27
ATOM     26  C   UNL     1      -7.189  10.731  20.398  0.00  0.00    +0.000 C 
ATOM     27  O   UNL     1      -6.037  11.452  20.848  0.00  0.00    +0.000 OA
ENDBRANCH  19  27
ENDBRANCH   1  25
TORSDOF 2
ENDMDL
MODEL 8
REMARK VINA RESULT:      -6.5      5.773      7.690
REMARK  Name = 
REMARK  3 active torsions:
REMARK  status: ('A' for Active; 'I' for Inactive)
REMARK    1  A    between atoms: C_1  and  O_2
REMARK    2  A    between atoms: O_2  and  C_3
REMARK    3  A    between atoms: C_9  and  C_10
REMARK                            x       y       z     vdW  Elec       q    Type
REMARK                         _______ _______ _______ _____ _____    ______ ____
ROOT
ATOM      1  C   UNL     1       2.056  13.691  20.462  0.00  0.00    +0.000 C 
ATOM      2  O   UNL     1       2.698  13.393  21.475  0.00  0.00    +0.000 OA
ATOM      3  N   UNL     1       1.158  12.785  19.898  0.00  0.00    +0.000 N 
ATOM      4  C   UNL     1       0.836  11.550  20.614  0.00  0.00    +0.000 C 
ATOM      5  C   UNL     1      -0.658  11.504  20.944  0.00  0.00    +0.000 C 
ATOM      6  C   UNL     1      -1.560  11.736  19.705  0.00  0.00    +0.000 C 
ATOM      7  C   UNL     1      -1.046  12.961  18.904  0.00  0.00    +0.000 C 
ATOM      8  C   UNL     1       0.456  12.911  18.636  0.00  0.00    +0.000 C 
ATOM      9  C   UNL     1      -2.998  11.953  20.205  0.00  0.00    +0.000 C 
ATOM     10  C   UNL     1      -3.918  12.108  19.027  0.00  0.00    +0.000 C 
ATOM     11  O   UNL     1      -4.912  12.825  19.051  0.00  0.00    +0.000 OA
ATOM     12  C   UNL     1      -3.575  11.311  17.837  0.00  0.00    +0.000 A 
ATOM     13  C   UNL     1      -4.378  11.357  16.696  0.00  0.00    +0.000 A 
ATOM     14  C   UNL     1      -4.022  10.608  15.575  0.00  0.00    +0.000 A 
ATOM     15  C   UNL     1      -2.884   9.800  15.608  0.00  0.00    +0.000 A 
ATOM     16  C   UNL     1      -2.080   9.760  16.750  0.00  0.00    +0.000 A 
ATOM     17  C   UNL     1      -2.408  10.542  17.855  0.00  0.00    +0.000 A 
ATOM     18  O   UNL     1      -1.508  10.544  18.893  0.00  0.00    +0.000 OA
ENDROOT
BRANCH   1  25
ATOM     19  C   UNL     1       3.313  15.340  18.894  0.00  0.00    +0.000 A 
ATOM     20  C   UNL     1       3.346  16.626  18.324  0.00  0.00    +0.000 A 
ATOM     21  C   UNL     1       2.446  17.614  18.720  0.00  0.00    +0.000 A 
ATOM     22  C   UNL     1       1.504  17.326  19.699  0.00  0.00    +0.000 A 
ATOM     23 CL   UNL     1       0.361  18.528  20.152  0.00  0.00    +0.000 Cl
ATOM     24  C   UNL     1       1.456  16.059  20.277  0.00  0.00    +0.000 A 
ATOM     25  C   UNL     1       2.355  15.043  19.885  0.00  0.00    +0.000 A 
BRANCH  19  27
ATOM     26  C   UNL     1       5.355  14.798  17.816  0.00  0.00    +0.000 C 
ATOM     27  O   UNL     1       4.136  14.353  18.422  0.00  0.00    +0.000 OA
ENDBRANCH  19  27
ENDBRANCH   1  25
TORSDOF 2
ENDMDL
MODEL 9
REMARK VINA RESULT:      -6.5      4.949      7.865
REMARK  Name = 
REMARK  3 active torsions:
REMARK  status: ('A' for Active; 'I' for Inactive)
REMARK    1  A    between atoms: C_1  and  O_2
REMARK    2  A    between atoms: O_2  and  C_3
REMARK    3  A    between atoms: C_9  and  C_10
REMARK                            x       y       z     vdW  Elec       q    Type
REMARK                         _______ _______ _______ _____ _____    ______ ____
ROOT
ATOM      1  C   UNL     1       2.406  16.034  18.710  0.00  0.00    +0.000 C 
ATOM      2  O   UNL     1       1.967  16.885  17.929  0.00  0.00    +0.000 OA
ATOM      3  N   UNL     1       1.554  15.087  19.281  0.00  0.00    +0.000 N 
ATOM      4  C   UNL     1       0.173  14.984  18.808  0.00  0.00    +0.000 C 
ATOM      5  C   UNL     1      -0.083  13.595  18.221  0.00  0.00    +0.000 C 
ATOM      6  C   UNL     1       0.313  12.446  19.182  0.00  0.00    +0.000 C 
ATOM      7  C   UNL     1       1.721  12.720  19.774  0.00  0.00    +0.000 C 
ATOM      8  C   UNL     1       1.871  14.135  20.326  0.00  0.00    +0.000 C 
ATOM      9  C   UNL     1       0.284  11.133  18.383  0.00  0.00    +0.000 C 
ATOM     10  C   UNL     1       0.591   9.983  19.302  0.00  0.00    +0.000 C 
ATOM     11  O   UNL     1       1.188   8.980  18.931  0.00  0.00    +0.000 OA
ATOM     12  C   UNL     1       0.094  10.115  20.682  0.00  0.00    +0.000 A 
ATOM     13  C   UNL     1       0.297   9.093  21.611  0.00  0.00    +0.000 A 
ATOM     14  C   UNL     1      -0.166   9.249  22.917  0.00  0.00    +0.000 A 
ATOM     15  C   UNL     1      -0.850  10.410  23.280  0.00  0.00    +0.000 A 
ATOM     16  C   UNL     1      -1.049  11.433  22.349  0.00  0.00    +0.000 A 
ATOM     17  C   UNL     1      -0.547  11.299  21.057  0.00  0.00    +0.000 A 
ATOM     18  O   UNL     1      -0.674  12.393  20.234  0.00  0.00    +0.000 OA
ENDROOT
BRANCH   1  25
ATOM     19  C   UNL     1       4.455  16.839  20.092  0.00  0.00    +0.000 A 
ATOM     20  C   UNL     1       5.829  16.687  20.354  0.00  0.00    +0.000 A 
ATOM     21  C   UNL     1       6.625  15.852  19.572  0.00  0.00    +0.000 A 
ATOM     22  C   UNL     1       6.053  15.161  18.511  0.00  0.00    +0.000 A 
ATOM     23 CL   UNL     1       7.022  14.091  17.578  0.00  0.00    +0.000 Cl
ATOM     24  C   UNL     1       4.694  15.299  18.234  0.00  0.00    +0.000 A 
ATOM     25  C   UNL     1       3.870  16.136  19.019  0.00  0.00    +0.000 A 
BRANCH  19  27
ATOM     26  C   UNL     1       3.436  17.019  22.226  0.00  0.00    +0.000 C 
ATOM     27  O   UNL     1       3.669  17.583  20.930  0.00  0.00    +0.000 OA
ENDBRANCH  19  27
ENDBRANCH   1  25
TORSDOF 2
ENDMDL
