MODEL 1
REMARK VINA RESULT:      -7.5      0.000      0.000
REMARK  Name = 
REMARK  2 active torsions:
REMARK  status: ('A' for Active; 'I' for Inactive)
REMARK    1  A    between atoms: C_2  and  O_3
REMARK    2  A    between atoms: C_2  and  C_4
REMARK                            x       y       z     vdW  Elec       q    Type
REMARK                         _______ _______ _______ _____ _____    ______ ____
ROOT
ATOM      1  C   UNL     1       2.556   2.933  20.029  0.00  0.00    +0.000 A 
ATOM      2  C   UNL     1       1.737   2.584  18.883  0.00  0.00    +0.000 A 
ATOM      3  C   UNL     1       2.171   2.780  17.633  0.00  0.00    +0.000 A 
ATOM      4  C   UNL     1       3.514   3.376  17.396  0.00  0.00    +0.000 A 
ATOM      5  N   UNL     1       3.917   3.558  16.179  0.00  0.00    +0.000 NA
ATOM      6  C   UNL     1       5.189   4.109  15.972  0.00  0.00    +0.000 A 
ATOM      7  C   UNL     1       5.646   4.280  14.663  0.00  0.00    +0.000 A 
ATOM      8  C   UNL     1       6.907   4.830  14.426  0.00  0.00    +0.000 A 
ATOM      9 CL   UNL     1       7.460   5.033  12.810  0.00  0.00    +0.000 Cl
ATOM     10  C   UNL     1       7.726   5.216  15.487  0.00  0.00    +0.000 A 
ATOM     11  C   UNL     1       7.279   5.048  16.796  0.00  0.00    +0.000 A 
ATOM     12  C   UNL     1       6.014   4.492  17.028  0.00  0.00    +0.000 A 
ATOM     13  C   UNL     1       5.521   4.290  18.399  0.00  0.00    +0.000 A 
ATOM     14  O   UNL     1       6.216   4.652  19.349  0.00  0.00    +0.000 OA
ATOM     15  N   UNL     1       4.261   3.700  18.526  0.00  0.00    +0.000 N 
ATOM     16  C   UNL     1       3.774   3.452  19.808  0.00  0.00    +0.000 A 
ENDROOT
BRANCH   1  18
ATOM     17  O   UNL     1       2.787   2.290  22.309  0.00  0.00    +0.000 OA
ATOM     18  C   UNL     1       2.049   2.644  21.401  0.00  0.00    +0.000 C 
BRANCH  18  19
ATOM     19  O   UNL     1       0.717   2.766  21.571  0.00  0.00    +0.000 OA
ATOM     20  H   UNL     1       0.233   1.979  21.875  0.00  0.00    +0.000 HD
ENDBRANCH  18  19
ENDBRANCH   1  18
TORSDOF 2
ENDMDL
MODEL 2
REMARK VINA RESULT:      -7.4      3.649      6.756
REMARK  Name = 
REMARK  2 active torsions:
REMARK  status: ('A' for Active; 'I' for Inactive)
REMARK    1  A    between atoms: C_2  and  O_3
REMARK    2  A    between atoms: C_2  and  C_4
REMARK                            x       y       z     vdW  Elec       q    Type
REMARK                         _______ _______ _______ _____ _____    ______ ____
ROOT
ATOM      1  C   UNL     1       6.382   4.607  15.665  0.00  0.00    +0.000 A 
ATOM      2  C   UNL     1       7.168   4.833  16.864  0.00  0.00    +0.000 A 
ATOM      3  C   UNL     1       6.656   4.617  18.081  0.00  0.00    +0.000 A 
ATOM      4  C   UNL     1       5.252   4.145  18.226  0.00  0.00    +0.000 A 
ATOM      5  N   UNL     1       4.775   3.942  19.413  0.00  0.00    +0.000 NA
ATOM      6  C   UNL     1       3.455   3.486  19.533  0.00  0.00    +0.000 A 
ATOM      7  C   UNL     1       2.941   3.233  20.807  0.00  0.00    +0.000 A 
ATOM      8  C   UNL     1       1.628   2.782  20.957  0.00  0.00    +0.000 A 
ATOM      9 CL   UNL     1       1.008   2.471  22.530  0.00  0.00    +0.000 Cl
ATOM     10  C   UNL     1       0.814   2.578  19.843  0.00  0.00    +0.000 A 
ATOM     11  C   UNL     1       1.319   2.826  18.569  0.00  0.00    +0.000 A 
ATOM     12  C   UNL     1       2.638   3.276  18.423  0.00  0.00    +0.000 A 
ATOM     13  C   UNL     1       3.203   3.532  17.089  0.00  0.00    +0.000 A 
ATOM     14  O   UNL     1       2.490   3.388  16.095  0.00  0.00    +0.000 OA
ATOM     15  N   UNL     1       4.536   3.948  17.049  0.00  0.00    +0.000 N 
ATOM     16  C   UNL     1       5.123   4.162  15.803  0.00  0.00    +0.000 A 
ENDROOT
BRANCH   1  18
ATOM     17  O   UNL     1       7.916   5.614  14.150  0.00  0.00    +0.000 OA
ATOM     18  C   UNL     1       7.015   4.808  14.331  0.00  0.00    +0.000 C 
BRANCH  18  19
ATOM     19  O   UNL     1       6.509   4.066  13.325  0.00  0.00    +0.000 OA
ATOM     20  H   UNL     1       5.802   3.436  13.548  0.00  0.00    +0.000 HD
ENDBRANCH  18  19
ENDBRANCH   1  18
TORSDOF 2
ENDMDL
MODEL 3
REMARK VINA RESULT:      -7.3      4.887      5.784
REMARK  Name = 
REMARK  2 active torsions:
REMARK  status: ('A' for Active; 'I' for Inactive)
REMARK    1  A    between atoms: C_2  and  O_3
REMARK    2  A    between atoms: C_2  and  C_4
REMARK                            x       y       z     vdW  Elec       q    Type
REMARK                         _______ _______ _______ _____ _____    ______ ____
ROOT
ATOM      1  C   UNL     1       3.481   3.175  19.710  0.00  0.00    +0.000 A 
ATOM      2  C   UNL     1       2.733   3.286  20.949  0.00  0.00    +0.000 A 
ATOM      3  C   UNL     1       2.109   4.421  21.285  0.00  0.00    +0.000 A 
ATOM      4  C   UNL     1       2.180   5.604  20.386  0.00  0.00    +0.000 A 
ATOM      5  N   UNL     1       1.569   6.693  20.729  0.00  0.00    +0.000 NA
ATOM      6  C   UNL     1       1.636   7.796  19.866  0.00  0.00    +0.000 A 
ATOM      7  C   UNL     1       0.954   8.965  20.211  0.00  0.00    +0.000 A 
ATOM      8  C   UNL     1       1.005  10.081  19.372  0.00  0.00    +0.000 A 
ATOM      9 CL   UNL     1       0.159  11.514  19.806  0.00  0.00    +0.000 Cl
ATOM     10  C   UNL     1       1.735  10.046  18.185  0.00  0.00    +0.000 A 
ATOM     11  C   UNL     1       2.417   8.883  17.832  0.00  0.00    +0.000 A 
ATOM     12  C   UNL     1       2.360   7.766  18.675  0.00  0.00    +0.000 A 
ATOM     13  C   UNL     1       3.058   6.520  18.322  0.00  0.00    +0.000 A 
ATOM     14  O   UNL     1       3.733   6.478  17.293  0.00  0.00    +0.000 OA
ATOM     15  N   UNL     1       2.913   5.453  19.212  0.00  0.00    +0.000 N 
ATOM     16  C   UNL     1       3.524   4.241  18.894  0.00  0.00    +0.000 A 
ENDROOT
BRANCH   1  18
ATOM     17  O   UNL     1       3.670   1.151  18.472  0.00  0.00    +0.000 OA
ATOM     18  C   UNL     1       4.112   1.873  19.354  0.00  0.00    +0.000 C 
BRANCH  18  19
ATOM     19  O   UNL     1       5.187   1.524  20.090  0.00  0.00    +0.000 OA
ATOM     20  H   UNL     1       5.404   2.083  20.855  0.00  0.00    +0.000 HD
ENDBRANCH  18  19
ENDBRANCH   1  18
TORSDOF 2
ENDMDL
MODEL 4
REMARK VINA RESULT:      -6.8      4.567      5.547
REMARK  Name = 
REMARK  2 active torsions:
REMARK  status: ('A' for Active; 'I' for Inactive)
REMARK    1  A    between atoms: C_2  and  O_3
REMARK    2  A    between atoms: C_2  and  C_4
REMARK                            x       y       z     vdW  Elec       q    Type
REMARK                         _______ _______ _______ _____ _____    ______ ____
ROOT
ATOM      1  C   UNL     1       4.089   3.161  18.894  0.00  0.00    +0.000 A 
ATOM      2  C   UNL     1       4.531   3.656  17.603  0.00  0.00    +0.000 A 
ATOM      3  C   UNL     1       4.236   4.897  17.197  0.00  0.00    +0.000 A 
ATOM      4  C   UNL     1       3.433   5.795  18.069  0.00  0.00    +0.000 A 
ATOM      5  N   UNL     1       3.158   6.992  17.658  0.00  0.00    +0.000 NA
ATOM      6  C   UNL     1       2.411   7.831  18.496  0.00  0.00    +0.000 A 
ATOM      7  C   UNL     1       2.136   9.134  18.076  0.00  0.00    +0.000 A 
ATOM      8  C   UNL     1       1.391   9.991  18.889  0.00  0.00    +0.000 A 
ATOM      9 CL   UNL     1       1.061  11.595  18.362  0.00  0.00    +0.000 Cl
ATOM     10  C   UNL     1       0.911   9.561  20.126  0.00  0.00    +0.000 A 
ATOM     11  C   UNL     1       1.182   8.263  20.553  0.00  0.00    +0.000 A 
ATOM     12  C   UNL     1       1.932   7.408  19.736  0.00  0.00    +0.000 A 
ATOM     13  C   UNL     1       2.246   6.037  20.168  0.00  0.00    +0.000 A 
ATOM     14  O   UNL     1       1.806   5.628  21.242  0.00  0.00    +0.000 OA
ATOM     15  N   UNL     1       3.027   5.275  19.295  0.00  0.00    +0.000 N 
ATOM     16  C   UNL     1       3.383   3.984  19.685  0.00  0.00    +0.000 A 
ENDROOT
BRANCH   1  18
ATOM     17  O   UNL     1       5.023   1.576  20.404  0.00  0.00    +0.000 OA
ATOM     18  C   UNL     1       4.491   1.792  19.325  0.00  0.00    +0.000 C 
BRANCH  18  19
ATOM     19  O   UNL     1       4.258   0.807  18.434  0.00  0.00    +0.000 OA
ATOM     20  H   UNL     1       3.768   0.027  18.749  0.00  0.00    +0.000 HD
ENDBRANCH  18  19
ENDBRANCH   1  18
TORSDOF 2
ENDMDL
MODEL 5
REMARK VINA RESULT:      -6.7      6.140      7.732
REMARK  Name = 
REMARK  2 active torsions:
REMARK  status: ('A' for Active; 'I' for Inactive)
REMARK    1  A    between atoms: C_2  and  O_3
REMARK    2  A    between atoms: C_2  and  C_4
REMARK                            x       y       z     vdW  Elec       q    Type
REMARK                         _______ _______ _______ _____ _____    ______ ____
ROOT
ATOM      1  C   UNL     1       4.064   5.999  17.467  0.00  0.00    +0.000 A 
ATOM      2  C   UNL     1       3.969   5.192  18.669  0.00  0.00    +0.000 A 
ATOM      3  C   UNL     1       3.248   5.595  19.722  0.00  0.00    +0.000 A 
ATOM      4  C   UNL     1       2.531   6.897  19.679  0.00  0.00    +0.000 A 
ATOM      5  N   UNL     1       1.838   7.270  20.708  0.00  0.00    +0.000 NA
ATOM      6  C   UNL     1       1.159   8.494  20.648  0.00  0.00    +0.000 A 
ATOM      7  C   UNL     1       0.383   8.890  21.740  0.00  0.00    +0.000 A 
ATOM      8  C   UNL     1      -0.302  10.106  21.709  0.00  0.00    +0.000 A 
ATOM      9 CL   UNL     1      -1.256  10.582  23.059  0.00  0.00    +0.000 Cl
ATOM     10  C   UNL     1      -0.223  10.941  20.595  0.00  0.00    +0.000 A 
ATOM     11  C   UNL     1       0.548  10.553  19.500  0.00  0.00    +0.000 A 
ATOM     12  C   UNL     1       1.230   9.330  19.535  0.00  0.00    +0.000 A 
ATOM     13  C   UNL     1       2.040   8.888  18.388  0.00  0.00    +0.000 A 
ATOM     14  O   UNL     1       2.148   9.624  17.407  0.00  0.00    +0.000 OA
ATOM     15  N   UNL     1       2.656   7.640  18.507  0.00  0.00    +0.000 N 
ATOM     16  C   UNL     1       3.398   7.164  17.427  0.00  0.00    +0.000 A 
ENDROOT
BRANCH   1  18
ATOM     17  O   UNL     1       5.108   4.297  16.173  0.00  0.00    +0.000 OA
ATOM     18  C   UNL     1       4.834   5.481  16.300  0.00  0.00    +0.000 C 
BRANCH  18  19
ATOM     19  O   UNL     1       5.237   6.407  15.408  0.00  0.00    +0.000 OA
ATOM     20  H   UNL     1       4.564   6.768  14.805  0.00  0.00    +0.000 HD
ENDBRANCH  18  19
ENDBRANCH   1  18
TORSDOF 2
ENDMDL
MODEL 6
REMARK VINA RESULT:      -6.7      5.800      7.166
REMARK  Name = 
REMARK  2 active torsions:
REMARK  status: ('A' for Active; 'I' for Inactive)
REMARK    1  A    between atoms: C_2  and  O_3
REMARK    2  A    between atoms: C_2  and  C_4
REMARK                            x       y       z     vdW  Elec       q    Type
REMARK                         _______ _______ _______ _____ _____    ______ ____
ROOT
ATOM      1  C   UNL     1       3.666   4.776  18.201  0.00  0.00    +0.000 A 
ATOM      2  C   UNL     1       3.329   4.214  19.496  0.00  0.00    +0.000 A 
ATOM      3  C   UNL     1       2.637   4.918  20.399  0.00  0.00    +0.000 A 
ATOM      4  C   UNL     1       2.205   6.307  20.090  0.00  0.00    +0.000 A 
ATOM      5  N   UNL     1       1.535   6.972  20.977  0.00  0.00    +0.000 NA
ATOM      6  C   UNL     1       1.125   8.275  20.666  0.00  0.00    +0.000 A 
ATOM      7  C   UNL     1       0.376   8.989  21.604  0.00  0.00    +0.000 A 
ATOM      8  C   UNL     1      -0.044  10.291  21.323  0.00  0.00    +0.000 A 
ATOM      9 CL   UNL     1      -0.969  11.159  22.484  0.00  0.00    +0.000 Cl
ATOM     10  C   UNL     1       0.279  10.897  20.109  0.00  0.00    +0.000 A 
ATOM     11  C   UNL     1       1.025  10.191  19.167  0.00  0.00    +0.000 A 
ATOM     12  C   UNL     1       1.440   8.884  19.452  0.00  0.00    +0.000 A 
ATOM     13  C   UNL     1       2.217   8.110  18.471  0.00  0.00    +0.000 A 
ATOM     14  O   UNL     1       2.538   8.637  17.406  0.00  0.00    +0.000 OA
ATOM     15  N   UNL     1       2.556   6.805  18.838  0.00  0.00    +0.000 N 
ATOM     16  C   UNL     1       3.256   6.023  17.921  0.00  0.00    +0.000 A 
ENDROOT
BRANCH   1  18
ATOM     17  O   UNL     1       4.838   4.389  16.166  0.00  0.00    +0.000 OA
ATOM     18  C   UNL     1       4.391   3.933  17.208  0.00  0.00    +0.000 C 
BRANCH  18  19
ATOM     19  O   UNL     1       4.494   2.624  17.517  0.00  0.00    +0.000 OA
ATOM     20  H   UNL     1       3.718   2.063  17.347  0.00  0.00    +0.000 HD
ENDBRANCH  18  19
ENDBRANCH   1  18
TORSDOF 2
ENDMDL
MODEL 7
REMARK VINA RESULT:      -6.6      5.027      6.941
REMARK  Name = 
REMARK  2 active torsions:
REMARK  status: ('A' for Active; 'I' for Inactive)
REMARK    1  A    between atoms: C_2  and  O_3
REMARK    2  A    between atoms: C_2  and  C_4
REMARK                            x       y       z     vdW  Elec       q    Type
REMARK                         _______ _______ _______ _____ _____    ______ ____
ROOT
ATOM      1  C   UNL     1       5.385   5.086  16.851  0.00  0.00    +0.000 A 
ATOM      2  C   UNL     1       5.338   4.249  18.036  0.00  0.00    +0.000 A 
ATOM      3  C   UNL     1       4.552   4.557  19.074  0.00  0.00    +0.000 A 
ATOM      4  C   UNL     1       3.711   5.784  19.033  0.00  0.00    +0.000 A 
ATOM      5  N   UNL     1       2.957   6.066  20.047  0.00  0.00    +0.000 NA
ATOM      6  C   UNL     1       2.162   7.219  19.989  0.00  0.00    +0.000 A 
ATOM      7  C   UNL     1       1.322   7.515  21.064  0.00  0.00    +0.000 A 
ATOM      8  C   UNL     1       0.521   8.658  21.035  0.00  0.00    +0.000 A 
ATOM      9 CL   UNL     1      -0.512   9.010  22.364  0.00  0.00    +0.000 Cl
ATOM     10  C   UNL     1       0.548   9.519  19.939  0.00  0.00    +0.000 A 
ATOM     11  C   UNL     1       1.383   9.231  18.861  0.00  0.00    +0.000 A 
ATOM     12  C   UNL     1       2.182   8.080  18.893  0.00  0.00    +0.000 A 
ATOM     13  C   UNL     1       3.062   7.743  17.764  0.00  0.00    +0.000 A 
ATOM     14  O   UNL     1       3.124   8.506  16.799  0.00  0.00    +0.000 OA
ATOM     15  N   UNL     1       3.794   6.559  17.879  0.00  0.00    +0.000 N 
ATOM     16  C   UNL     1       4.609   6.180  16.813  0.00  0.00    +0.000 A 
ENDROOT
BRANCH   1  18
ATOM     17  O   UNL     1       6.012   3.653  15.057  0.00  0.00    +0.000 OA
ATOM     18  C   UNL     1       6.234   4.670  15.699  0.00  0.00    +0.000 C 
BRANCH  18  19
ATOM     19  O   UNL     1       7.285   5.470  15.427  0.00  0.00    +0.000 OA
ATOM     20  H   UNL     1       7.228   6.026  14.631  0.00  0.00    +0.000 HD
ENDBRANCH  18  19
ENDBRANCH   1  18
TORSDOF 2
ENDMDL
MODEL 8
REMARK VINA RESULT:      -6.6      4.350      4.648
REMARK  Name = 
REMARK  2 active torsions:
REMARK  status: ('A' for Active; 'I' for Inactive)
REMARK    1  A    between atoms: C_2  and  O_3
REMARK    2  A    between atoms: C_2  and  C_4
REMARK                            x       y       z     vdW  Elec       q    Type
REMARK                         _______ _______ _______ _____ _____    ______ ____
ROOT
ATOM      1  C   UNL     1       1.021   8.583  20.429  0.00  0.00    +0.000 A 
ATOM      2  C   UNL     1       1.150   9.535  19.341  0.00  0.00    +0.000 A 
ATOM      3  C   UNL     1       1.942   9.287  18.291  0.00  0.00    +0.000 A 
ATOM      4  C   UNL     1       2.719   8.020  18.227  0.00  0.00    +0.000 A 
ATOM      5  N   UNL     1       3.480   7.798  17.203  0.00  0.00    +0.000 NA
ATOM      6  C   UNL     1       4.197   6.595  17.151  0.00  0.00    +0.000 A 
ATOM      7  C   UNL     1       4.996   6.332  16.036  0.00  0.00    +0.000 A 
ATOM      8  C   UNL     1       5.723   5.142  15.959  0.00  0.00    +0.000 A 
ATOM      9 CL   UNL     1       6.701   4.829  14.580  0.00  0.00    +0.000 Cl
ATOM     10  C   UNL     1       5.666   4.204  16.989  0.00  0.00    +0.000 A 
ATOM     11  C   UNL     1       4.870   4.458  18.105  0.00  0.00    +0.000 A 
ATOM     12  C   UNL     1       4.139   5.651  18.176  0.00  0.00    +0.000 A 
ATOM     13  C   UNL     1       3.280   5.939  19.335  0.00  0.00    +0.000 A 
ATOM     14  O   UNL     1       3.239   5.138  20.269  0.00  0.00    +0.000 OA
ATOM     15  N   UNL     1       2.568   7.140  19.296  0.00  0.00    +0.000 N 
ATOM     16  C   UNL     1       1.709   7.433  20.355  0.00  0.00    +0.000 A 
ENDROOT
BRANCH   1  18
ATOM     17  O   UNL     1      -0.825   8.123  21.859  0.00  0.00    +0.000 OA
ATOM     18  C   UNL     1       0.083   8.880  21.549  0.00  0.00    +0.000 C 
BRANCH  18  19
ATOM     19  O   UNL     1       0.280  10.056  22.180  0.00  0.00    +0.000 OA
ATOM     20  H   UNL     1       0.816  10.041  22.992  0.00  0.00    +0.000 HD
ENDBRANCH  18  19
ENDBRANCH   1  18
TORSDOF 2
ENDMDL
MODEL 9
REMARK VINA RESULT:      -6.6      5.781      6.817
REMARK  Name = 
REMARK  2 active torsions:
REMARK  status: ('A' for Active; 'I' for Inactive)
REMARK    1  A    between atoms: C_2  and  O_3
REMARK    2  A    between atoms: C_2  and  C_4
REMARK                            x       y       z     vdW  Elec       q    Type
REMARK                         _______ _______ _______ _____ _____    ______ ____
ROOT
ATOM      1  C   UNL     1       4.033   5.172  18.703  0.00  0.00    +0.000 A 
ATOM      2  C   UNL     1       4.399   5.801  17.447  0.00  0.00    +0.000 A 
ATOM      3  C   UNL     1       3.908   6.996  17.100  0.00  0.00    +0.000 A 
ATOM      4  C   UNL     1       2.960   7.702  18.002  0.00  0.00    +0.000 A 
ATOM      5  N   UNL     1       2.496   8.858  17.648  0.00  0.00    +0.000 NA
ATOM      6  C   UNL     1       1.613   9.517  18.514  0.00  0.00    +0.000 A 
ATOM      7  C   UNL     1       1.131  10.779  18.156  0.00  0.00    +0.000 A 
ATOM      8  C   UNL     1       0.247  11.457  18.998  0.00  0.00    +0.000 A 
ATOM      9 CL   UNL     1      -0.337  13.011  18.547  0.00  0.00    +0.000 Cl
ATOM     10  C   UNL     1      -0.167  10.889  20.202  0.00  0.00    +0.000 A 
ATOM     11  C   UNL     1       0.310   9.632  20.567  0.00  0.00    +0.000 A 
ATOM     12  C   UNL     1       1.199   8.957  19.721  0.00  0.00    +0.000 A 
ATOM     13  C   UNL     1       1.730   7.634  20.088  0.00  0.00    +0.000 A 
ATOM     14  O   UNL     1       1.353   7.102  21.132  0.00  0.00    +0.000 OA
ATOM     15  N   UNL     1       2.634   7.058  19.192  0.00  0.00    +0.000 N 
ATOM     16  C   UNL     1       3.193   5.824  19.521  0.00  0.00    +0.000 A 
ENDROOT
BRANCH   1  18
ATOM     17  O   UNL     1       3.988   2.917  19.464  0.00  0.00    +0.000 OA
ATOM     18  C   UNL     1       4.651   3.865  19.070  0.00  0.00    +0.000 C 
BRANCH  18  19
ATOM     19  O   UNL     1       5.994   3.805  18.971  0.00  0.00    +0.000 OA
ATOM     20  H   UNL     1       6.475   3.362  19.692  0.00  0.00    +0.000 HD
ENDBRANCH  18  19
ENDBRANCH   1  18
TORSDOF 2
ENDMDL
