MODEL 1
REMARK VINA RESULT:      -7.0      0.000      0.000
REMARK  Name = 
REMARK  9 active torsions:
REMARK  status: ('A' for Active; 'I' for Inactive)
REMARK    1  A    between atoms: C_1  and  C_2
REMARK    2  A    between atoms: C_2  and  C_3
REMARK    3  A    between atoms: C_3  and  N_4
REMARK    4  A    between atoms: N_4  and  C_5
REMARK    5  A    between atoms: N_4  and  C_8
REMARK    6  A    between atoms: C_5  and  C_6
REMARK    7  A    between atoms: C_6  and  C_7
REMARK    8  A    between atoms: C_14  and  N_15
REMARK    9  A    between atoms: C_16  and  C_17
REMARK                            x       y       z     vdW  Elec       q    Type
REMARK                         _______ _______ _______ _____ _____    ______ ____
ROOT
ATOM      1  C   UNL     1       4.942   4.144  17.186  0.00  0.00    +0.000 C 
ATOM      2  C   UNL     1       3.734   3.305  16.710  0.00  0.00    +0.000 C 
ATOM      3  C   UNL     1       2.860   2.833  17.882  0.00  0.00    +0.000 C 
ATOM      4  C   UNL     1       2.452   3.947  18.809  0.00  0.00    +0.000 A 
ATOM      5  C   UNL     1       1.296   3.845  19.589  0.00  0.00    +0.000 A 
ATOM      6  C   UNL     1       0.915   4.884  20.454  0.00  0.00    +0.000 A 
ATOM      7  C   UNL     1       1.701   6.028  20.592  0.00  0.00    +0.000 A 
ATOM      8  C   UNL     1       2.881   6.103  19.850  0.00  0.00    +0.000 A 
ATOM      9  C   UNL     1       3.246   5.087  18.942  0.00  0.00    +0.000 A 
ATOM     10  C   UNL     1       4.425   5.330  18.044  0.00  0.00    +0.000 C 
ENDROOT
BRANCH   7  11
ATOM     11  N   UNL     1       1.362   7.134  21.402  0.00  0.00    +0.000 N 
ATOM     12  C   UNL     1       1.204   8.444  20.993  0.00  0.00    +0.000 C 
ATOM     13  C   UNL     1       0.907   9.413  22.114  0.00  0.00    +0.000 C 
ATOM     14  O   UNL     1       1.267   8.868  19.840  0.00  0.00    +0.000 OA
ATOM     15  H   UNL     1       1.280   6.950  22.395  0.00  0.00    +0.000 HD
ENDBRANCH   7  11
BRANCH   1  16
ATOM     16  N   UNL     1       5.810   4.655  16.067  0.00  0.00    +0.000 NA
BRANCH  16  17
ATOM     17  C   UNL     1       7.018   5.338  16.585  0.00  0.00    +0.000 C 
BRANCH  17  19
ATOM     18  C   UNL     1       7.952   5.802  18.920  0.00  0.00    +0.000 C 
ATOM     19  C   UNL     1       7.704   4.765  17.835  0.00  0.00    +0.000 C 
ENDBRANCH  17  19
ENDBRANCH  16  17
BRANCH  16  20
ATOM     20  C   UNL     1       6.116   3.648  15.032  0.00  0.00    +0.000 C 
BRANCH  20  21
ATOM     21  C   UNL     1       6.492   4.198  13.647  0.00  0.00    +0.000 C 
ATOM     22  C   UNL     1       5.876   3.375  12.523  0.00  0.00    +0.000 C 
ENDBRANCH  20  21
ENDBRANCH  16  20
ENDBRANCH   1  16
TORSDOF 6
ENDMDL
MODEL 2
REMARK VINA RESULT:      -6.8      1.019      2.723
REMARK  Name = 
REMARK  9 active torsions:
REMARK  status: ('A' for Active; 'I' for Inactive)
REMARK    1  A    between atoms: C_1  and  C_2
REMARK    2  A    between atoms: C_2  and  C_3
REMARK    3  A    between atoms: C_3  and  N_4
REMARK    4  A    between atoms: N_4  and  C_5
REMARK    5  A    between atoms: N_4  and  C_8
REMARK    6  A    between atoms: C_5  and  C_6
REMARK    7  A    between atoms: C_6  and  C_7
REMARK    8  A    between atoms: C_14  and  N_15
REMARK    9  A    between atoms: C_16  and  C_17
REMARK                            x       y       z     vdW  Elec       q    Type
REMARK                         _______ _______ _______ _____ _____    ______ ____
ROOT
ATOM      1  C   UNL     1       5.738   4.237  17.848  0.00  0.00    +0.000 C 
ATOM      2  C   UNL     1       4.666   3.526  16.989  0.00  0.00    +0.000 C 
ATOM      3  C   UNL     1       3.507   2.986  17.842  0.00  0.00    +0.000 C 
ATOM      4  C   UNL     1       2.911   4.017  18.762  0.00  0.00    +0.000 A 
ATOM      5  C   UNL     1       1.592   3.903  19.211  0.00  0.00    +0.000 A 
ATOM      6  C   UNL     1       1.035   4.865  20.069  0.00  0.00    +0.000 A 
ATOM      7  C   UNL     1       1.795   5.938  20.533  0.00  0.00    +0.000 A 
ATOM      8  C   UNL     1       3.127   6.021  20.123  0.00  0.00    +0.000 A 
ATOM      9  C   UNL     1       3.680   5.087  19.222  0.00  0.00    +0.000 A 
ATOM     10  C   UNL     1       5.056   5.354  18.682  0.00  0.00    +0.000 C 
ENDROOT
BRANCH   7  11
ATOM     11  N   UNL     1       1.295   6.971  21.357  0.00  0.00    +0.000 N 
ATOM     12  C   UNL     1       1.134   8.300  21.016  0.00  0.00    +0.000 C 
ATOM     13  C   UNL     1       0.638   9.175  22.144  0.00  0.00    +0.000 C 
ATOM     14  O   UNL     1       1.336   8.807  19.913  0.00  0.00    +0.000 OA
ATOM     15  H   UNL     1       1.085   6.714  22.314  0.00  0.00    +0.000 HD
ENDBRANCH   7  11
BRANCH   1  16
ATOM     16  N   UNL     1       6.877   4.811  17.049  0.00  0.00    +0.000 NA
BRANCH  16  17
ATOM     17  C   UNL     1       7.002   4.151  15.728  0.00  0.00    +0.000 C 
BRANCH  17  19
ATOM     18  C   UNL     1       6.047   3.893  13.370  0.00  0.00    +0.000 C 
ATOM     19  C   UNL     1       6.393   4.849  14.502  0.00  0.00    +0.000 C 
ENDBRANCH  17  19
ENDBRANCH  16  17
BRANCH  16  20
ATOM     20  C   UNL     1       6.869   6.285  16.958  0.00  0.00    +0.000 C 
BRANCH  20  21
ATOM     21  C   UNL     1       7.789   7.026  17.940  0.00  0.00    +0.000 C 
ATOM     22  C   UNL     1       7.845   8.520  17.649  0.00  0.00    +0.000 C 
ENDBRANCH  20  21
ENDBRANCH  16  20
ENDBRANCH   1  16
TORSDOF 6
ENDMDL
MODEL 3
REMARK VINA RESULT:      -6.7      2.786      7.561
REMARK  Name = 
REMARK  9 active torsions:
REMARK  status: ('A' for Active; 'I' for Inactive)
REMARK    1  A    between atoms: C_1  and  C_2
REMARK    2  A    between atoms: C_2  and  C_3
REMARK    3  A    between atoms: C_3  and  N_4
REMARK    4  A    between atoms: N_4  and  C_5
REMARK    5  A    between atoms: N_4  and  C_8
REMARK    6  A    between atoms: C_5  and  C_6
REMARK    7  A    between atoms: C_6  and  C_7
REMARK    8  A    between atoms: C_14  and  N_15
REMARK    9  A    between atoms: C_16  and  C_17
REMARK                            x       y       z     vdW  Elec       q    Type
REMARK                         _______ _______ _______ _____ _____    ______ ____
ROOT
ATOM      1  C   UNL     1       4.047   4.900  18.489  0.00  0.00    +0.000 C 
ATOM      2  C   UNL     1       4.349   6.372  18.126  0.00  0.00    +0.000 C 
ATOM      3  C   UNL     1       5.717   6.530  17.443  0.00  0.00    +0.000 C 
ATOM      4  C   UNL     1       5.912   5.601  16.275  0.00  0.00    +0.000 A 
ATOM      5  C   UNL     1       6.805   5.919  15.247  0.00  0.00    +0.000 A 
ATOM      6  C   UNL     1       6.988   5.053  14.156  0.00  0.00    +0.000 A 
ATOM      7  C   UNL     1       6.316   3.832  14.089  0.00  0.00    +0.000 A 
ATOM      8  C   UNL     1       5.464   3.496  15.143  0.00  0.00    +0.000 A 
ATOM      9  C   UNL     1       5.237   4.381  16.217  0.00  0.00    +0.000 A 
ATOM     10  C   UNL     1       4.165   4.030  17.209  0.00  0.00    +0.000 C 
ENDROOT
BRANCH   7  11
ATOM     11  N   UNL     1       6.409   2.930  13.005  0.00  0.00    +0.000 N 
ATOM     12  C   UNL     1       5.501   2.775  11.975  0.00  0.00    +0.000 C 
ATOM     13  C   UNL     1       5.851   1.675  11.000  0.00  0.00    +0.000 C 
ATOM     14  O   UNL     1       4.485   3.441  11.784  0.00  0.00    +0.000 OA
ATOM     15  H   UNL     1       7.199   2.297  13.020  0.00  0.00    +0.000 HD
ENDBRANCH   7  11
BRANCH   1  16
ATOM     16  N   UNL     1       2.702   4.693  19.132  0.00  0.00    +0.000 NA
BRANCH  16  17
ATOM     17  C   UNL     1       1.986   5.977  19.318  0.00  0.00    +0.000 C 
BRANCH  17  19
ATOM     18  C   UNL     1       1.357   7.953  20.815  0.00  0.00    +0.000 C 
ATOM     19  C   UNL     1       1.759   6.488  20.750  0.00  0.00    +0.000 C 
ENDBRANCH  17  19
ENDBRANCH  16  17
BRANCH  16  20
ATOM     20  C   UNL     1       1.872   3.661  18.479  0.00  0.00    +0.000 C 
BRANCH  20  21
ATOM     21  C   UNL     1       0.841   2.959  19.375  0.00  0.00    +0.000 C 
ATOM     22  C   UNL     1       1.372   2.736  20.786  0.00  0.00    +0.000 C 
ENDBRANCH  20  21
ENDBRANCH  16  20
ENDBRANCH   1  16
TORSDOF 6
ENDMDL
MODEL 4
REMARK VINA RESULT:      -6.7      3.797      7.917
REMARK  Name = 
REMARK  9 active torsions:
REMARK  status: ('A' for Active; 'I' for Inactive)
REMARK    1  A    between atoms: C_1  and  C_2
REMARK    2  A    between atoms: C_2  and  C_3
REMARK    3  A    between atoms: C_3  and  N_4
REMARK    4  A    between atoms: N_4  and  C_5
REMARK    5  A    between atoms: N_4  and  C_8
REMARK    6  A    between atoms: C_5  and  C_6
REMARK    7  A    between atoms: C_6  and  C_7
REMARK    8  A    between atoms: C_14  and  N_15
REMARK    9  A    between atoms: C_16  and  C_17
REMARK                            x       y       z     vdW  Elec       q    Type
REMARK                         _______ _______ _______ _____ _____    ______ ____
ROOT
ATOM      1  C   UNL     1       0.797  10.461  19.761  0.00  0.00    +0.000 C 
ATOM      2  C   UNL     1       0.835  10.262  18.228  0.00  0.00    +0.000 C 
ATOM      3  C   UNL     1       2.054   9.441  17.781  0.00  0.00    +0.000 C 
ATOM      4  C   UNL     1       2.208   8.144  18.530  0.00  0.00    +0.000 A 
ATOM      5  C   UNL     1       2.890   7.064  17.963  0.00  0.00    +0.000 A 
ATOM      6  C   UNL     1       3.034   5.853  18.661  0.00  0.00    +0.000 A 
ATOM      7  C   UNL     1       2.537   5.709  19.956  0.00  0.00    +0.000 A 
ATOM      8  C   UNL     1       1.901   6.807  20.538  0.00  0.00    +0.000 A 
ATOM      9  C   UNL     1       1.709   8.009  19.826  0.00  0.00    +0.000 A 
ATOM     10  C   UNL     1       0.850   9.072  20.451  0.00  0.00    +0.000 C 
ENDROOT
BRANCH   7  11
ATOM     11  N   UNL     1       2.598   4.512  20.704  0.00  0.00    +0.000 N 
ATOM     12  C   UNL     1       1.613   3.549  20.809  0.00  0.00    +0.000 C 
ATOM     13  C   UNL     1       1.955   2.412  21.744  0.00  0.00    +0.000 C 
ATOM     14  O   UNL     1       0.535   3.531  20.218  0.00  0.00    +0.000 OA
ATOM     15  H   UNL     1       3.433   4.378  21.262  0.00  0.00    +0.000 HD
ENDBRANCH   7  11
BRANCH   1  16
ATOM     16  N   UNL     1      -0.400  11.234  20.246  0.00  0.00    +0.000 NA
BRANCH  16  17
ATOM     17  C   UNL     1      -0.105  11.958  21.505  0.00  0.00    +0.000 C 
BRANCH  17  19
ATOM     18  C   UNL     1      -0.962  10.291  23.246  0.00  0.00    +0.000 C 
ATOM     19  C   UNL     1      -1.017  11.717  22.718  0.00  0.00    +0.000 C 
ENDBRANCH  17  19
ENDBRANCH  16  17
BRANCH  16  20
ATOM     20  C   UNL     1      -1.021  12.095  19.220  0.00  0.00    +0.000 C 
BRANCH  20  21
ATOM     21  C   UNL     1      -2.496  11.806  18.900  0.00  0.00    +0.000 C 
ATOM     22  C   UNL     1      -2.651  10.982  17.629  0.00  0.00    +0.000 C 
ENDBRANCH  20  21
ENDBRANCH  16  20
ENDBRANCH   1  16
TORSDOF 6
ENDMDL
MODEL 5
REMARK VINA RESULT:      -6.6      1.314      2.872
REMARK  Name = 
REMARK  9 active torsions:
REMARK  status: ('A' for Active; 'I' for Inactive)
REMARK    1  A    between atoms: C_1  and  C_2
REMARK    2  A    between atoms: C_2  and  C_3
REMARK    3  A    between atoms: C_3  and  N_4
REMARK    4  A    between atoms: N_4  and  C_5
REMARK    5  A    between atoms: N_4  and  C_8
REMARK    6  A    between atoms: C_5  and  C_6
REMARK    7  A    between atoms: C_6  and  C_7
REMARK    8  A    between atoms: C_14  and  N_15
REMARK    9  A    between atoms: C_16  and  C_17
REMARK                            x       y       z     vdW  Elec       q    Type
REMARK                         _______ _______ _______ _____ _____    ______ ____
ROOT
ATOM      1  C   UNL     1       5.157   4.345  18.325  0.00  0.00    +0.000 C 
ATOM      2  C   UNL     1       4.120   3.230  18.594  0.00  0.00    +0.000 C 
ATOM      3  C   UNL     1       3.356   3.456  19.908  0.00  0.00    +0.000 C 
ATOM      4  C   UNL     1       2.758   4.833  20.022  0.00  0.00    +0.000 A 
ATOM      5  C   UNL     1       1.647   5.068  20.838  0.00  0.00    +0.000 A 
ATOM      6  C   UNL     1       1.088   6.352  20.945  0.00  0.00    +0.000 A 
ATOM      7  C   UNL     1       1.652   7.438  20.274  0.00  0.00    +0.000 A 
ATOM      8  C   UNL     1       2.792   7.208  19.502  0.00  0.00    +0.000 A 
ATOM      9  C   UNL     1       3.330   5.914  19.350  0.00  0.00    +0.000 A 
ATOM     10  C   UNL     1       4.437   5.720  18.353  0.00  0.00    +0.000 C 
ENDROOT
BRANCH   7  11
ATOM     11  N   UNL     1       1.122   8.747  20.292  0.00  0.00    +0.000 N 
ATOM     12  C   UNL     1       1.077   9.609  21.370  0.00  0.00    +0.000 C 
ATOM     13  C   UNL     1       0.382  10.921  21.087  0.00  0.00    +0.000 C 
ATOM     14  O   UNL     1       1.548   9.414  22.489  0.00  0.00    +0.000 OA
ATOM     15  H   UNL     1       0.683   9.061  19.434  0.00  0.00    +0.000 HD
ENDBRANCH   7  11
BRANCH   1  16
ATOM     16  N   UNL     1       5.906   4.181  17.030  0.00  0.00    +0.000 NA
BRANCH  16  17
ATOM     17  C   UNL     1       5.175   4.795  15.897  0.00  0.00    +0.000 C 
BRANCH  17  19
ATOM     18  C   UNL     1       6.061   3.872  13.682  0.00  0.00    +0.000 C 
ATOM     19  C   UNL     1       5.945   5.081  14.598  0.00  0.00    +0.000 C 
ENDBRANCH  17  19
ENDBRANCH  16  17
BRANCH  16  20
ATOM     20  C   UNL     1       7.322   4.596  17.094  0.00  0.00    +0.000 C 
BRANCH  20  21
ATOM     21  C   UNL     1       7.774   5.250  18.408  0.00  0.00    +0.000 C 
ATOM     22  C   UNL     1       7.884   6.764  18.281  0.00  0.00    +0.000 C 
ENDBRANCH  20  21
ENDBRANCH  16  20
ENDBRANCH   1  16
TORSDOF 6
ENDMDL
MODEL 6
REMARK VINA RESULT:      -6.6      0.870      1.043
REMARK  Name = 
REMARK  9 active torsions:
REMARK  status: ('A' for Active; 'I' for Inactive)
REMARK    1  A    between atoms: C_1  and  C_2
REMARK    2  A    between atoms: C_2  and  C_3
REMARK    3  A    between atoms: C_3  and  N_4
REMARK    4  A    between atoms: N_4  and  C_5
REMARK    5  A    between atoms: N_4  and  C_8
REMARK    6  A    between atoms: C_5  and  C_6
REMARK    7  A    between atoms: C_6  and  C_7
REMARK    8  A    between atoms: C_14  and  N_15
REMARK    9  A    between atoms: C_16  and  C_17
REMARK                            x       y       z     vdW  Elec       q    Type
REMARK                         _______ _______ _______ _____ _____    ______ ____
ROOT
ATOM      1  C   UNL     1       5.496   4.307  17.949  0.00  0.00    +0.000 C 
ATOM      2  C   UNL     1       4.420   3.606  17.087  0.00  0.00    +0.000 C 
ATOM      3  C   UNL     1       3.261   3.064  17.937  0.00  0.00    +0.000 C 
ATOM      4  C   UNL     1       2.670   4.090  18.867  0.00  0.00    +0.000 A 
ATOM      5  C   UNL     1       1.352   3.976  19.317  0.00  0.00    +0.000 A 
ATOM      6  C   UNL     1       0.799   4.933  20.184  0.00  0.00    +0.000 A 
ATOM      7  C   UNL     1       1.564   6.001  20.654  0.00  0.00    +0.000 A 
ATOM      8  C   UNL     1       2.895   6.082  20.242  0.00  0.00    +0.000 A 
ATOM      9  C   UNL     1       3.443   5.154  19.334  0.00  0.00    +0.000 A 
ATOM     10  C   UNL     1       4.819   5.420  18.793  0.00  0.00    +0.000 C 
ENDROOT
BRANCH   7  11
ATOM     11  N   UNL     1       1.069   7.029  21.487  0.00  0.00    +0.000 N 
ATOM     12  C   UNL     1       0.969   8.372  21.178  0.00  0.00    +0.000 C 
ATOM     13  C   UNL     1       0.461   9.234  22.310  0.00  0.00    +0.000 C 
ATOM     14  O   UNL     1       1.233   8.900  20.099  0.00  0.00    +0.000 OA
ATOM     15  H   UNL     1       0.811   6.754  22.428  0.00  0.00    +0.000 HD
ENDBRANCH   7  11
BRANCH   1  16
ATOM     16  N   UNL     1       6.636   4.884  17.153  0.00  0.00    +0.000 NA
BRANCH  16  17
ATOM     17  C   UNL     1       7.802   5.188  18.015  0.00  0.00    +0.000 C 
BRANCH  17  19
ATOM     18  C   UNL     1       7.537   7.675  17.478  0.00  0.00    +0.000 C 
ATOM     19  C   UNL     1       8.004   6.636  18.487  0.00  0.00    +0.000 C 
ENDBRANCH  17  19
ENDBRANCH  16  17
BRANCH  16  20
ATOM     20  C   UNL     1       6.995   4.098  15.955  0.00  0.00    +0.000 C 
BRANCH  20  21
ATOM     21  C   UNL     1       6.790   4.798  14.603  0.00  0.00    +0.000 C 
ATOM     22  C   UNL     1       5.991   3.938  13.633  0.00  0.00    +0.000 C 
ENDBRANCH  20  21
ENDBRANCH  16  20
ENDBRANCH   1  16
TORSDOF 6
ENDMDL
MODEL 7
REMARK VINA RESULT:      -6.6      2.785      5.335
REMARK  Name = 
REMARK  9 active torsions:
REMARK  status: ('A' for Active; 'I' for Inactive)
REMARK    1  A    between atoms: C_1  and  C_2
REMARK    2  A    between atoms: C_2  and  C_3
REMARK    3  A    between atoms: C_3  and  N_4
REMARK    4  A    between atoms: N_4  and  C_5
REMARK    5  A    between atoms: N_4  and  C_8
REMARK    6  A    between atoms: C_5  and  C_6
REMARK    7  A    between atoms: C_6  and  C_7
REMARK    8  A    between atoms: C_14  and  N_15
REMARK    9  A    between atoms: C_16  and  C_17
REMARK                            x       y       z     vdW  Elec       q    Type
REMARK                         _______ _______ _______ _____ _____    ______ ____
ROOT
ATOM      1  C   UNL     1       2.340   6.398  19.520  0.00  0.00    +0.000 C 
ATOM      2  C   UNL     1       2.946   7.152  18.314  0.00  0.00    +0.000 C 
ATOM      3  C   UNL     1       1.988   8.216  17.756  0.00  0.00    +0.000 C 
ATOM      4  C   UNL     1       1.458   9.153  18.809  0.00  0.00    +0.000 A 
ATOM      5  C   UNL     1       1.022  10.438  18.472  0.00  0.00    +0.000 A 
ATOM      6  C   UNL     1       0.527  11.313  19.453  0.00  0.00    +0.000 A 
ATOM      7  C   UNL     1       0.417  10.910  20.784  0.00  0.00    +0.000 A 
ATOM      8  C   UNL     1       0.806   9.608  21.107  0.00  0.00    +0.000 A 
ATOM      9  C   UNL     1       1.350   8.741  20.137  0.00  0.00    +0.000 A 
ATOM     10  C   UNL     1       1.920   7.430  20.600  0.00  0.00    +0.000 C 
ENDROOT
BRANCH   7  11
ATOM     11  N   UNL     1      -0.023  11.744  21.836  0.00  0.00    +0.000 N 
ATOM     12  C   UNL     1      -1.276  12.308  21.977  0.00  0.00    +0.000 C 
ATOM     13  C   UNL     1      -1.417  13.212  23.180  0.00  0.00    +0.000 C 
ATOM     14  O   UNL     1      -2.250  12.132  21.247  0.00  0.00    +0.000 OA
ATOM     15  H   UNL     1       0.674  11.994  22.527  0.00  0.00    +0.000 HD
ENDBRANCH   7  11
BRANCH   1  16
ATOM     16  N   UNL     1       3.258   5.367  20.119  0.00  0.00    +0.000 NA
BRANCH  16  17
ATOM     17  C   UNL     1       2.515   4.156  20.540  0.00  0.00    +0.000 C 
BRANCH  17  19
ATOM     18  C   UNL     1       0.887   2.785  19.122  0.00  0.00    +0.000 C 
ATOM     19  C   UNL     1       1.070   3.977  20.049  0.00  0.00    +0.000 C 
ENDBRANCH  17  19
ENDBRANCH  16  17
BRANCH  16  20
ATOM     20  C   UNL     1       4.441   5.057  19.292  0.00  0.00    +0.000 C 
BRANCH  20  21
ATOM     21  C   UNL     1       4.448   3.679  18.614  0.00  0.00    +0.000 C 
ATOM     22  C   UNL     1       4.001   3.758  17.160  0.00  0.00    +0.000 C 
ENDBRANCH  20  21
ENDBRANCH  16  20
ENDBRANCH   1  16
TORSDOF 6
ENDMDL
MODEL 8
REMARK VINA RESULT:      -6.6      3.303      7.744
REMARK  Name = 
REMARK  9 active torsions:
REMARK  status: ('A' for Active; 'I' for Inactive)
REMARK    1  A    between atoms: C_1  and  C_2
REMARK    2  A    between atoms: C_2  and  C_3
REMARK    3  A    between atoms: C_3  and  N_4
REMARK    4  A    between atoms: N_4  and  C_5
REMARK    5  A    between atoms: N_4  and  C_8
REMARK    6  A    between atoms: C_5  and  C_6
REMARK    7  A    between atoms: C_6  and  C_7
REMARK    8  A    between atoms: C_14  and  N_15
REMARK    9  A    between atoms: C_16  and  C_17
REMARK                            x       y       z     vdW  Elec       q    Type
REMARK                         _______ _______ _______ _____ _____    ______ ____
ROOT
ATOM      1  C   UNL     1       0.728   9.638  19.127  0.00  0.00    +0.000 C 
ATOM      2  C   UNL     1       1.116   9.265  20.577  0.00  0.00    +0.000 C 
ATOM      3  C   UNL     1       1.312   7.751  20.752  0.00  0.00    +0.000 C 
ATOM      4  C   UNL     1       2.247   7.149  19.737  0.00  0.00    +0.000 A 
ATOM      5  C   UNL     1       2.942   5.968  20.014  0.00  0.00    +0.000 A 
ATOM      6  C   UNL     1       3.814   5.405  19.068  0.00  0.00    +0.000 A 
ATOM      7  C   UNL     1       3.979   5.985  17.810  0.00  0.00    +0.000 A 
ATOM      8  C   UNL     1       3.244   7.136  17.520  0.00  0.00    +0.000 A 
ATOM      9  C   UNL     1       2.404   7.735  18.481  0.00  0.00    +0.000 A 
ATOM     10  C   UNL     1       1.800   9.072  18.158  0.00  0.00    +0.000 C 
ENDROOT
BRANCH   7  11
ATOM     11  N   UNL     1       4.872   5.509  16.824  0.00  0.00    +0.000 N 
ATOM     12  C   UNL     1       6.230   5.751  16.748  0.00  0.00    +0.000 C 
ATOM     13  C   UNL     1       6.899   5.155  15.531  0.00  0.00    +0.000 C 
ATOM     14  O   UNL     1       6.914   6.370  17.562  0.00  0.00    +0.000 OA
ATOM     15  H   UNL     1       4.457   4.979  16.067  0.00  0.00    +0.000 HD
ENDBRANCH   7  11
BRANCH   1  16
ATOM     16  N   UNL     1       0.557  11.116  18.902  0.00  0.00    +0.000 NA
BRANCH  16  17
ATOM     17  C   UNL     1      -0.833  11.450  18.511  0.00  0.00    +0.000 C 
BRANCH  17  19
ATOM     18  C   UNL     1      -2.121  10.027  16.822  0.00  0.00    +0.000 C 
ATOM     19  C   UNL     1      -1.826  10.299  18.289  0.00  0.00    +0.000 C 
ENDBRANCH  17  19
ENDBRANCH  16  17
BRANCH  16  20
ATOM     20  C   UNL     1       1.062  11.958  20.005  0.00  0.00    +0.000 C 
BRANCH  20  21
ATOM     21  C   UNL     1       2.082  13.039  19.616  0.00  0.00    +0.000 C 
ATOM     22  C   UNL     1       2.588  12.857  18.191  0.00  0.00    +0.000 C 
ENDBRANCH  20  21
ENDBRANCH  16  20
ENDBRANCH   1  16
TORSDOF 6
ENDMDL
MODEL 9
REMARK VINA RESULT:      -6.6      3.086      8.202
REMARK  Name = 
REMARK  9 active torsions:
REMARK  status: ('A' for Active; 'I' for Inactive)
REMARK    1  A    between atoms: C_1  and  C_2
REMARK    2  A    between atoms: C_2  and  C_3
REMARK    3  A    between atoms: C_3  and  N_4
REMARK    4  A    between atoms: N_4  and  C_5
REMARK    5  A    between atoms: N_4  and  C_8
REMARK    6  A    between atoms: C_5  and  C_6
REMARK    7  A    between atoms: C_6  and  C_7
REMARK    8  A    between atoms: C_14  and  N_15
REMARK    9  A    between atoms: C_16  and  C_17
REMARK                            x       y       z     vdW  Elec       q    Type
REMARK                         _______ _______ _______ _____ _____    ______ ____
ROOT
ATOM      1  C   UNL     1       0.717   9.555  19.329  0.00  0.00    +0.000 C 
ATOM      2  C   UNL     1       1.096   8.981  20.713  0.00  0.00    +0.000 C 
ATOM      3  C   UNL     1       1.386   7.473  20.655  0.00  0.00    +0.000 C 
ATOM      4  C   UNL     1       2.379   7.097  19.588  0.00  0.00    +0.000 A 
ATOM      5  C   UNL     1       3.143   5.931  19.698  0.00  0.00    +0.000 A 
ATOM      6  C   UNL     1       4.070   5.578  18.703  0.00  0.00    +0.000 A 
ATOM      7  C   UNL     1       4.224   6.359  17.557  0.00  0.00    +0.000 A 
ATOM      8  C   UNL     1       3.423   7.495  17.428  0.00  0.00    +0.000 A 
ATOM      9  C   UNL     1       2.525   7.883  18.444  0.00  0.00    +0.000 A 
ATOM     10  C   UNL     1       1.843   9.215  18.316  0.00  0.00    +0.000 C 
ENDROOT
BRANCH   7  11
ATOM     11  N   UNL     1       5.166   6.099  16.537  0.00  0.00    +0.000 N 
ATOM     12  C   UNL     1       5.364   4.903  15.875  0.00  0.00    +0.000 C 
ATOM     13  C   UNL     1       6.500   4.925  14.879  0.00  0.00    +0.000 C 
ATOM     14  O   UNL     1       4.711   3.870  16.012  0.00  0.00    +0.000 OA
ATOM     15  H   UNL     1       5.795   6.860  16.309  0.00  0.00    +0.000 HD
ENDBRANCH   7  11
BRANCH   1  16
ATOM     16  N   UNL     1       0.456  11.037  19.333  0.00  0.00    +0.000 NA
BRANCH  16  17
ATOM     17  C   UNL     1      -0.835  11.364  18.683  0.00  0.00    +0.000 C 
BRANCH  17  19
ATOM     18  C   UNL     1      -2.069  10.037  16.878  0.00  0.00    +0.000 C 
ATOM     19  C   UNL     1      -1.806  10.215  18.365  0.00  0.00    +0.000 C 
ENDBRANCH  17  19
ENDBRANCH  16  17
BRANCH  16  20
ATOM     20  C   UNL     1       0.612  11.675  20.655  0.00  0.00    +0.000 C 
BRANCH  20  21
ATOM     21  C   UNL     1      -0.686  12.117  21.348  0.00  0.00    +0.000 C 
ATOM     22  C   UNL     1      -0.914  11.372  22.657  0.00  0.00    +0.000 C 
ENDBRANCH  20  21
ENDBRANCH  16  20
ENDBRANCH   1  16
TORSDOF 6
ENDMDL
