MODEL 1
REMARK VINA RESULT:      -8.6      0.000      0.000
REMARK  Name = 
REMARK  6 active torsions:
REMARK  status: ('A' for Active; 'I' for Inactive)
REMARK    1  A    between atoms: C_2  and  C_3
REMARK    2  A    between atoms: C_3  and  S_4
REMARK    3  A    between atoms: S_4  and  C_5
REMARK    4  A    between atoms: C_10  and  C_12
REMARK    5  A    between atoms: N_22  and  C_23
REMARK    6  A    between atoms: C_23  and  C_24
REMARK                            x       y       z     vdW  Elec       q    Type
REMARK                         _______ _______ _______ _____ _____    ______ ____
ROOT
ATOM      1  C   UNL     1       6.336   5.021  17.689  0.00  0.00    +0.000 A 
ATOM      2  N   UNL     1       6.909   4.626  18.807  0.00  0.00    +0.000 NA
ATOM      3  N   UNL     1       7.777   5.589  19.304  0.00  0.00    +0.000 NA
ATOM      4  C   UNL     1       7.787   6.677  18.561  0.00  0.00    +0.000 A 
ATOM      5  N   UNL     1       8.519   7.805  18.874  0.00  0.00    +0.000 N 
ATOM      6  C   UNL     1       8.321   9.044  18.303  0.00  0.00    +0.000 C 
ATOM      7  O   UNL     1       7.464   9.327  17.476  0.00  0.00    +0.000 OA
ATOM      8  S   UNL     1       6.858   6.546  17.133  0.00  0.00    +0.000 S 
ATOM      9  H   UNL     1       9.087   7.709  19.705  0.00  0.00    +0.000 HD
ENDROOT
BRANCH   6  10
ATOM     10  C   UNL     1       9.200  10.159  18.769  0.00  0.00    +0.000 A 
ATOM     11  C   UNL     1       9.413  10.449  20.133  0.00  0.00    +0.000 A 
ATOM     12  C   UNL     1      10.343  11.432  20.510  0.00  0.00    +0.000 A 
ATOM     13  C   UNL     1      11.028  12.096  19.514  0.00  0.00    +0.000 A 
ATOM     14  C   UNL     1      10.811  11.826  18.186  0.00  0.00    +0.000 A 
ATOM     15  C   UNL     1       9.907  10.869  17.781  0.00  0.00    +0.000 A 
ATOM     16  O   UNL     1      11.592  12.578  17.365  0.00  0.00    +0.000 OA
ATOM     17  C   UNL     1      12.333  13.353  18.330  0.00  0.00    +0.000 C 
ATOM     18  O   UNL     1      11.984  13.047  19.698  0.00  0.00    +0.000 OA
ENDBRANCH   6  10
BRANCH   1  19
ATOM     19  S   UNL     1       5.114   4.089  16.862  0.00  0.00    +0.000 S 
BRANCH  19  20
ATOM     20  C   UNL     1       4.412   3.123  18.223  0.00  0.00    +0.000 C 
BRANCH  20  22
ATOM     21  O   UNL     1       2.057   3.347  18.709  0.00  0.00    +0.000 OA
ATOM     22  C   UNL     1       3.192   3.801  18.824  0.00  0.00    +0.000 C 
ATOM     23  N   UNL     1       3.477   4.953  19.520  0.00  0.00    +0.000 N 
ATOM     24  H   UNL     1       4.356   5.426  19.323  0.00  0.00    +0.000 HD
BRANCH  23  25
ATOM     25  C   UNL     1       2.435   5.774  20.092  0.00  0.00    +0.000 C 
BRANCH  25  26
ATOM     26  C   UNL     1       2.347   7.007  19.275  0.00  0.00    +0.000 A 
ATOM     27  C   UNL     1       2.737   7.313  17.987  0.00  0.00    +0.000 A 
ATOM     28  C   UNL     1       2.323   8.646  17.752  0.00  0.00    +0.000 A 
ATOM     29  C   UNL     1       1.711   9.068  18.909  0.00  0.00    +0.000 A 
ATOM     30  O   UNL     1       1.721   8.080  19.840  0.00  0.00    +0.000 OA
ENDBRANCH  25  26
ENDBRANCH  23  25
ENDBRANCH  20  22
ENDBRANCH  19  20
ENDBRANCH   1  19
TORSDOF 6
ENDMDL
MODEL 2
REMARK VINA RESULT:      -8.2      2.311      2.789
REMARK  Name = 
REMARK  6 active torsions:
REMARK  status: ('A' for Active; 'I' for Inactive)
REMARK    1  A    between atoms: C_2  and  C_3
REMARK    2  A    between atoms: C_3  and  S_4
REMARK    3  A    between atoms: S_4  and  C_5
REMARK    4  A    between atoms: C_10  and  C_12
REMARK    5  A    between atoms: N_22  and  C_23
REMARK    6  A    between atoms: C_23  and  C_24
REMARK                            x       y       z     vdW  Elec       q    Type
REMARK                         _______ _______ _______ _____ _____    ______ ____
ROOT
ATOM      1  C   UNL     1       6.990   4.960  17.331  0.00  0.00    +0.000 A 
ATOM      2  N   UNL     1       7.359   4.636  18.553  0.00  0.00    +0.000 NA
ATOM      3  N   UNL     1       7.993   5.693  19.192  0.00  0.00    +0.000 NA
ATOM      4  C   UNL     1       8.038   6.772  18.439  0.00  0.00    +0.000 A 
ATOM      5  N   UNL     1       8.561   7.977  18.866  0.00  0.00    +0.000 N 
ATOM      6  C   UNL     1       8.351   9.184  18.233  0.00  0.00    +0.000 C 
ATOM      7  O   UNL     1       7.658   9.365  17.240  0.00  0.00    +0.000 OA
ATOM      8  S   UNL     1       7.446   6.532  16.854  0.00  0.00    +0.000 S 
ATOM      9  H   UNL     1       8.951   7.948  19.797  0.00  0.00    +0.000 HD
ENDROOT
BRANCH   6  10
ATOM     10  C   UNL     1       8.986  10.392  18.839  0.00  0.00    +0.000 A 
ATOM     11  C   UNL     1       9.459  10.425  20.168  0.00  0.00    +0.000 A 
ATOM     12  C   UNL     1      10.154  11.549  20.644  0.00  0.00    +0.000 A 
ATOM     13  C   UNL     1      10.353  12.606  19.780  0.00  0.00    +0.000 A 
ATOM     14  C   UNL     1       9.881  12.582  18.491  0.00  0.00    +0.000 A 
ATOM     15  C   UNL     1       9.195  11.496  17.992  0.00  0.00    +0.000 A 
ATOM     16  O   UNL     1      10.189  13.711  17.800  0.00  0.00    +0.000 OA
ATOM     17  C   UNL     1      10.918  14.452  18.801  0.00  0.00    +0.000 C 
ATOM     18  O   UNL     1      11.031  13.751  20.059  0.00  0.00    +0.000 OA
ENDBRANCH   6  10
BRANCH   1  19
ATOM     19  S   UNL     1       6.076   3.893  16.296  0.00  0.00    +0.000 S 
BRANCH  19  20
ATOM     20  C   UNL     1       4.409   4.584  16.444  0.00  0.00    +0.000 C 
BRANCH  20  22
ATOM     21  O   UNL     1       2.240   3.616  16.879  0.00  0.00    +0.000 OA
ATOM     22  C   UNL     1       3.449   3.602  17.093  0.00  0.00    +0.000 C 
ATOM     23  N   UNL     1       4.057   2.687  17.923  0.00  0.00    +0.000 N 
ATOM     24  H   UNL     1       4.980   2.913  18.288  0.00  0.00    +0.000 HD
BRANCH  23  25
ATOM     25  C   UNL     1       3.294   1.728  18.686  0.00  0.00    +0.000 C 
BRANCH  25  26
ATOM     26  C   UNL     1       2.752   2.438  19.869  0.00  0.00    +0.000 A 
ATOM     27  C   UNL     1       3.180   3.536  20.587  0.00  0.00    +0.000 A 
ATOM     28  C   UNL     1       2.197   3.773  21.577  0.00  0.00    +0.000 A 
ATOM     29  C   UNL     1       1.236   2.805  21.402  0.00  0.00    +0.000 A 
ATOM     30  O   UNL     1       1.563   1.989  20.368  0.00  0.00    +0.000 OA
ENDBRANCH  25  26
ENDBRANCH  23  25
ENDBRANCH  20  22
ENDBRANCH  19  20
ENDBRANCH   1  19
TORSDOF 6
ENDMDL
MODEL 3
REMARK VINA RESULT:      -8.2      0.973      1.070
REMARK  Name = 
REMARK  6 active torsions:
REMARK  status: ('A' for Active; 'I' for Inactive)
REMARK    1  A    between atoms: C_2  and  C_3
REMARK    2  A    between atoms: C_3  and  S_4
REMARK    3  A    between atoms: S_4  and  C_5
REMARK    4  A    between atoms: C_10  and  C_12
REMARK    5  A    between atoms: N_22  and  C_23
REMARK    6  A    between atoms: C_23  and  C_24
REMARK                            x       y       z     vdW  Elec       q    Type
REMARK                         _______ _______ _______ _____ _____    ______ ____
ROOT
ATOM      1  C   UNL     1       6.778   4.815  17.458  0.00  0.00    +0.000 A 
ATOM      2  N   UNL     1       7.159   4.514  18.682  0.00  0.00    +0.000 NA
ATOM      3  N   UNL     1       7.848   5.564  19.274  0.00  0.00    +0.000 NA
ATOM      4  C   UNL     1       7.919   6.617  18.486  0.00  0.00    +0.000 A 
ATOM      5  N   UNL     1       8.499   7.812  18.864  0.00  0.00    +0.000 N 
ATOM      6  C   UNL     1       8.323   9.006  18.197  0.00  0.00    +0.000 C 
ATOM      7  O   UNL     1       7.617   9.184  17.212  0.00  0.00    +0.000 OA
ATOM      8  S   UNL     1       7.285   6.351  16.922  0.00  0.00    +0.000 S 
ATOM      9  H   UNL     1       8.907   7.797  19.788  0.00  0.00    +0.000 HD
ENDROOT
BRANCH   6  10
ATOM     10  C   UNL     1       9.019  10.206  18.752  0.00  0.00    +0.000 A 
ATOM     11  C   UNL     1       9.394  10.317  20.107  0.00  0.00    +0.000 A 
ATOM     12  C   UNL     1      10.151  11.417  20.544  0.00  0.00    +0.000 A 
ATOM     13  C   UNL     1      10.507  12.373  19.615  0.00  0.00    +0.000 A 
ATOM     14  C   UNL     1      10.130  12.274  18.299  0.00  0.00    +0.000 A 
ATOM     15  C   UNL     1       9.387  11.209  17.837  0.00  0.00    +0.000 A 
ATOM     16  O   UNL     1      10.589  13.309  17.545  0.00  0.00    +0.000 OA
ATOM     17  C   UNL     1      11.306  14.072  18.537  0.00  0.00    +0.000 C 
ATOM     18  O   UNL     1      11.263  13.478  19.854  0.00  0.00    +0.000 OA
ENDBRANCH   6  10
BRANCH   1  19
ATOM     19  S   UNL     1       5.801   3.753  16.475  0.00  0.00    +0.000 S 
BRANCH  19  20
ATOM     20  C   UNL     1       4.231   4.654  16.419  0.00  0.00    +0.000 C 
BRANCH  20  22
ATOM     21  O   UNL     1       3.563   4.044  18.659  0.00  0.00    +0.000 OA
ATOM     22  C   UNL     1       3.688   4.925  17.813  0.00  0.00    +0.000 C 
ATOM     23  N   UNL     1       3.372   6.244  18.045  0.00  0.00    +0.000 N 
ATOM     24  H   UNL     1       3.209   6.846  17.240  0.00  0.00    +0.000 HD
BRANCH  23  25
ATOM     25  C   UNL     1       2.769   6.675  19.285  0.00  0.00    +0.000 C 
BRANCH  25  26
ATOM     26  C   UNL     1       2.098   7.969  19.022  0.00  0.00    +0.000 A 
ATOM     27  C   UNL     1       1.987   8.762  17.898  0.00  0.00    +0.000 A 
ATOM     28  C   UNL     1       1.162   9.853  18.260  0.00  0.00    +0.000 A 
ATOM     29  C   UNL     1       0.825   9.659  19.579  0.00  0.00    +0.000 A 
ATOM     30  O   UNL     1       1.389   8.518  20.051  0.00  0.00    +0.000 OA
ENDBRANCH  25  26
ENDBRANCH  23  25
ENDBRANCH  20  22
ENDBRANCH  19  20
ENDBRANCH   1  19
TORSDOF 6
ENDMDL
MODEL 4
REMARK VINA RESULT:      -8.0      1.569      2.694
REMARK  Name = 
REMARK  6 active torsions:
REMARK  status: ('A' for Active; 'I' for Inactive)
REMARK    1  A    between atoms: C_2  and  C_3
REMARK    2  A    between atoms: C_3  and  S_4
REMARK    3  A    between atoms: S_4  and  C_5
REMARK    4  A    between atoms: C_10  and  C_12
REMARK    5  A    between atoms: N_22  and  C_23
REMARK    6  A    between atoms: C_23  and  C_24
REMARK                            x       y       z     vdW  Elec       q    Type
REMARK                         _______ _______ _______ _____ _____    ______ ____
ROOT
ATOM      1  C   UNL     1       6.967   5.312  17.750  0.00  0.00    +0.000 A 
ATOM      2  N   UNL     1       7.433   4.998  18.941  0.00  0.00    +0.000 NA
ATOM      3  N   UNL     1       8.161   6.041  19.495  0.00  0.00    +0.000 NA
ATOM      4  C   UNL     1       8.176   7.103  18.716  0.00  0.00    +0.000 A 
ATOM      5  N   UNL     1       8.780   8.295  19.067  0.00  0.00    +0.000 N 
ATOM      6  C   UNL     1       8.558   9.496  18.428  0.00  0.00    +0.000 C 
ATOM      7  O   UNL     1       7.785   9.685  17.497  0.00  0.00    +0.000 OA
ATOM      8  S   UNL     1       7.435   6.855  17.197  0.00  0.00    +0.000 S 
ATOM      9  H   UNL     1       9.251   8.270  19.960  0.00  0.00    +0.000 HD
ENDROOT
BRANCH   6  10
ATOM     10  C   UNL     1       9.290  10.691  18.947  0.00  0.00    +0.000 A 
ATOM     11  C   UNL     1       9.903  10.723  20.216  0.00  0.00    +0.000 A 
ATOM     12  C   UNL     1      10.677  11.830  20.601  0.00  0.00    +0.000 A 
ATOM     13  C   UNL     1      10.814  12.871  19.706  0.00  0.00    +0.000 A 
ATOM     14  C   UNL     1      10.205  12.849  18.476  0.00  0.00    +0.000 A 
ATOM     15  C   UNL     1       9.438  11.779  18.067  0.00  0.00    +0.000 A 
ATOM     16  O   UNL     1      10.471  13.961  17.740  0.00  0.00    +0.000 OA
ATOM     17  C   UNL     1      11.324  14.689  18.648  0.00  0.00    +0.000 C 
ATOM     18  O   UNL     1      11.551  13.998  19.896  0.00  0.00    +0.000 OA
ENDBRANCH   6  10
BRANCH   1  19
ATOM     19  S   UNL     1       5.925   4.260  16.825  0.00  0.00    +0.000 S 
BRANCH  19  20
ATOM     20  C   UNL     1       4.644   5.415  16.272  0.00  0.00    +0.000 C 
BRANCH  20  22
ATOM     21  O   UNL     1       3.911   7.270  17.634  0.00  0.00    +0.000 OA
ATOM     22  C   UNL     1       3.921   6.057  17.445  0.00  0.00    +0.000 C 
ATOM     23  N   UNL     1       3.267   5.161  18.259  0.00  0.00    +0.000 N 
ATOM     24  H   UNL     1       3.559   4.187  18.231  0.00  0.00    +0.000 HD
BRANCH  23  25
ATOM     25  C   UNL     1       2.593   5.582  19.466  0.00  0.00    +0.000 C 
BRANCH  25  26
ATOM     26  C   UNL     1       2.103   4.360  20.146  0.00  0.00    +0.000 A 
ATOM     27  C   UNL     1       2.152   3.926  21.455  0.00  0.00    +0.000 A 
ATOM     28  C   UNL     1       1.450   2.698  21.494  0.00  0.00    +0.000 A 
ATOM     29  C   UNL     1       1.023   2.459  20.209  0.00  0.00    +0.000 A 
ATOM     30  O   UNL     1       1.414   3.462  19.382  0.00  0.00    +0.000 OA
ENDBRANCH  25  26
ENDBRANCH  23  25
ENDBRANCH  20  22
ENDBRANCH  19  20
ENDBRANCH   1  19
TORSDOF 6
ENDMDL
MODEL 5
REMARK VINA RESULT:      -7.9      0.802      1.445
REMARK  Name = 
REMARK  6 active torsions:
REMARK  status: ('A' for Active; 'I' for Inactive)
REMARK    1  A    between atoms: C_2  and  C_3
REMARK    2  A    between atoms: C_3  and  S_4
REMARK    3  A    between atoms: S_4  and  C_5
REMARK    4  A    between atoms: C_10  and  C_12
REMARK    5  A    between atoms: N_22  and  C_23
REMARK    6  A    between atoms: C_23  and  C_24
REMARK                            x       y       z     vdW  Elec       q    Type
REMARK                         _______ _______ _______ _____ _____    ______ ____
ROOT
ATOM      1  C   UNL     1       6.437   5.043  17.844  0.00  0.00    +0.000 A 
ATOM      2  N   UNL     1       7.087   4.683  18.931  0.00  0.00    +0.000 NA
ATOM      3  N   UNL     1       7.955   5.678  19.359  0.00  0.00    +0.000 NA
ATOM      4  C   UNL     1       7.889   6.753  18.600  0.00  0.00    +0.000 A 
ATOM      5  N   UNL     1       8.607   7.906  18.851  0.00  0.00    +0.000 N 
ATOM      6  C   UNL     1       8.340   9.129  18.274  0.00  0.00    +0.000 C 
ATOM      7  O   UNL     1       7.426   9.374  17.496  0.00  0.00    +0.000 OA
ATOM      8  S   UNL     1       6.881   6.571  17.234  0.00  0.00    +0.000 S 
ATOM      9  H   UNL     1       9.226   7.840  19.647  0.00  0.00    +0.000 HD
ENDROOT
BRANCH   6  10
ATOM     10  C   UNL     1       9.213  10.276  18.668  0.00  0.00    +0.000 A 
ATOM     11  C   UNL     1      10.132  10.879  17.784  0.00  0.00    +0.000 A 
ATOM     12  C   UNL     1      10.839  12.028  18.174  0.00  0.00    +0.000 A 
ATOM     13  C   UNL     1      10.607  12.539  19.435  0.00  0.00    +0.000 A 
ATOM     14  C   UNL     1       9.724  11.945  20.302  0.00  0.00    +0.000 A 
ATOM     15  C   UNL     1       9.015  10.816  19.952  0.00  0.00    +0.000 A 
ATOM     16  O   UNL     1       9.630  12.605  21.487  0.00  0.00    +0.000 OA
ATOM     17  C   UNL     1      10.554  13.691  21.267  0.00  0.00    +0.000 C 
ATOM     18  O   UNL     1      11.173  13.657  19.962  0.00  0.00    +0.000 OA
ENDBRANCH   6  10
BRANCH   1  19
ATOM     19  S   UNL     1       5.194   4.064  17.107  0.00  0.00    +0.000 S 
BRANCH  19  20
ATOM     20  C   UNL     1       4.442   3.281  18.556  0.00  0.00    +0.000 C 
BRANCH  20  22
ATOM     21  O   UNL     1       2.049   3.598  18.607  0.00  0.00    +0.000 OA
ATOM     22  C   UNL     1       3.158   3.980  18.970  0.00  0.00    +0.000 C 
ATOM     23  N   UNL     1       3.349   5.060  19.800  0.00  0.00    +0.000 N 
ATOM     24  H   UNL     1       4.268   5.497  19.813  0.00  0.00    +0.000 HD
BRANCH  23  25
ATOM     25  C   UNL     1       2.250   5.892  20.231  0.00  0.00    +0.000 C 
BRANCH  25  26
ATOM     26  C   UNL     1       2.238   7.091  19.359  0.00  0.00    +0.000 A 
ATOM     27  C   UNL     1       2.691   7.329  18.078  0.00  0.00    +0.000 A 
ATOM     28  C   UNL     1       2.333   8.663  17.769  0.00  0.00    +0.000 A 
ATOM     29  C   UNL     1       1.688   9.153  18.880  0.00  0.00    +0.000 A 
ATOM     30  O   UNL     1       1.625   8.207  19.852  0.00  0.00    +0.000 OA
ENDBRANCH  25  26
ENDBRANCH  23  25
ENDBRANCH  20  22
ENDBRANCH  19  20
ENDBRANCH   1  19
TORSDOF 6
ENDMDL
MODEL 6
REMARK VINA RESULT:      -7.9      4.308      7.826
REMARK  Name = 
REMARK  6 active torsions:
REMARK  status: ('A' for Active; 'I' for Inactive)
REMARK    1  A    between atoms: C_2  and  C_3
REMARK    2  A    between atoms: C_3  and  S_4
REMARK    3  A    between atoms: S_4  and  C_5
REMARK    4  A    between atoms: C_10  and  C_12
REMARK    5  A    between atoms: N_22  and  C_23
REMARK    6  A    between atoms: C_23  and  C_24
REMARK                            x       y       z     vdW  Elec       q    Type
REMARK                         _______ _______ _______ _____ _____    ______ ____
ROOT
ATOM      1  C   UNL     1       3.044   3.085  20.269  0.00  0.00    +0.000 A 
ATOM      2  N   UNL     1       1.869   2.798  20.789  0.00  0.00    +0.000 NA
ATOM      3  N   UNL     1       1.149   3.946  21.089  0.00  0.00    +0.000 NA
ATOM      4  C   UNL     1       1.797   5.040  20.746  0.00  0.00    +0.000 A 
ATOM      5  N   UNL     1       1.271   6.310  20.881  0.00  0.00    +0.000 N 
ATOM      6  C   UNL     1       1.780   7.432  20.264  0.00  0.00    +0.000 C 
ATOM      7  O   UNL     1       2.732   7.462  19.494  0.00  0.00    +0.000 OA
ATOM      8  S   UNL     1       3.381   4.753  20.173  0.00  0.00    +0.000 S 
ATOM      9  H   UNL     1       0.357   6.332  21.312  0.00  0.00    +0.000 HD
ENDROOT
BRANCH   6  10
ATOM     10  C   UNL     1       1.078   8.727  20.514  0.00  0.00    +0.000 A 
ATOM     11  C   UNL     1       0.649   9.581  19.477  0.00  0.00    +0.000 A 
ATOM     12  C   UNL     1      -0.111  10.725  19.770  0.00  0.00    +0.000 A 
ATOM     13  C   UNL     1      -0.416  10.983  21.090  0.00  0.00    +0.000 A 
ATOM     14  C   UNL     1       0.013  10.162  22.103  0.00  0.00    +0.000 A 
ATOM     15  C   UNL     1       0.760   9.032  21.850  0.00  0.00    +0.000 A 
ATOM     16  O   UNL     1      -0.402  10.582  23.327  0.00  0.00    +0.000 OA
ATOM     17  C   UNL     1      -1.149  11.764  22.971  0.00  0.00    +0.000 C 
ATOM     18  O   UNL     1      -1.167  12.020  21.549  0.00  0.00    +0.000 OA
ENDBRANCH   6  10
BRANCH   1  19
ATOM     19  S   UNL     1       4.152   1.869  19.685  0.00  0.00    +0.000 S 
BRANCH  19  20
ATOM     20  C   UNL     1       3.588   1.654  17.978  0.00  0.00    +0.000 C 
BRANCH  20  22
ATOM     21  O   UNL     1       2.630   3.497  16.745  0.00  0.00    +0.000 OA
ATOM     22  C   UNL     1       3.635   2.960  17.202  0.00  0.00    +0.000 C 
ATOM     23  N   UNL     1       4.898   3.494  17.077  0.00  0.00    +0.000 N 
ATOM     24  H   UNL     1       5.694   2.872  17.199  0.00  0.00    +0.000 HD
BRANCH  23  25
ATOM     25  C   UNL     1       5.145   4.689  16.304  0.00  0.00    +0.000 C 
BRANCH  25  26
ATOM     26  C   UNL     1       6.119   5.509  17.062  0.00  0.00    +0.000 A 
ATOM     27  C   UNL     1       6.839   5.288  18.219  0.00  0.00    +0.000 A 
ATOM     28  C   UNL     1       7.655   6.429  18.404  0.00  0.00    +0.000 A 
ATOM     29  C   UNL     1       7.380   7.273  17.353  0.00  0.00    +0.000 A 
ATOM     30  O   UNL     1       6.449   6.723  16.532  0.00  0.00    +0.000 OA
ENDBRANCH  25  26
ENDBRANCH  23  25
ENDBRANCH  20  22
ENDBRANCH  19  20
ENDBRANCH   1  19
TORSDOF 6
ENDMDL
MODEL 7
REMARK VINA RESULT:      -7.9      5.975      9.234
REMARK  Name = 
REMARK  6 active torsions:
REMARK  status: ('A' for Active; 'I' for Inactive)
REMARK    1  A    between atoms: C_2  and  C_3
REMARK    2  A    between atoms: C_3  and  S_4
REMARK    3  A    between atoms: S_4  and  C_5
REMARK    4  A    between atoms: C_10  and  C_12
REMARK    5  A    between atoms: N_22  and  C_23
REMARK    6  A    between atoms: C_23  and  C_24
REMARK                            x       y       z     vdW  Elec       q    Type
REMARK                         _______ _______ _______ _____ _____    ______ ____
ROOT
ATOM      1  C   UNL     1       0.117  10.448  21.371  0.00  0.00    +0.000 A 
ATOM      2  N   UNL     1       0.646   9.783  22.377  0.00  0.00    +0.000 NA
ATOM      3  N   UNL     1       1.384   8.693  21.937  0.00  0.00    +0.000 NA
ATOM      4  C   UNL     1       1.409   8.611  20.623  0.00  0.00    +0.000 A 
ATOM      5  N   UNL     1       2.127   7.652  19.935  0.00  0.00    +0.000 N 
ATOM      6  C   UNL     1       2.422   7.718  18.590  0.00  0.00    +0.000 C 
ATOM      7  O   UNL     1       2.125   8.633  17.831  0.00  0.00    +0.000 OA
ATOM      8  S   UNL     1       0.419   9.762  19.840  0.00  0.00    +0.000 S 
ATOM      9  H   UNL     1       2.599   6.985  20.530  0.00  0.00    +0.000 HD
ENDROOT
BRANCH   6  10
ATOM     10  C   UNL     1       3.218   6.595  18.009  0.00  0.00    +0.000 A 
ATOM     11  C   UNL     1       2.805   5.248  18.073  0.00  0.00    +0.000 A 
ATOM     12  C   UNL     1       3.535   4.251  17.406  0.00  0.00    +0.000 A 
ATOM     13  C   UNL     1       4.656   4.630  16.697  0.00  0.00    +0.000 A 
ATOM     14  C   UNL     1       5.069   5.938  16.645  0.00  0.00    +0.000 A 
ATOM     15  C   UNL     1       4.376   6.941  17.289  0.00  0.00    +0.000 A 
ATOM     16  O   UNL     1       6.186   6.105  15.888  0.00  0.00    +0.000 OA
ATOM     17  C   UNL     1       6.430   4.749  15.461  0.00  0.00    +0.000 C 
ATOM     18  O   UNL     1       5.457   3.808  15.967  0.00  0.00    +0.000 OA
ENDBRANCH   6  10
BRANCH   1  19
ATOM     19  S   UNL     1      -0.783  11.930  21.575  0.00  0.00    +0.000 S 
BRANCH  19  20
ATOM     20  C   UNL     1      -1.599  11.643  23.165  0.00  0.00    +0.000 C 
BRANCH  20  22
ATOM     21  O   UNL     1      -3.809  11.956  24.086  0.00  0.00    +0.000 OA
ATOM     22  C   UNL     1      -3.020  12.181  23.173  0.00  0.00    +0.000 C 
ATOM     23  N   UNL     1      -3.333  12.957  22.080  0.00  0.00    +0.000 N 
ATOM     24  H   UNL     1      -2.764  12.853  21.242  0.00  0.00    +0.000 HD
BRANCH  23  25
ATOM     25  C   UNL     1      -4.661  13.487  21.879  0.00  0.00    +0.000 C 
BRANCH  25  26
ATOM     26  C   UNL     1      -5.340  12.611  20.896  0.00  0.00    +0.000 A 
ATOM     27  C   UNL     1      -5.129  12.358  19.555  0.00  0.00    +0.000 A 
ATOM     28  C   UNL     1      -6.073  11.371  19.183  0.00  0.00    +0.000 A 
ATOM     29  C   UNL     1      -6.800  11.088  20.315  0.00  0.00    +0.000 A 
ATOM     30  O   UNL     1      -6.363  11.835  21.361  0.00  0.00    +0.000 OA
ENDBRANCH  25  26
ENDBRANCH  23  25
ENDBRANCH  20  22
ENDBRANCH  19  20
ENDBRANCH   1  19
TORSDOF 6
ENDMDL
MODEL 8
REMARK VINA RESULT:      -7.9      5.310      8.577
REMARK  Name = 
REMARK  6 active torsions:
REMARK  status: ('A' for Active; 'I' for Inactive)
REMARK    1  A    between atoms: C_2  and  C_3
REMARK    2  A    between atoms: C_3  and  S_4
REMARK    3  A    between atoms: S_4  and  C_5
REMARK    4  A    between atoms: C_10  and  C_12
REMARK    5  A    between atoms: N_22  and  C_23
REMARK    6  A    between atoms: C_23  and  C_24
REMARK                            x       y       z     vdW  Elec       q    Type
REMARK                         _______ _______ _______ _____ _____    ______ ____
ROOT
ATOM      1  C   UNL     1       3.522   5.047  18.466  0.00  0.00    +0.000 A 
ATOM      2  N   UNL     1       3.158   4.368  19.534  0.00  0.00    +0.000 NA
ATOM      3  N   UNL     1       2.483   5.171  20.443  0.00  0.00    +0.000 NA
ATOM      4  C   UNL     1       2.335   6.403  20.002  0.00  0.00    +0.000 A 
ATOM      5  N   UNL     1       1.644   7.380  20.691  0.00  0.00    +0.000 N 
ATOM      6  C   UNL     1       1.213   8.566  20.135  0.00  0.00    +0.000 C 
ATOM      7  O   UNL     1       1.348   8.905  18.966  0.00  0.00    +0.000 OA
ATOM      8  S   UNL     1       3.134   6.706  18.522  0.00  0.00    +0.000 S 
ATOM      9  H   UNL     1       1.296   7.080  21.591  0.00  0.00    +0.000 HD
ENDROOT
BRANCH   6  10
ATOM     10  C   UNL     1       0.468   9.507  21.026  0.00  0.00    +0.000 A 
ATOM     11  C   UNL     1      -0.154   9.098  22.224  0.00  0.00    +0.000 A 
ATOM     12  C   UNL     1      -0.736  10.048  23.079  0.00  0.00    +0.000 A 
ATOM     13  C   UNL     1      -0.680  11.376  22.710  0.00  0.00    +0.000 A 
ATOM     14  C   UNL     1      -0.088  11.775  21.538  0.00  0.00    +0.000 A 
ATOM     15  C   UNL     1       0.492  10.869  20.676  0.00  0.00    +0.000 A 
ATOM     16  O   UNL     1      -0.127  13.122  21.364  0.00  0.00    +0.000 OA
ATOM     17  C   UNL     1      -0.809  13.532  22.567  0.00  0.00    +0.000 C 
ATOM     18  O   UNL     1      -1.158  12.427  23.430  0.00  0.00    +0.000 OA
ENDBRANCH   6  10
BRANCH   1  19
ATOM     19  S   UNL     1       4.299   4.312  17.087  0.00  0.00    +0.000 S 
BRANCH  19  20
ATOM     20  C   UNL     1       6.034   4.740  17.377  0.00  0.00    +0.000 C 
BRANCH  20  22
ATOM     21  O   UNL     1       7.549   5.976  15.959  0.00  0.00    +0.000 OA
ATOM     22  C   UNL     1       6.764   5.039  16.078  0.00  0.00    +0.000 C 
ATOM     23  N   UNL     1       6.483   4.157  15.060  0.00  0.00    +0.000 N 
ATOM     24  H   UNL     1       5.626   3.612  15.123  0.00  0.00    +0.000 HD
BRANCH  23  25
ATOM     25  C   UNL     1       7.024   4.331  13.732  0.00  0.00    +0.000 C 
BRANCH  25  26
ATOM     26  C   UNL     1       6.126   3.617  12.794  0.00  0.00    +0.000 A 
ATOM     27  C   UNL     1       4.802   3.787  12.443  0.00  0.00    +0.000 A 
ATOM     28  C   UNL     1       4.529   2.826  11.441  0.00  0.00    +0.000 A 
ATOM     29  C   UNL     1       5.699   2.130  11.247  0.00  0.00    +0.000 A 
ATOM     30  O   UNL     1       6.675   2.602  12.064  0.00  0.00    +0.000 OA
ENDBRANCH  25  26
ENDBRANCH  23  25
ENDBRANCH  20  22
ENDBRANCH  19  20
ENDBRANCH   1  19
TORSDOF 6
ENDMDL
MODEL 9
REMARK VINA RESULT:      -7.8      5.187      7.264
REMARK  Name = 
REMARK  6 active torsions:
REMARK  status: ('A' for Active; 'I' for Inactive)
REMARK    1  A    between atoms: C_2  and  C_3
REMARK    2  A    between atoms: C_3  and  S_4
REMARK    3  A    between atoms: S_4  and  C_5
REMARK    4  A    between atoms: C_10  and  C_12
REMARK    5  A    between atoms: N_22  and  C_23
REMARK    6  A    between atoms: C_23  and  C_24
REMARK                            x       y       z     vdW  Elec       q    Type
REMARK                         _______ _______ _______ _____ _____    ______ ____
ROOT
ATOM      1  C   UNL     1       2.424   5.492  19.435  0.00  0.00    +0.000 A 
ATOM      2  N   UNL     1       1.838   5.674  20.600  0.00  0.00    +0.000 NA
ATOM      3  N   UNL     1       1.498   7.005  20.798  0.00  0.00    +0.000 NA
ATOM      4  C   UNL     1       1.806   7.755  19.760  0.00  0.00    +0.000 A 
ATOM      5  N   UNL     1       1.514   9.102  19.681  0.00  0.00    +0.000 N 
ATOM      6  C   UNL     1       1.541   9.837  18.514  0.00  0.00    +0.000 C 
ATOM      7  O   UNL     1       1.791   9.404  17.396  0.00  0.00    +0.000 OA
ATOM      8  S   UNL     1       2.662   6.922  18.538  0.00  0.00    +0.000 S 
ATOM      9  H   UNL     1       1.080   9.478  20.512  0.00  0.00    +0.000 HD
ENDROOT
BRANCH   6  10
ATOM     10  C   UNL     1       1.186  11.285  18.611  0.00  0.00    +0.000 A 
ATOM     11  C   UNL     1      -0.089  11.737  19.010  0.00  0.00    +0.000 A 
ATOM     12  C   UNL     1      -0.326  13.109  19.197  0.00  0.00    +0.000 A 
ATOM     13  C   UNL     1       0.715  13.986  18.977  0.00  0.00    +0.000 A 
ATOM     14  C   UNL     1       1.952  13.549  18.573  0.00  0.00    +0.000 A 
ATOM     15  C   UNL     1       2.219  12.211  18.380  0.00  0.00    +0.000 A 
ATOM     16  O   UNL     1       2.842  14.566  18.422  0.00  0.00    +0.000 OA
ATOM     17  C   UNL     1       2.025  15.699  18.783  0.00  0.00    +0.000 C 
ATOM     18  O   UNL     1       0.673  15.335  19.143  0.00  0.00    +0.000 OA
ENDBRANCH   6  10
BRANCH   1  19
ATOM     19  S   UNL     1       2.884   3.920  18.834  0.00  0.00    +0.000 S 
BRANCH  19  20
ATOM     20  C   UNL     1       4.466   3.658  19.675  0.00  0.00    +0.000 C 
BRANCH  20  22
ATOM     21  O   UNL     1       5.794   5.663  19.450  0.00  0.00    +0.000 OA
ATOM     22  C   UNL     1       5.569   4.515  19.077  0.00  0.00    +0.000 C 
ATOM     23  N   UNL     1       6.302   3.883  18.099  0.00  0.00    +0.000 N 
ATOM     24  H   UNL     1       5.887   3.078  17.634  0.00  0.00    +0.000 HD
BRANCH  23  25
ATOM     25  C   UNL     1       7.339   4.568  17.363  0.00  0.00    +0.000 C 
BRANCH  25  26
ATOM     26  C   UNL     1       6.989   4.485  15.926  0.00  0.00    +0.000 A 
ATOM     27  C   UNL     1       6.002   3.813  15.234  0.00  0.00    +0.000 A 
ATOM     28  C   UNL     1       6.144   4.184  13.876  0.00  0.00    +0.000 A 
ATOM     29  C   UNL     1       7.207   5.054  13.825  0.00  0.00    +0.000 A 
ATOM     30  O   UNL     1       7.727   5.244  15.065  0.00  0.00    +0.000 OA
ENDBRANCH  25  26
ENDBRANCH  23  25
ENDBRANCH  20  22
ENDBRANCH  19  20
ENDBRANCH   1  19
TORSDOF 6
ENDMDL
