MODEL 1
REMARK VINA RESULT:      -7.6      0.000      0.000
REMARK  Name = 
REMARK  8 active torsions:
REMARK  status: ('A' for Active; 'I' for Inactive)
REMARK    1  A    between atoms: C_1  and  C_2
REMARK    2  A    between atoms: C_2  and  C_3
REMARK    3  A    between atoms: C_3  and  N_4
REMARK    4  A    between atoms: C_3  and  C_25
REMARK    5  A    between atoms: C_5  and  C_7
REMARK    6  A    between atoms: C_8  and  S_9
REMARK    7  A    between atoms: S_9  and  C_10
REMARK    8  A    between atoms: C_12  and  C_13
REMARK                            x       y       z     vdW  Elec       q    Type
REMARK                         _______ _______ _______ _____ _____    ______ ____
ROOT
ATOM      1  C   UNL     1      -2.437  11.901  19.700  0.00  0.00    +0.000 A 
ATOM      2  C   UNL     1      -3.409  12.382  20.614  0.00  0.00    +0.000 A 
ATOM      3  C   UNL     1      -4.718  12.499  20.124  0.00  0.00    +0.000 A 
ATOM      4  N   UNL     1      -5.079  12.113  18.869  0.00  0.00    +0.000 NA
ATOM      5  C   UNL     1      -4.165  11.627  18.028  0.00  0.00    +0.000 A 
ATOM      6  C   UNL     1      -4.606  11.195  16.789  0.00  0.00    +0.000 A 
ATOM      7  C   UNL     1      -3.740  10.659  15.835  0.00  0.00    +0.000 A 
ATOM      8  C   UNL     1      -2.387  10.606  16.107  0.00  0.00    +0.000 A 
ATOM      9  C   UNL     1      -1.923  11.075  17.335  0.00  0.00    +0.000 A 
ATOM     10  C   UNL     1      -2.804  11.532  18.359  0.00  0.00    +0.000 A 
ENDROOT
BRANCH   3  11
ATOM     11  C   UNL     1      -5.859  13.031  20.893  0.00  0.00    +0.000 A 
ATOM     12  C   UNL     1      -6.167  14.383  20.921  0.00  0.00    +0.000 A 
ATOM     13  S   UNL     1      -7.526  14.670  21.924  0.00  0.00    +0.000 S 
ATOM     14  C   UNL     1      -7.621  12.988  22.233  0.00  0.00    +0.000 A 
ATOM     15  N   UNL     1      -6.736  12.233  21.620  0.00  0.00    +0.000 NA
ENDBRANCH   3  11
BRANCH   1  17
ATOM     16  N   UNL     1      -0.666  10.522  20.667  0.00  0.00    +0.000 N 
ATOM     17  C   UNL     1      -1.001  11.738  20.099  0.00  0.00    +0.000 C 
ATOM     18  O   UNL     1      -0.189  12.629  19.925  0.00  0.00    +0.000 OA
ATOM     19  H   UNL     1      -1.391   9.835  20.820  0.00  0.00    +0.000 HD
BRANCH  16  20
ATOM     20  C   UNL     1       0.706  10.127  21.001  0.00  0.00    +0.000 C 
BRANCH  20  21
ATOM     21  C   UNL     1       1.330   9.225  19.934  0.00  0.00    +0.000 A 
ATOM     22  C   UNL     1       1.807   7.955  20.305  0.00  0.00    +0.000 A 
ATOM     23  C   UNL     1       2.323   7.064  19.360  0.00  0.00    +0.000 A 
ATOM     24  C   UNL     1       2.372   7.423  18.019  0.00  0.00    +0.000 A 
ATOM     25  C   UNL     1       1.932   8.686  17.629  0.00  0.00    +0.000 A 
ATOM     26  C   UNL     1       1.433   9.584  18.580  0.00  0.00    +0.000 A 
ENDBRANCH  20  21
BRANCH  20  28
ATOM     27  C   UNL     1      -0.545   9.859  23.238  0.00  0.00    +0.000 C 
ATOM     28  C   UNL     1       0.682   9.505  22.417  0.00  0.00    +0.000 C 
ENDBRANCH  20  28
ENDBRANCH  16  20
ENDBRANCH   1  17
BRANCH   2  29
ATOM     29  S   UNL     1      -3.116  12.788  22.354  0.00  0.00    +0.000 S 
ATOM     30  C   UNL     1      -3.040  14.582  22.260  0.00  0.00    +0.000 C 
ATOM     31  O   UNL     1      -4.332  12.330  23.221  0.00  0.00    +0.000 OA
ENDBRANCH   2  29
TORSDOF 6
ENDMDL
MODEL 2
REMARK VINA RESULT:      -7.5      1.193      1.318
REMARK  Name = 
REMARK  8 active torsions:
REMARK  status: ('A' for Active; 'I' for Inactive)
REMARK    1  A    between atoms: C_1  and  C_2
REMARK    2  A    between atoms: C_2  and  C_3
REMARK    3  A    between atoms: C_3  and  N_4
REMARK    4  A    between atoms: C_3  and  C_25
REMARK    5  A    between atoms: C_5  and  C_7
REMARK    6  A    between atoms: C_8  and  S_9
REMARK    7  A    between atoms: S_9  and  C_10
REMARK    8  A    between atoms: C_12  and  C_13
REMARK                            x       y       z     vdW  Elec       q    Type
REMARK                         _______ _______ _______ _____ _____    ______ ____
ROOT
ATOM      1  C   UNL     1      -1.997  11.937  19.761  0.00  0.00    +0.000 A 
ATOM      2  C   UNL     1      -2.820  12.716  20.613  0.00  0.00    +0.000 A 
ATOM      3  C   UNL     1      -4.131  12.944  20.171  0.00  0.00    +0.000 A 
ATOM      4  N   UNL     1      -4.635  12.402  19.027  0.00  0.00    +0.000 NA
ATOM      5  C   UNL     1      -3.864  11.640  18.251  0.00  0.00    +0.000 A 
ATOM      6  C   UNL     1      -4.452  11.067  17.136  0.00  0.00    +0.000 A 
ATOM      7  C   UNL     1      -3.744  10.244  16.259  0.00  0.00    +0.000 A 
ATOM      8  C   UNL     1      -2.396  10.033  16.474  0.00  0.00    +0.000 A 
ATOM      9  C   UNL     1      -1.781  10.635  17.571  0.00  0.00    +0.000 A 
ATOM     10  C   UNL     1      -2.510  11.397  18.531  0.00  0.00    +0.000 A 
ENDROOT
BRANCH   3  11
ATOM     11  C   UNL     1      -5.126  13.773  20.879  0.00  0.00    +0.000 A 
ATOM     12  C   UNL     1      -6.118  13.221  21.674  0.00  0.00    +0.000 A 
ATOM     13  S   UNL     1      -7.119  14.449  22.326  0.00  0.00    +0.000 S 
ATOM     14  C   UNL     1      -6.159  15.620  21.528  0.00  0.00    +0.000 A 
ATOM     15  N   UNL     1      -5.136  15.163  20.841  0.00  0.00    +0.000 NA
ENDBRANCH   3  11
BRANCH   1  17
ATOM     16  N   UNL     1      -0.365  10.447  20.807  0.00  0.00    +0.000 N 
ATOM     17  C   UNL     1      -0.574  11.628  20.117  0.00  0.00    +0.000 C 
ATOM     18  O   UNL     1       0.335  12.379  19.809  0.00  0.00    +0.000 OA
ATOM     19  H   UNL     1      -1.162   9.884  21.067  0.00  0.00    +0.000 HD
BRANCH  16  20
ATOM     20  C   UNL     1       0.961   9.912  21.128  0.00  0.00    +0.000 C 
BRANCH  20  21
ATOM     21  C   UNL     1       1.492   8.975  20.040  0.00  0.00    +0.000 A 
ATOM     22  C   UNL     1       1.904   7.678  20.394  0.00  0.00    +0.000 A 
ATOM     23  C   UNL     1       2.332   6.759  19.433  0.00  0.00    +0.000 A 
ATOM     24  C   UNL     1       2.354   7.117  18.090  0.00  0.00    +0.000 A 
ATOM     25  C   UNL     1       1.977   8.404  17.715  0.00  0.00    +0.000 A 
ATOM     26  C   UNL     1       1.567   9.329  18.682  0.00  0.00    +0.000 A 
ENDBRANCH  20  21
BRANCH  20  28
ATOM     27  C   UNL     1      -0.357   9.648  23.327  0.00  0.00    +0.000 C 
ATOM     28  C   UNL     1       0.878   9.265  22.530  0.00  0.00    +0.000 C 
ENDBRANCH  20  28
ENDBRANCH  16  20
ENDBRANCH   1  17
BRANCH   2  29
ATOM     29  S   UNL     1      -2.345  13.374  22.231  0.00  0.00    +0.000 S 
ATOM     30  C   UNL     1      -2.997  12.090  23.307  0.00  0.00    +0.000 C 
ATOM     31  O   UNL     1      -0.788  13.450  22.341  0.00  0.00    +0.000 OA
ENDBRANCH   2  29
TORSDOF 6
ENDMDL
MODEL 3
REMARK VINA RESULT:      -7.5      1.016      1.358
REMARK  Name = 
REMARK  8 active torsions:
REMARK  status: ('A' for Active; 'I' for Inactive)
REMARK    1  A    between atoms: C_1  and  C_2
REMARK    2  A    between atoms: C_2  and  C_3
REMARK    3  A    between atoms: C_3  and  N_4
REMARK    4  A    between atoms: C_3  and  C_25
REMARK    5  A    between atoms: C_5  and  C_7
REMARK    6  A    between atoms: C_8  and  S_9
REMARK    7  A    between atoms: S_9  and  C_10
REMARK    8  A    between atoms: C_12  and  C_13
REMARK                            x       y       z     vdW  Elec       q    Type
REMARK                         _______ _______ _______ _____ _____    ______ ____
ROOT
ATOM      1  C   UNL     1      -2.179  12.010  19.687  0.00  0.00    +0.000 A 
ATOM      2  C   UNL     1      -3.058  12.771  20.499  0.00  0.00    +0.000 A 
ATOM      3  C   UNL     1      -4.364  12.935  20.015  0.00  0.00    +0.000 A 
ATOM      4  N   UNL     1      -4.811  12.350  18.870  0.00  0.00    +0.000 NA
ATOM      5  C   UNL     1      -3.987  11.606  18.131  0.00  0.00    +0.000 A 
ATOM      6  C   UNL     1      -4.519  10.988  17.012  0.00  0.00    +0.000 A 
ATOM      7  C   UNL     1      -3.753  10.178  16.172  0.00  0.00    +0.000 A 
ATOM      8  C   UNL     1      -2.403  10.028  16.429  0.00  0.00    +0.000 A 
ATOM      9  C   UNL     1      -1.846  10.677  17.530  0.00  0.00    +0.000 A 
ATOM     10  C   UNL     1      -2.634  11.426  18.454  0.00  0.00    +0.000 A 
ENDROOT
BRANCH   3  11
ATOM     11  C   UNL     1      -5.412  13.735  20.678  0.00  0.00    +0.000 A 
ATOM     12  C   UNL     1      -5.614  15.076  20.388  0.00  0.00    +0.000 A 
ATOM     13  S   UNL     1      -6.882  15.715  21.346  0.00  0.00    +0.000 S 
ATOM     14  C   UNL     1      -7.086  14.172  22.060  0.00  0.00    +0.000 A 
ATOM     15  N   UNL     1      -6.300  13.216  21.614  0.00  0.00    +0.000 NA
ENDBRANCH   3  11
BRANCH   1  17
ATOM     16  N   UNL     1      -0.495  10.550  20.690  0.00  0.00    +0.000 N 
ATOM     17  C   UNL     1      -0.755  11.768  20.088  0.00  0.00    +0.000 C 
ATOM     18  O   UNL     1       0.111  12.602  19.889  0.00  0.00    +0.000 OA
ATOM     19  H   UNL     1      -1.261   9.915  20.862  0.00  0.00    +0.000 HD
BRANCH  16  20
ATOM     20  C   UNL     1       0.851  10.079  21.034  0.00  0.00    +0.000 C 
BRANCH  20  21
ATOM     21  C   UNL     1       1.381   9.048  20.036  0.00  0.00    +0.000 A 
ATOM     22  C   UNL     1       1.489   9.400  18.678  0.00  0.00    +0.000 A 
ATOM     23  C   UNL     1       2.031   8.522  17.736  0.00  0.00    +0.000 A 
ATOM     24  C   UNL     1       2.481   7.268  18.132  0.00  0.00    +0.000 A 
ATOM     25  C   UNL     1       2.360   6.884  19.465  0.00  0.00    +0.000 A 
ATOM     26  C   UNL     1       1.800   7.758  20.404  0.00  0.00    +0.000 A 
ENDBRANCH  20  21
BRANCH  20  28
ATOM     27  C   UNL     1      -0.548   9.080  22.954  0.00  0.00    +0.000 C 
ATOM     28  C   UNL     1       0.812   9.579  22.497  0.00  0.00    +0.000 C 
ENDBRANCH  20  28
ENDBRANCH  16  20
ENDBRANCH   1  17
BRANCH   2  29
ATOM     29  S   UNL     1      -2.657  13.479  22.116  0.00  0.00    +0.000 S 
ATOM     30  C   UNL     1      -2.656  11.994  23.129  0.00  0.00    +0.000 C 
ATOM     31  O   UNL     1      -1.235  14.125  22.079  0.00  0.00    +0.000 OA
ENDBRANCH   2  29
TORSDOF 6
ENDMDL
MODEL 4
REMARK VINA RESULT:      -7.4      0.660      1.169
REMARK  Name = 
REMARK  8 active torsions:
REMARK  status: ('A' for Active; 'I' for Inactive)
REMARK    1  A    between atoms: C_1  and  C_2
REMARK    2  A    between atoms: C_2  and  C_3
REMARK    3  A    between atoms: C_3  and  N_4
REMARK    4  A    between atoms: C_3  and  C_25
REMARK    5  A    between atoms: C_5  and  C_7
REMARK    6  A    between atoms: C_8  and  S_9
REMARK    7  A    between atoms: S_9  and  C_10
REMARK    8  A    between atoms: C_12  and  C_13
REMARK                            x       y       z     vdW  Elec       q    Type
REMARK                         _______ _______ _______ _____ _____    ______ ____
ROOT
ATOM      1  C   UNL     1      -2.359  11.907  19.540  0.00  0.00    +0.000 A 
ATOM      2  C   UNL     1      -3.320  12.425  20.445  0.00  0.00    +0.000 A 
ATOM      3  C   UNL     1      -4.630  12.546  19.958  0.00  0.00    +0.000 A 
ATOM      4  N   UNL     1      -5.002  12.132  18.715  0.00  0.00    +0.000 NA
ATOM      5  C   UNL     1      -4.098  11.612  17.884  0.00  0.00    +0.000 A 
ATOM      6  C   UNL     1      -4.551  11.153  16.658  0.00  0.00    +0.000 A 
ATOM      7  C   UNL     1      -3.697  10.581  15.715  0.00  0.00    +0.000 A 
ATOM      8  C   UNL     1      -2.343  10.518  15.982  0.00  0.00    +0.000 A 
ATOM      9  C   UNL     1      -1.867  11.012  17.195  0.00  0.00    +0.000 A 
ATOM     10  C   UNL     1      -2.737  11.508  18.211  0.00  0.00    +0.000 A 
ENDROOT
BRANCH   3  11
ATOM     11  C   UNL     1      -5.760  13.113  20.718  0.00  0.00    +0.000 A 
ATOM     12  C   UNL     1      -6.734  12.316  21.301  0.00  0.00    +0.000 A 
ATOM     13  S   UNL     1      -7.914  13.281  22.082  0.00  0.00    +0.000 S 
ATOM     14  C   UNL     1      -7.045  14.679  21.610  0.00  0.00    +0.000 A 
ATOM     15  N   UNL     1      -5.931  14.474  20.944  0.00  0.00    +0.000 NA
ENDBRANCH   3  11
BRANCH   1  17
ATOM     16  N   UNL     1      -0.596  10.522  20.514  0.00  0.00    +0.000 N 
ATOM     17  C   UNL     1      -0.923  11.736  19.937  0.00  0.00    +0.000 C 
ATOM     18  O   UNL     1      -0.105  12.619  19.754  0.00  0.00    +0.000 OA
ATOM     19  H   UNL     1      -1.326   9.842  20.673  0.00  0.00    +0.000 HD
BRANCH  16  20
ATOM     20  C   UNL     1       0.773  10.119  20.848  0.00  0.00    +0.000 C 
BRANCH  20  21
ATOM     21  C   UNL     1       1.308   9.035  19.909  0.00  0.00    +0.000 A 
ATOM     22  C   UNL     1       1.459   9.328  18.541  0.00  0.00    +0.000 A 
ATOM     23  C   UNL     1       2.007   8.400  17.651  0.00  0.00    +0.000 A 
ATOM     24  C   UNL     1       2.422   7.156  18.112  0.00  0.00    +0.000 A 
ATOM     25  C   UNL     1       2.259   6.832  19.456  0.00  0.00    +0.000 A 
ATOM     26  C   UNL     1       1.692   7.755  20.342  0.00  0.00    +0.000 A 
ENDBRANCH  20  21
BRANCH  20  28
ATOM     27  C   UNL     1      -0.572   9.395  22.924  0.00  0.00    +0.000 C 
ATOM     28  C   UNL     1       0.793   9.723  22.343  0.00  0.00    +0.000 C 
ENDBRANCH  20  28
ENDBRANCH  16  20
ENDBRANCH   1  17
BRANCH   2  29
ATOM     29  S   UNL     1      -3.013  12.872  22.172  0.00  0.00    +0.000 S 
ATOM     30  C   UNL     1      -2.971  14.665  22.040  0.00  0.00    +0.000 C 
ATOM     31  O   UNL     1      -4.211  12.412  23.064  0.00  0.00    +0.000 OA
ENDBRANCH   2  29
TORSDOF 6
ENDMDL
MODEL 5
REMARK VINA RESULT:      -7.0      5.691      8.073
REMARK  Name = 
REMARK  8 active torsions:
REMARK  status: ('A' for Active; 'I' for Inactive)
REMARK    1  A    between atoms: C_1  and  C_2
REMARK    2  A    between atoms: C_2  and  C_3
REMARK    3  A    between atoms: C_3  and  N_4
REMARK    4  A    between atoms: C_3  and  C_25
REMARK    5  A    between atoms: C_5  and  C_7
REMARK    6  A    between atoms: C_8  and  S_9
REMARK    7  A    between atoms: S_9  and  C_10
REMARK    8  A    between atoms: C_12  and  C_13
REMARK                            x       y       z     vdW  Elec       q    Type
REMARK                         _______ _______ _______ _____ _____    ______ ____
ROOT
ATOM      1  C   UNL     1       1.535  15.865  19.779  0.00  0.00    +0.000 A 
ATOM      2  C   UNL     1       2.921  15.566  19.768  0.00  0.00    +0.000 A 
ATOM      3  C   UNL     1       3.665  16.110  18.711  0.00  0.00    +0.000 A 
ATOM      4  N   UNL     1       3.129  16.940  17.774  0.00  0.00    +0.000 NA
ATOM      5  C   UNL     1       1.832  17.246  17.814  0.00  0.00    +0.000 A 
ATOM      6  C   UNL     1       1.360  18.144  16.871  0.00  0.00    +0.000 A 
ATOM      7  C   UNL     1       0.024  18.544  16.825  0.00  0.00    +0.000 A 
ATOM      8  C   UNL     1      -0.877  17.987  17.712  0.00  0.00    +0.000 A 
ATOM      9  C   UNL     1      -0.424  17.052  18.641  0.00  0.00    +0.000 A 
ATOM     10  C   UNL     1       0.954  16.707  18.767  0.00  0.00    +0.000 A 
ENDROOT
BRANCH   3  11
ATOM     11  C   UNL     1       5.104  15.873  18.487  0.00  0.00    +0.000 A 
ATOM     12  C   UNL     1       6.078  16.758  18.925  0.00  0.00    +0.000 A 
ATOM     13  S   UNL     1       7.638  16.205  18.482  0.00  0.00    +0.000 S 
ATOM     14  C   UNL     1       6.917  14.829  17.762  0.00  0.00    +0.000 A 
ATOM     15  N   UNL     1       5.609  14.741  17.856  0.00  0.00    +0.000 NA
ENDBRANCH   3  11
BRANCH   1  17
ATOM     16  N   UNL     1       0.082  14.089  20.619  0.00  0.00    +0.000 N 
ATOM     17  C   UNL     1       0.629  15.338  20.850  0.00  0.00    +0.000 C 
ATOM     18  O   UNL     1       0.398  15.981  21.859  0.00  0.00    +0.000 OA
ATOM     19  H   UNL     1       0.281  13.620  19.747  0.00  0.00    +0.000 HD
BRANCH  16  20
ATOM     20  C   UNL     1      -0.720  13.353  21.602  0.00  0.00    +0.000 C 
BRANCH  20  21
ATOM     21  C   UNL     1      -0.379  11.862  21.636  0.00  0.00    +0.000 A 
ATOM     22  C   UNL     1       0.317  11.293  20.554  0.00  0.00    +0.000 A 
ATOM     23  C   UNL     1       0.715   9.954  20.563  0.00  0.00    +0.000 A 
ATOM     24  C   UNL     1       0.427   9.151  21.661  0.00  0.00    +0.000 A 
ATOM     25  C   UNL     1      -0.284   9.682  22.733  0.00  0.00    +0.000 A 
ATOM     26  C   UNL     1      -0.698  11.019  22.714  0.00  0.00    +0.000 A 
ENDBRANCH  20  21
BRANCH  20  28
ATOM     27  C   UNL     1      -3.076  13.801  22.547  0.00  0.00    +0.000 C 
ATOM     28  C   UNL     1      -2.209  13.652  21.308  0.00  0.00    +0.000 C 
ENDBRANCH  20  28
ENDBRANCH  16  20
ENDBRANCH   1  17
BRANCH   2  29
ATOM     29  S   UNL     1       3.806  14.609  21.024  0.00  0.00    +0.000 S 
ATOM     30  C   UNL     1       3.937  15.835  22.333  0.00  0.00    +0.000 C 
ATOM     31  O   UNL     1       2.934  13.398  21.485  0.00  0.00    +0.000 OA
ENDBRANCH   2  29
TORSDOF 6
ENDMDL
MODEL 6
REMARK VINA RESULT:      -7.0      5.811      8.079
REMARK  Name = 
REMARK  8 active torsions:
REMARK  status: ('A' for Active; 'I' for Inactive)
REMARK    1  A    between atoms: C_1  and  C_2
REMARK    2  A    between atoms: C_2  and  C_3
REMARK    3  A    between atoms: C_3  and  N_4
REMARK    4  A    between atoms: C_3  and  C_25
REMARK    5  A    between atoms: C_5  and  C_7
REMARK    6  A    between atoms: C_8  and  S_9
REMARK    7  A    between atoms: S_9  and  C_10
REMARK    8  A    between atoms: C_12  and  C_13
REMARK                            x       y       z     vdW  Elec       q    Type
REMARK                         _______ _______ _______ _____ _____    ______ ____
ROOT
ATOM      1  C   UNL     1       1.618  15.897  20.012  0.00  0.00    +0.000 A 
ATOM      2  C   UNL     1       3.029  15.760  19.986  0.00  0.00    +0.000 A 
ATOM      3  C   UNL     1       3.693  16.373  18.914  0.00  0.00    +0.000 A 
ATOM      4  N   UNL     1       3.053  17.123  17.974  0.00  0.00    +0.000 NA
ATOM      5  C   UNL     1       1.729  17.277  18.028  0.00  0.00    +0.000 A 
ATOM      6  C   UNL     1       1.146  18.102  17.081  0.00  0.00    +0.000 A 
ATOM      7  C   UNL     1      -0.228  18.345  17.048  0.00  0.00    +0.000 A 
ATOM      8  C   UNL     1      -1.048  17.699  17.953  0.00  0.00    +0.000 A 
ATOM      9  C   UNL     1      -0.479  16.835  18.887  0.00  0.00    +0.000 A 
ATOM     10  C   UNL     1       0.931  16.653  18.999  0.00  0.00    +0.000 A 
ENDROOT
BRANCH   3  11
ATOM     11  C   UNL     1       5.147  16.300  18.672  0.00  0.00    +0.000 A 
ATOM     12  C   UNL     1       5.759  15.158  18.178  0.00  0.00    +0.000 A 
ATOM     13  S   UNL     1       7.450  15.393  18.041  0.00  0.00    +0.000 S 
ATOM     14  C   UNL     1       7.250  16.990  18.625  0.00  0.00    +0.000 A 
ATOM     15  N   UNL     1       6.016  17.364  18.883  0.00  0.00    +0.000 NA
ENDBRANCH   3  11
BRANCH   1  17
ATOM     16  N   UNL     1       0.358  13.989  20.876  0.00  0.00    +0.000 N 
ATOM     17  C   UNL     1       0.791  15.283  21.102  0.00  0.00    +0.000 C 
ATOM     18  O   UNL     1       0.527  15.897  22.121  0.00  0.00    +0.000 OA
ATOM     19  H   UNL     1       0.579  13.545  19.996  0.00  0.00    +0.000 HD
BRANCH  16  20
ATOM     20  C   UNL     1      -0.347  13.178  21.873  0.00  0.00    +0.000 C 
BRANCH  20  21
ATOM     21  C   UNL     1      -0.064  11.682  21.715  0.00  0.00    +0.000 A 
ATOM     22  C   UNL     1      -0.578  10.784  22.668  0.00  0.00    +0.000 A 
ATOM     23  C   UNL     1      -0.409   9.403  22.537  0.00  0.00    +0.000 A 
ATOM     24  C   UNL     1       0.278   8.887  21.444  0.00  0.00    +0.000 A 
ATOM     25  C   UNL     1       0.821   9.756  20.501  0.00  0.00    +0.000 A 
ATOM     26  C   UNL     1       0.667  11.140  20.644  0.00  0.00    +0.000 A 
ENDBRANCH  20  21
BRANCH  20  28
ATOM     27  C   UNL     1      -2.487  13.306  20.442  0.00  0.00    +0.000 C 
ATOM     28  C   UNL     1      -1.848  13.545  21.799  0.00  0.00    +0.000 C 
ENDBRANCH  20  28
ENDBRANCH  16  20
ENDBRANCH   1  17
BRANCH   2  29
ATOM     29  S   UNL     1       4.034  14.928  21.241  0.00  0.00    +0.000 S 
ATOM     30  C   UNL     1       4.021  16.170  22.542  0.00  0.00    +0.000 C 
ATOM     31  O   UNL     1       3.321  13.622  21.717  0.00  0.00    +0.000 OA
ENDBRANCH   2  29
TORSDOF 6
ENDMDL
MODEL 7
REMARK VINA RESULT:      -6.4      5.515      8.032
REMARK  Name = 
REMARK  8 active torsions:
REMARK  status: ('A' for Active; 'I' for Inactive)
REMARK    1  A    between atoms: C_1  and  C_2
REMARK    2  A    between atoms: C_2  and  C_3
REMARK    3  A    between atoms: C_3  and  N_4
REMARK    4  A    between atoms: C_3  and  C_25
REMARK    5  A    between atoms: C_5  and  C_7
REMARK    6  A    between atoms: C_8  and  S_9
REMARK    7  A    between atoms: S_9  and  C_10
REMARK    8  A    between atoms: C_12  and  C_13
REMARK                            x       y       z     vdW  Elec       q    Type
REMARK                         _______ _______ _______ _____ _____    ______ ____
ROOT
ATOM      1  C   UNL     1       1.274  15.435  19.389  0.00  0.00    +0.000 A 
ATOM      2  C   UNL     1       2.653  15.161  19.574  0.00  0.00    +0.000 A 
ATOM      3  C   UNL     1       3.544  15.905  18.787  0.00  0.00    +0.000 A 
ATOM      4  N   UNL     1       3.142  16.890  17.937  0.00  0.00    +0.000 NA
ATOM      5  C   UNL     1       1.845  17.165  17.797  0.00  0.00    +0.000 A 
ATOM      6  C   UNL     1       1.505  18.219  16.965  0.00  0.00    +0.000 A 
ATOM      7  C   UNL     1       0.180  18.603  16.752  0.00  0.00    +0.000 A 
ATOM      8  C   UNL     1      -0.835  17.877  17.345  0.00  0.00    +0.000 A 
ATOM      9  C   UNL     1      -0.509  16.789  18.153  0.00  0.00    +0.000 A 
ATOM     10  C   UNL     1       0.840  16.445  18.461  0.00  0.00    +0.000 A 
ENDROOT
BRANCH   3  11
ATOM     11  C   UNL     1       5.010  15.733  18.786  0.00  0.00    +0.000 A 
ATOM     12  C   UNL     1       5.655  14.881  17.902  0.00  0.00    +0.000 A 
ATOM     13  S   UNL     1       7.345  14.891  18.181  0.00  0.00    +0.000 S 
ATOM     14  C   UNL     1       7.105  16.032  19.435  0.00  0.00    +0.000 A 
ATOM     15  N   UNL     1       5.866  16.424  19.636  0.00  0.00    +0.000 NA
ENDBRANCH   3  11
BRANCH   1  17
ATOM     16  N   UNL     1      -0.413  13.669  19.498  0.00  0.00    +0.000 N 
ATOM     17  C   UNL     1       0.220  14.703  20.164  0.00  0.00    +0.000 C 
ATOM     18  O   UNL     1      -0.052  15.010  21.312  0.00  0.00    +0.000 OA
ATOM     19  H   UNL     1      -0.170  13.486  18.534  0.00  0.00    +0.000 HD
BRANCH  16  20
ATOM     20  C   UNL     1      -1.374  12.758  20.127  0.00  0.00    +0.000 C 
BRANCH  20  21
ATOM     21  C   UNL     1      -1.924  11.720  19.147  0.00  0.00    +0.000 A 
ATOM     22  C   UNL     1      -3.280  11.777  18.780  0.00  0.00    +0.000 A 
ATOM     23  C   UNL     1      -3.820  10.898  17.836  0.00  0.00    +0.000 A 
ATOM     24  C   UNL     1      -3.010   9.942  17.235  0.00  0.00    +0.000 A 
ATOM     25  C   UNL     1      -1.670   9.847  17.600  0.00  0.00    +0.000 A 
ATOM     26  C   UNL     1      -1.136  10.716  18.559  0.00  0.00    +0.000 A 
ENDBRANCH  20  21
BRANCH  20  28
ATOM     27  C   UNL     1      -2.896  13.125  22.174  0.00  0.00    +0.000 C 
ATOM     28  C   UNL     1      -2.462  13.622  20.806  0.00  0.00    +0.000 C 
ENDBRANCH  20  28
ENDBRANCH  16  20
ENDBRANCH   1  17
BRANCH   2  29
ATOM     29  S   UNL     1       3.348  13.996  20.772  0.00  0.00    +0.000 S 
ATOM     30  C   UNL     1       3.560  15.079  22.192  0.00  0.00    +0.000 C 
ATOM     31  O   UNL     1       2.312  12.870  21.085  0.00  0.00    +0.000 OA
ENDBRANCH   2  29
TORSDOF 6
ENDMDL
MODEL 8
REMARK VINA RESULT:      -6.4      3.037      4.219
REMARK  Name = 
REMARK  8 active torsions:
REMARK  status: ('A' for Active; 'I' for Inactive)
REMARK    1  A    between atoms: C_1  and  C_2
REMARK    2  A    between atoms: C_2  and  C_3
REMARK    3  A    between atoms: C_3  and  N_4
REMARK    4  A    between atoms: C_3  and  C_25
REMARK    5  A    between atoms: C_5  and  C_7
REMARK    6  A    between atoms: C_8  and  S_9
REMARK    7  A    between atoms: S_9  and  C_10
REMARK    8  A    between atoms: C_12  and  C_13
REMARK                            x       y       z     vdW  Elec       q    Type
REMARK                         _______ _______ _______ _____ _____    ______ ____
ROOT
ATOM      1  C   UNL     1      -1.825  12.094  19.887  0.00  0.00    +0.000 A 
ATOM      2  C   UNL     1      -2.508  12.516  21.055  0.00  0.00    +0.000 A 
ATOM      3  C   UNL     1      -3.897  12.673  20.940  0.00  0.00    +0.000 A 
ATOM      4  N   UNL     1      -4.586  12.377  19.803  0.00  0.00    +0.000 NA
ATOM      5  C   UNL     1      -3.939  11.945  18.720  0.00  0.00    +0.000 A 
ATOM      6  C   UNL     1      -4.703  11.601  17.617  0.00  0.00    +0.000 A 
ATOM      7  C   UNL     1      -4.134  11.128  16.434  0.00  0.00    +0.000 A 
ATOM      8  C   UNL     1      -2.758  11.049  16.333  0.00  0.00    +0.000 A 
ATOM      9  C   UNL     1      -1.975  11.430  17.422  0.00  0.00    +0.000 A 
ATOM     10  C   UNL     1      -2.542  11.820  18.671  0.00  0.00    +0.000 A 
ENDROOT
BRANCH   3  11
ATOM     11  C   UNL     1      -4.781  13.156  22.018  0.00  0.00    +0.000 A 
ATOM     12  C   UNL     1      -5.111  14.496  22.159  0.00  0.00    +0.000 A 
ATOM     13  S   UNL     1      -6.127  14.725  23.519  0.00  0.00    +0.000 S 
ATOM     14  C   UNL     1      -6.074  13.039  23.811  0.00  0.00    +0.000 A 
ATOM     15  N   UNL     1      -5.382  12.322  22.953  0.00  0.00    +0.000 NA
ENDBRANCH   3  11
BRANCH   1  17
ATOM     16  N   UNL     1       0.421  13.028  19.645  0.00  0.00    +0.000 N 
ATOM     17  C   UNL     1      -0.338  11.896  19.878  0.00  0.00    +0.000 C 
ATOM     18  O   UNL     1       0.157  10.799  20.068  0.00  0.00    +0.000 OA
ATOM     19  H   UNL     1      -0.048  13.903  19.457  0.00  0.00    +0.000 HD
BRANCH  16  20
ATOM     20  C   UNL     1       1.884  13.061  19.726  0.00  0.00    +0.000 C 
BRANCH  20  21
ATOM     21  C   UNL     1       2.395  14.208  20.601  0.00  0.00    +0.000 A 
ATOM     22  C   UNL     1       3.578  14.030  21.342  0.00  0.00    +0.000 A 
ATOM     23  C   UNL     1       4.127  15.065  22.103  0.00  0.00    +0.000 A 
ATOM     24  C   UNL     1       3.505  16.308  22.137  0.00  0.00    +0.000 A 
ATOM     25  C   UNL     1       2.319  16.503  21.434  0.00  0.00    +0.000 A 
ATOM     26  C   UNL     1       1.761  15.458  20.688  0.00  0.00    +0.000 A 
ENDBRANCH  20  21
BRANCH  20  28
ATOM     27  C   UNL     1       3.145  14.365  17.894  0.00  0.00    +0.000 C 
ATOM     28  C   UNL     1       2.433  13.080  18.280  0.00  0.00    +0.000 C 
ENDBRANCH  20  28
ENDBRANCH  16  20
ENDBRANCH   1  17
BRANCH   2  29
ATOM     29  S   UNL     1      -1.755  12.799  22.677  0.00  0.00    +0.000 S 
ATOM     30  C   UNL     1      -1.386  11.108  23.163  0.00  0.00    +0.000 C 
ATOM     31  O   UNL     1      -0.440  13.628  22.518  0.00  0.00    +0.000 OA
ENDBRANCH   2  29
TORSDOF 6
ENDMDL
MODEL 9
REMARK VINA RESULT:      -6.4      3.425      7.006
REMARK  Name = 
REMARK  8 active torsions:
REMARK  status: ('A' for Active; 'I' for Inactive)
REMARK    1  A    between atoms: C_1  and  C_2
REMARK    2  A    between atoms: C_2  and  C_3
REMARK    3  A    between atoms: C_3  and  N_4
REMARK    4  A    between atoms: C_3  and  C_25
REMARK    5  A    between atoms: C_5  and  C_7
REMARK    6  A    between atoms: C_8  and  S_9
REMARK    7  A    between atoms: S_9  and  C_10
REMARK    8  A    between atoms: C_12  and  C_13
REMARK                            x       y       z     vdW  Elec       q    Type
REMARK                         _______ _______ _______ _____ _____    ______ ____
ROOT
ATOM      1  C   UNL     1      -1.567  11.756  19.236  0.00  0.00    +0.000 A 
ATOM      2  C   UNL     1      -0.354  11.047  19.429  0.00  0.00    +0.000 A 
ATOM      3  C   UNL     1      -0.122   9.967  18.565  0.00  0.00    +0.000 A 
ATOM      4  N   UNL     1      -0.962   9.638  17.544  0.00  0.00    +0.000 NA
ATOM      5  C   UNL     1      -2.082  10.334  17.348  0.00  0.00    +0.000 A 
ATOM      6  C   UNL     1      -2.862   9.990  16.256  0.00  0.00    +0.000 A 
ATOM      7  C   UNL     1      -4.049  10.656  15.948  0.00  0.00    +0.000 A 
ATOM      8  C   UNL     1      -4.497  11.657  16.788  0.00  0.00    +0.000 A 
ATOM      9  C   UNL     1      -3.743  11.988  17.912  0.00  0.00    +0.000 A 
ATOM     10  C   UNL     1      -2.478  11.387  18.187  0.00  0.00    +0.000 A 
ENDROOT
BRANCH   3  11
ATOM     11  C   UNL     1       1.048   9.070  18.635  0.00  0.00    +0.000 A 
ATOM     12  C   UNL     1       1.959   8.959  17.595  0.00  0.00    +0.000 A 
ATOM     13  S   UNL     1       3.177   7.818  17.982  0.00  0.00    +0.000 S 
ATOM     14  C   UNL     1       2.425   7.568  19.500  0.00  0.00    +0.000 A 
ATOM     15  N   UNL     1       1.356   8.293  19.746  0.00  0.00    +0.000 NA
ENDBRANCH   3  11
BRANCH   1  17
ATOM     16  N   UNL     1      -1.265  14.106  19.836  0.00  0.00    +0.000 N 
ATOM     17  C   UNL     1      -1.935  12.925  20.099  0.00  0.00    +0.000 C 
ATOM     18  O   UNL     1      -2.777  12.828  20.974  0.00  0.00    +0.000 OA
ATOM     19  H   UNL     1      -0.551  14.116  19.122  0.00  0.00    +0.000 HD
BRANCH  16  20
ATOM     20  C   UNL     1      -1.577  15.384  20.482  0.00  0.00    +0.000 C 
BRANCH  20  21
ATOM     21  C   UNL     1      -1.481  16.567  19.515  0.00  0.00    +0.000 A 
ATOM     22  C   UNL     1      -0.428  16.605  18.583  0.00  0.00    +0.000 A 
ATOM     23  C   UNL     1      -0.331  17.625  17.632  0.00  0.00    +0.000 A 
ATOM     24  C   UNL     1      -1.289  18.630  17.590  0.00  0.00    +0.000 A 
ATOM     25  C   UNL     1      -2.327  18.630  18.519  0.00  0.00    +0.000 A 
ATOM     26  C   UNL     1      -2.412  17.619  19.483  0.00  0.00    +0.000 A 
ENDBRANCH  20  21
BRANCH  20  28
ATOM     27  C   UNL     1      -1.376  15.264  23.049  0.00  0.00    +0.000 C 
ATOM     28  C   UNL     1      -0.669  15.514  21.727  0.00  0.00    +0.000 C 
ENDBRANCH  20  28
ENDBRANCH  16  20
ENDBRANCH   1  17
BRANCH   2  29
ATOM     29  S   UNL     1       0.931  11.457  20.636  0.00  0.00    +0.000 S 
ATOM     30  C   UNL     1       1.888  12.655  19.697  0.00  0.00    +0.000 C 
ATOM     31  O   UNL     1       0.288  12.127  21.893  0.00  0.00    +0.000 OA
ENDBRANCH   2  29
TORSDOF 6
ENDMDL
