MODEL 1
REMARK VINA RESULT:      -7.7      0.000      0.000
REMARK  Name = 
REMARK  9 active torsions:
REMARK  status: ('A' for Active; 'I' for Inactive)
REMARK    1  A    between atoms: C_1  and  O_2
REMARK    2  A    between atoms: O_2  and  C_3
REMARK    3  A    between atoms: C_12  and  C_13
REMARK    4  A    between atoms: C_16  and  N_17
REMARK    5  A    between atoms: N_20  and  C_21
REMARK    6  A    between atoms: C_23  and  C_24
REMARK    7  A    between atoms: C_24  and  C_25
REMARK    8  A    between atoms: C_24  and  C_26
REMARK    9  A    between atoms: C_24  and  C_27
REMARK                            x       y       z     vdW  Elec       q    Type
REMARK                         _______ _______ _______ _____ _____    ______ ____
ROOT
ATOM      1  C   UNL     1       0.850   8.845  21.017  0.00  0.00    +0.000 A 
ATOM      2  C   UNL     1       0.258   8.651  22.264  0.00  0.00    +0.000 A 
ATOM      3  C   UNL     1      -0.405   9.702  22.903  0.00  0.00    +0.000 A 
ATOM      4  C   UNL     1      -0.468  10.976  22.328  0.00  0.00    +0.000 A 
ATOM      5  C   UNL     1       0.088  11.166  21.062  0.00  0.00    +0.000 A 
ATOM      6  C   UNL     1       0.745  10.106  20.414  0.00  0.00    +0.000 A 
ENDROOT
BRANCH   1  16
ATOM      7  C   UNL     1       5.198   4.466  16.420  0.00  0.00    +0.000 A 
ATOM      8  C   UNL     1       5.075   5.848  16.172  0.00  0.00    +0.000 A 
ATOM      9  C   UNL     1       4.273   6.658  16.983  0.00  0.00    +0.000 A 
ATOM     10  C   UNL     1       3.608   6.040  18.023  0.00  0.00    +0.000 A 
ATOM     11  C   UNL     1       3.690   4.661  18.271  0.00  0.00    +0.000 A 
ATOM     12  C   UNL     1       4.479   3.862  17.462  0.00  0.00    +0.000 A 
ATOM     13  S   UNL     1       2.705   4.159  19.689  0.00  0.00    +0.000 S 
ATOM     14  C   UNL     1       2.235   5.817  19.899  0.00  0.00    +0.000 A 
ATOM     15  N   UNL     1       1.469   6.443  20.748  0.00  0.00    +0.000 NA
ATOM     16  C   UNL     1       1.552   7.769  20.342  0.00  0.00    +0.000 A 
ATOM     17  C   UNL     1       2.367   7.908  19.224  0.00  0.00    +0.000 A 
ATOM     18  N   UNL     1       2.786   6.642  18.966  0.00  0.00    +0.000 N 
BRANCH   7  20
ATOM     19  C   UNL     1       6.177   4.012  14.321  0.00  0.00    +0.000 C 
ATOM     20  O   UNL     1       5.977   3.615  15.675  0.00  0.00    +0.000 OA
ENDBRANCH   7  20
ENDBRANCH   1  16
BRANCH   4  21
ATOM     21  N   UNL     1      -1.081  12.073  22.987  0.00  0.00    +0.000 N 
ATOM     22  C   UNL     1      -2.316  12.582  22.619  0.00  0.00    +0.000 C 
ATOM     23  O   UNL     1      -3.041  12.056  21.784  0.00  0.00    +0.000 OA
ATOM     24  N   UNL     1      -2.643  13.743  23.297  0.00  0.00    +0.000 N 
ATOM     25  H   UNL     1      -0.758  12.283  23.920  0.00  0.00    +0.000 HD
ATOM     26  H   UNL     1      -1.929  14.250  23.797  0.00  0.00    +0.000 HD
BRANCH  24  27
ATOM     27  C   UNL     1      -3.848  14.369  23.053  0.00  0.00    +0.000 A 
ATOM     28  C   UNL     1      -4.224  15.309  22.125  0.00  0.00    +0.000 A 
ATOM     29  C   UNL     1      -5.616  15.515  22.361  0.00  0.00    +0.000 A 
ATOM     30  N   UNL     1      -6.032  14.773  23.392  0.00  0.00    +0.000 NA
ATOM     31  O   UNL     1      -4.932  14.066  23.819  0.00  0.00    +0.000 OA
BRANCH  29  32
ATOM     32  C   UNL     1      -6.581  16.413  21.615  0.00  0.00    +0.000 C 
ATOM     33  C   UNL     1      -5.950  16.864  20.284  0.00  0.00    +0.000 C 
ATOM     34  C   UNL     1      -7.915  15.702  21.287  0.00  0.00    +0.000 C 
ATOM     35  C   UNL     1      -6.907  17.651  22.470  0.00  0.00    +0.000 C 
ENDBRANCH  29  32
ENDBRANCH  24  27
ENDBRANCH   4  21
TORSDOF 5
ENDMDL
MODEL 2
REMARK VINA RESULT:      -7.6      0.891      1.303
REMARK  Name = 
REMARK  9 active torsions:
REMARK  status: ('A' for Active; 'I' for Inactive)
REMARK    1  A    between atoms: C_1  and  O_2
REMARK    2  A    between atoms: O_2  and  C_3
REMARK    3  A    between atoms: C_12  and  C_13
REMARK    4  A    between atoms: C_16  and  N_17
REMARK    5  A    between atoms: N_20  and  C_21
REMARK    6  A    between atoms: C_23  and  C_24
REMARK    7  A    between atoms: C_24  and  C_25
REMARK    8  A    between atoms: C_24  and  C_26
REMARK    9  A    between atoms: C_24  and  C_27
REMARK                            x       y       z     vdW  Elec       q    Type
REMARK                         _______ _______ _______ _____ _____    ______ ____
ROOT
ATOM      1  C   UNL     1       0.980   8.695  20.824  0.00  0.00    +0.000 A 
ATOM      2  C   UNL     1       1.073  10.037  20.458  0.00  0.00    +0.000 A 
ATOM      3  C   UNL     1       0.370  11.014  21.168  0.00  0.00    +0.000 A 
ATOM      4  C   UNL     1      -0.463  10.673  22.240  0.00  0.00    +0.000 A 
ATOM      5  C   UNL     1      -0.528   9.336  22.636  0.00  0.00    +0.000 A 
ATOM      6  C   UNL     1       0.188   8.355  21.930  0.00  0.00    +0.000 A 
ENDROOT
BRANCH   1  16
ATOM      7  C   UNL     1       5.395   4.619  16.016  0.00  0.00    +0.000 A 
ATOM      8  C   UNL     1       5.260   6.012  15.845  0.00  0.00    +0.000 A 
ATOM      9  C   UNL     1       4.446   6.769  16.695  0.00  0.00    +0.000 A 
ATOM     10  C   UNL     1       3.781   6.087  17.695  0.00  0.00    +0.000 A 
ATOM     11  C   UNL     1       3.874   4.698  17.865  0.00  0.00    +0.000 A 
ATOM     12  C   UNL     1       4.675   3.952  17.018  0.00  0.00    +0.000 A 
ATOM     13  S   UNL     1       2.886   4.108  19.247  0.00  0.00    +0.000 S 
ATOM     14  C   UNL     1       2.399   5.747  19.546  0.00  0.00    +0.000 A 
ATOM     15  N   UNL     1       1.622   6.317  20.425  0.00  0.00    +0.000 NA
ATOM     16  C   UNL     1       1.695   7.665  20.094  0.00  0.00    +0.000 A 
ATOM     17  C   UNL     1       2.515   7.874  18.991  0.00  0.00    +0.000 A 
ATOM     18  N   UNL     1       2.947   6.628  18.665  0.00  0.00    +0.000 N 
BRANCH   7  20
ATOM     19  C   UNL     1       5.938   3.916  13.830  0.00  0.00    +0.000 C 
ATOM     20  O   UNL     1       6.185   3.819  15.230  0.00  0.00    +0.000 OA
ENDBRANCH   7  20
ENDBRANCH   1  16
BRANCH   4  21
ATOM     21  N   UNL     1      -1.234  11.640  22.934  0.00  0.00    +0.000 N 
ATOM     22  C   UNL     1      -2.240  12.379  22.332  0.00  0.00    +0.000 C 
ATOM     23  O   UNL     1      -2.636  12.175  21.191  0.00  0.00    +0.000 OA
ATOM     24  N   UNL     1      -2.750  13.366  23.157  0.00  0.00    +0.000 N 
ATOM     25  H   UNL     1      -1.260  11.567  23.941  0.00  0.00    +0.000 HD
ATOM     26  H   UNL     1      -2.246  13.635  23.987  0.00  0.00    +0.000 HD
BRANCH  24  27
ATOM     27  C   UNL     1      -3.769  14.182  22.708  0.00  0.00    +0.000 A 
ATOM     28  C   UNL     1      -5.135  14.088  22.811  0.00  0.00    +0.000 A 
ATOM     29  C   UNL     1      -5.628  15.269  22.181  0.00  0.00    +0.000 A 
ATOM     30  N   UNL     1      -4.618  16.000  21.698  0.00  0.00    +0.000 NA
ATOM     31  O   UNL     1      -3.468  15.320  22.025  0.00  0.00    +0.000 OA
BRANCH  29  32
ATOM     32  C   UNL     1      -7.061  15.734  22.027  0.00  0.00    +0.000 C 
ATOM     33  C   UNL     1      -7.737  14.964  20.875  0.00  0.00    +0.000 C 
ATOM     34  C   UNL     1      -7.899  15.499  23.306  0.00  0.00    +0.000 C 
ATOM     35  C   UNL     1      -7.089  17.242  21.718  0.00  0.00    +0.000 C 
ENDBRANCH  29  32
ENDBRANCH  24  27
ENDBRANCH   4  21
TORSDOF 5
ENDMDL
MODEL 3
REMARK VINA RESULT:      -7.6      0.594      1.339
REMARK  Name = 
REMARK  9 active torsions:
REMARK  status: ('A' for Active; 'I' for Inactive)
REMARK    1  A    between atoms: C_1  and  O_2
REMARK    2  A    between atoms: O_2  and  C_3
REMARK    3  A    between atoms: C_12  and  C_13
REMARK    4  A    between atoms: C_16  and  N_17
REMARK    5  A    between atoms: N_20  and  C_21
REMARK    6  A    between atoms: C_23  and  C_24
REMARK    7  A    between atoms: C_24  and  C_25
REMARK    8  A    between atoms: C_24  and  C_26
REMARK    9  A    between atoms: C_24  and  C_27
REMARK                            x       y       z     vdW  Elec       q    Type
REMARK                         _______ _______ _______ _____ _____    ______ ____
ROOT
ATOM      1  C   UNL     1       0.966   8.817  20.941  0.00  0.00    +0.000 A 
ATOM      2  C   UNL     1       1.065  10.139  20.509  0.00  0.00    +0.000 A 
ATOM      3  C   UNL     1       0.371  11.153  21.172  0.00  0.00    +0.000 A 
ATOM      4  C   UNL     1      -0.461  10.871  22.263  0.00  0.00    +0.000 A 
ATOM      5  C   UNL     1      -0.532   9.555  22.724  0.00  0.00    +0.000 A 
ATOM      6  C   UNL     1       0.176   8.537  22.065  0.00  0.00    +0.000 A 
ENDROOT
BRANCH   1  16
ATOM      7  C   UNL     1       5.289   4.476  16.285  0.00  0.00    +0.000 A 
ATOM      8  C   UNL     1       5.132   5.853  16.025  0.00  0.00    +0.000 A 
ATOM      9  C   UNL     1       4.334   6.656  16.847  0.00  0.00    +0.000 A 
ATOM     10  C   UNL     1       3.707   6.036  17.910  0.00  0.00    +0.000 A 
ATOM     11  C   UNL     1       3.823   4.662  18.170  0.00  0.00    +0.000 A 
ATOM     12  C   UNL     1       4.608   3.870  17.350  0.00  0.00    +0.000 A 
ATOM     13  S   UNL     1       2.883   4.155  19.617  0.00  0.00    +0.000 S 
ATOM     14  C   UNL     1       2.384   5.805  19.821  0.00  0.00    +0.000 A 
ATOM     15  N   UNL     1       1.626   6.425  20.682  0.00  0.00    +0.000 NA
ATOM     16  C   UNL     1       1.672   7.748  20.260  0.00  0.00    +0.000 A 
ATOM     17  C   UNL     1       2.457   7.891  19.121  0.00  0.00    +0.000 A 
ATOM     18  N   UNL     1       2.895   6.631  18.866  0.00  0.00    +0.000 N 
BRANCH   7  20
ATOM     19  C   UNL     1       6.180   3.988  14.154  0.00  0.00    +0.000 C 
ATOM     20  O   UNL     1       6.067   3.634  15.530  0.00  0.00    +0.000 OA
ENDBRANCH   7  20
ENDBRANCH   1  16
BRANCH   4  21
ATOM     21  N   UNL     1      -1.224  11.875  22.911  0.00  0.00    +0.000 N 
ATOM     22  C   UNL     1      -2.250  12.566  22.286  0.00  0.00    +0.000 C 
ATOM     23  O   UNL     1      -2.671  12.285  21.171  0.00  0.00    +0.000 OA
ATOM     24  N   UNL     1      -2.750  13.600  23.058  0.00  0.00    +0.000 N 
ATOM     25  H   UNL     1      -1.225  11.868  23.920  0.00  0.00    +0.000 HD
ATOM     26  H   UNL     1      -2.229  13.927  23.856  0.00  0.00    +0.000 HD
BRANCH  24  27
ATOM     27  C   UNL     1      -3.786  14.378  22.582  0.00  0.00    +0.000 A 
ATOM     28  C   UNL     1      -3.802  15.583  21.922  0.00  0.00    +0.000 A 
ATOM     29  C   UNL     1      -5.182  15.835  21.663  0.00  0.00    +0.000 A 
ATOM     30  N   UNL     1      -5.941  14.861  22.174  0.00  0.00    +0.000 NA
ATOM     31  O   UNL     1      -5.071  13.962  22.745  0.00  0.00    +0.000 OA
BRANCH  29  32
ATOM     32  C   UNL     1      -5.811  16.999  20.925  0.00  0.00    +0.000 C 
ATOM     33  C   UNL     1      -7.265  17.191  21.399  0.00  0.00    +0.000 C 
ATOM     34  C   UNL     1      -5.058  18.328  21.168  0.00  0.00    +0.000 C 
ATOM     35  C   UNL     1      -5.800  16.723  19.411  0.00  0.00    +0.000 C 
ENDBRANCH  29  32
ENDBRANCH  24  27
ENDBRANCH   4  21
TORSDOF 5
ENDMDL
MODEL 4
REMARK VINA RESULT:      -7.4      2.398      2.960
REMARK  Name = 
REMARK  9 active torsions:
REMARK  status: ('A' for Active; 'I' for Inactive)
REMARK    1  A    between atoms: C_1  and  O_2
REMARK    2  A    between atoms: O_2  and  C_3
REMARK    3  A    between atoms: C_12  and  C_13
REMARK    4  A    between atoms: C_16  and  N_17
REMARK    5  A    between atoms: N_20  and  C_21
REMARK    6  A    between atoms: C_23  and  C_24
REMARK    7  A    between atoms: C_24  and  C_25
REMARK    8  A    between atoms: C_24  and  C_26
REMARK    9  A    between atoms: C_24  and  C_27
REMARK                            x       y       z     vdW  Elec       q    Type
REMARK                         _______ _______ _______ _____ _____    ______ ____
ROOT
ATOM      1  C   UNL     1       1.201   8.409  20.410  0.00  0.00    +0.000 A 
ATOM      2  C   UNL     1       0.613   9.484  19.745  0.00  0.00    +0.000 A 
ATOM      3  C   UNL     1      -0.223  10.367  20.432  0.00  0.00    +0.000 A 
ATOM      4  C   UNL     1      -0.516  10.183  21.789  0.00  0.00    +0.000 A 
ATOM      5  C   UNL     1       0.101   9.132  22.468  0.00  0.00    +0.000 A 
ATOM      6  C   UNL     1       0.952   8.250  21.781  0.00  0.00    +0.000 A 
ENDROOT
BRANCH   1  16
ATOM      7  C   UNL     1       5.964   4.808  15.555  0.00  0.00    +0.000 A 
ATOM      8  C   UNL     1       5.484   6.098  15.250  0.00  0.00    +0.000 A 
ATOM      9  C   UNL     1       4.601   6.762  16.109  0.00  0.00    +0.000 A 
ATOM     10  C   UNL     1       4.221   6.092  17.255  0.00  0.00    +0.000 A 
ATOM     11  C   UNL     1       4.659   4.796  17.564  0.00  0.00    +0.000 A 
ATOM     12  C   UNL     1       5.527   4.140  16.709  0.00  0.00    +0.000 A 
ATOM     13  S   UNL     1       3.983   4.195  19.118  0.00  0.00    +0.000 S 
ATOM     14  C   UNL     1       3.150   5.707  19.294  0.00  0.00    +0.000 A 
ATOM     15  N   UNL     1       2.350   6.204  20.197  0.00  0.00    +0.000 NA
ATOM     16  C   UNL     1       2.066   7.475  19.712  0.00  0.00    +0.000 A 
ATOM     17  C   UNL     1       2.699   7.709  18.497  0.00  0.00    +0.000 A 
ATOM     18  N   UNL     1       3.382   6.560  18.258  0.00  0.00    +0.000 N 
BRANCH   7  20
ATOM     19  C   UNL     1       7.195   4.743  13.542  0.00  0.00    +0.000 C 
ATOM     20  O   UNL     1       6.841   4.106  14.767  0.00  0.00    +0.000 OA
ENDBRANCH   7  20
ENDBRANCH   1  16
BRANCH   4  21
ATOM     21  N   UNL     1      -1.412  11.030  22.490  0.00  0.00    +0.000 N 
ATOM     22  C   UNL     1      -1.111  12.341  22.821  0.00  0.00    +0.000 C 
ATOM     23  O   UNL     1      -0.106  12.922  22.430  0.00  0.00    +0.000 OA
ATOM     24  N   UNL     1      -2.067  12.924  23.635  0.00  0.00    +0.000 N 
ATOM     25  H   UNL     1      -2.389  10.774  22.475  0.00  0.00    +0.000 HD
ATOM     26  H   UNL     1      -2.745  12.345  24.105  0.00  0.00    +0.000 HD
BRANCH  24  27
ATOM     27  C   UNL     1      -1.919  14.234  24.044  0.00  0.00    +0.000 A 
ATOM     28  C   UNL     1      -2.758  15.319  23.973  0.00  0.00    +0.000 A 
ATOM     29  C   UNL     1      -2.040  16.374  24.610  0.00  0.00    +0.000 A 
ATOM     30  N   UNL     1      -0.832  15.953  24.998  0.00  0.00    +0.000 NA
ATOM     31  O   UNL     1      -0.761  14.626  24.643  0.00  0.00    +0.000 OA
BRANCH  29  32
ATOM     32  C   UNL     1      -2.481  17.800  24.868  0.00  0.00    +0.000 C 
ATOM     33  C   UNL     1      -3.930  17.810  25.393  0.00  0.00    +0.000 C 
ATOM     34  C   UNL     1      -1.595  18.512  25.917  0.00  0.00    +0.000 C 
ATOM     35  C   UNL     1      -2.406  18.612  23.562  0.00  0.00    +0.000 C 
ENDBRANCH  29  32
ENDBRANCH  24  27
ENDBRANCH   4  21
TORSDOF 5
ENDMDL
MODEL 5
REMARK VINA RESULT:      -7.3      2.659      3.128
REMARK  Name = 
REMARK  9 active torsions:
REMARK  status: ('A' for Active; 'I' for Inactive)
REMARK    1  A    between atoms: C_1  and  O_2
REMARK    2  A    between atoms: O_2  and  C_3
REMARK    3  A    between atoms: C_12  and  C_13
REMARK    4  A    between atoms: C_16  and  N_17
REMARK    5  A    between atoms: N_20  and  C_21
REMARK    6  A    between atoms: C_23  and  C_24
REMARK    7  A    between atoms: C_24  and  C_25
REMARK    8  A    between atoms: C_24  and  C_26
REMARK    9  A    between atoms: C_24  and  C_27
REMARK                            x       y       z     vdW  Elec       q    Type
REMARK                         _______ _______ _______ _____ _____    ______ ____
ROOT
ATOM      1  C   UNL     1       1.271   8.356  20.164  0.00  0.00    +0.000 A 
ATOM      2  C   UNL     1       0.806   8.109  21.455  0.00  0.00    +0.000 A 
ATOM      3  C   UNL     1      -0.058   9.012  22.080  0.00  0.00    +0.000 A 
ATOM      4  C   UNL     1      -0.454  10.195  21.445  0.00  0.00    +0.000 A 
ATOM      5  C   UNL     1      -0.023  10.428  20.138  0.00  0.00    +0.000 A 
ATOM      6  C   UNL     1       0.836   9.514  19.504  0.00  0.00    +0.000 A 
ENDROOT
BRANCH   1  16
ATOM      7  C   UNL     1       6.148   4.760  15.420  0.00  0.00    +0.000 A 
ATOM      8  C   UNL     1       5.590   6.002  15.054  0.00  0.00    +0.000 A 
ATOM      9  C   UNL     1       4.685   6.663  15.892  0.00  0.00    +0.000 A 
ATOM     10  C   UNL     1       4.363   6.038  17.080  0.00  0.00    +0.000 A 
ATOM     11  C   UNL     1       4.880   4.788  17.452  0.00  0.00    +0.000 A 
ATOM     12  C   UNL     1       5.770   4.135  16.617  0.00  0.00    +0.000 A 
ATOM     13  S   UNL     1       4.266   4.238  19.050  0.00  0.00    +0.000 S 
ATOM     14  C   UNL     1       3.352   5.709  19.160  0.00  0.00    +0.000 A 
ATOM     15  N   UNL     1       2.540   6.210  20.049  0.00  0.00    +0.000 NA
ATOM     16  C   UNL     1       2.176   7.434  19.501  0.00  0.00    +0.000 A 
ATOM     17  C   UNL     1       2.774   7.635  18.262  0.00  0.00    +0.000 A 
ATOM     18  N   UNL     1       3.517   6.514  18.074  0.00  0.00    +0.000 N 
BRANCH   7  20
ATOM     19  C   UNL     1       6.705   3.945  13.276  0.00  0.00    +0.000 C 
ATOM     20  O   UNL     1       7.050   4.065  14.654  0.00  0.00    +0.000 OA
ENDBRANCH   7  20
ENDBRANCH   1  16
BRANCH   4  21
ATOM     21  N   UNL     1      -1.278  11.157  22.084  0.00  0.00    +0.000 N 
ATOM     22  C   UNL     1      -0.816  12.400  22.485  0.00  0.00    +0.000 C 
ATOM     23  O   UNL     1       0.298  12.827  22.211  0.00  0.00    +0.000 OA
ATOM     24  N   UNL     1      -1.750  13.108  23.221  0.00  0.00    +0.000 N 
ATOM     25  H   UNL     1      -2.275  11.054  21.967  0.00  0.00    +0.000 HD
ATOM     26  H   UNL     1      -2.551  12.632  23.605  0.00  0.00    +0.000 HD
BRANCH  24  27
ATOM     27  C   UNL     1      -1.448  14.373  23.685  0.00  0.00    +0.000 A 
ATOM     28  C   UNL     1      -1.646  15.621  23.147  0.00  0.00    +0.000 A 
ATOM     29  C   UNL     1      -1.155  16.524  24.136  0.00  0.00    +0.000 A 
ATOM     30  N   UNL     1      -0.657  15.853  25.179  0.00  0.00    +0.000 NA
ATOM     31  O   UNL     1      -0.839  14.520  24.893  0.00  0.00    +0.000 OA
BRANCH  29  32
ATOM     32  C   UNL     1      -1.149  18.039  24.117  0.00  0.00    +0.000 C 
ATOM     33  C   UNL     1      -0.101  18.567  25.116  0.00  0.00    +0.000 C 
ATOM     34  C   UNL     1      -0.800  18.610  22.722  0.00  0.00    +0.000 C 
ATOM     35  C   UNL     1      -2.540  18.570  24.507  0.00  0.00    +0.000 C 
ENDBRANCH  29  32
ENDBRANCH  24  27
ENDBRANCH   4  21
TORSDOF 5
ENDMDL
MODEL 6
REMARK VINA RESULT:      -7.3      2.820      3.462
REMARK  Name = 
REMARK  9 active torsions:
REMARK  status: ('A' for Active; 'I' for Inactive)
REMARK    1  A    between atoms: C_1  and  O_2
REMARK    2  A    between atoms: O_2  and  C_3
REMARK    3  A    between atoms: C_12  and  C_13
REMARK    4  A    between atoms: C_16  and  N_17
REMARK    5  A    between atoms: N_20  and  C_21
REMARK    6  A    between atoms: C_23  and  C_24
REMARK    7  A    between atoms: C_24  and  C_25
REMARK    8  A    between atoms: C_24  and  C_26
REMARK    9  A    between atoms: C_24  and  C_27
REMARK                            x       y       z     vdW  Elec       q    Type
REMARK                         _______ _______ _______ _____ _____    ______ ____
ROOT
ATOM      1  C   UNL     1       1.168   8.494  20.348  0.00  0.00    +0.000 A 
ATOM      2  C   UNL     1       0.602   8.173  21.581  0.00  0.00    +0.000 A 
ATOM      3  C   UNL     1      -0.238   9.080  22.231  0.00  0.00    +0.000 A 
ATOM      4  C   UNL     1      -0.512  10.338  21.681  0.00  0.00    +0.000 A 
ATOM      5  C   UNL     1       0.019  10.649  20.428  0.00  0.00    +0.000 A 
ATOM      6  C   UNL     1       0.855   9.732  19.768  0.00  0.00    +0.000 A 
ENDROOT
BRANCH   1  16
ATOM      7  C   UNL     1       6.004   4.929  15.539  0.00  0.00    +0.000 A 
ATOM      8  C   UNL     1       5.501   6.207  15.220  0.00  0.00    +0.000 A 
ATOM      9  C   UNL     1       4.605   6.863  16.069  0.00  0.00    +0.000 A 
ATOM     10  C   UNL     1       4.234   6.199  17.222  0.00  0.00    +0.000 A 
ATOM     11  C   UNL     1       4.696   4.914  17.546  0.00  0.00    +0.000 A 
ATOM     12  C   UNL     1       5.578   4.266  16.700  0.00  0.00    +0.000 A 
ATOM     13  S   UNL     1       4.028   4.318  19.106  0.00  0.00    +0.000 S 
ATOM     14  C   UNL     1       3.168   5.817  19.264  0.00  0.00    +0.000 A 
ATOM     15  N   UNL     1       2.357   6.308  20.160  0.00  0.00    +0.000 NA
ATOM     16  C   UNL     1       2.051   7.569  19.661  0.00  0.00    +0.000 A 
ATOM     17  C   UNL     1       2.682   7.801  18.444  0.00  0.00    +0.000 A 
ATOM     18  N   UNL     1       3.386   6.662  18.219  0.00  0.00    +0.000 N 
BRANCH   7  20
ATOM     19  C   UNL     1       6.410   3.865  13.472  0.00  0.00    +0.000 C 
ATOM     20  O   UNL     1       6.895   4.234  14.760  0.00  0.00    +0.000 OA
ENDBRANCH   7  20
ENDBRANCH   1  16
BRANCH   4  21
ATOM     21  N   UNL     1      -1.310  11.299  22.352  0.00  0.00    +0.000 N 
ATOM     22  C   UNL     1      -0.892  12.600  22.584  0.00  0.00    +0.000 C 
ATOM     23  O   UNL     1       0.140  13.070  22.121  0.00  0.00    +0.000 OA
ATOM     24  N   UNL     1      -1.767  13.311  23.387  0.00  0.00    +0.000 N 
ATOM     25  H   UNL     1      -2.304  11.125  22.386  0.00  0.00    +0.000 HD
ATOM     26  H   UNL     1      -2.471  12.822  23.917  0.00  0.00    +0.000 HD
BRANCH  24  27
ATOM     27  C   UNL     1      -1.499  14.628  23.701  0.00  0.00    +0.000 A 
ATOM     28  C   UNL     1      -1.040  15.223  24.851  0.00  0.00    +0.000 A 
ATOM     29  C   UNL     1      -0.931  16.607  24.523  0.00  0.00    +0.000 A 
ATOM     30  N   UNL     1      -1.340  16.827  23.270  0.00  0.00    +0.000 NA
ATOM     31  O   UNL     1      -1.694  15.597  22.765  0.00  0.00    +0.000 OA
BRANCH  29  32
ATOM     32  C   UNL     1      -0.435  17.749  25.386  0.00  0.00    +0.000 C 
ATOM     33  C   UNL     1      -1.624  18.630  25.816  0.00  0.00    +0.000 C 
ATOM     34  C   UNL     1       0.274  17.256  26.669  0.00  0.00    +0.000 C 
ATOM     35  C   UNL     1       0.570  18.603  24.592  0.00  0.00    +0.000 C 
ENDBRANCH  29  32
ENDBRANCH  24  27
ENDBRANCH   4  21
TORSDOF 5
ENDMDL
MODEL 7
REMARK VINA RESULT:      -7.3      3.099     13.136
REMARK  Name = 
REMARK  9 active torsions:
REMARK  status: ('A' for Active; 'I' for Inactive)
REMARK    1  A    between atoms: C_1  and  O_2
REMARK    2  A    between atoms: O_2  and  C_3
REMARK    3  A    between atoms: C_12  and  C_13
REMARK    4  A    between atoms: C_16  and  N_17
REMARK    5  A    between atoms: N_20  and  C_21
REMARK    6  A    between atoms: C_23  and  C_24
REMARK    7  A    between atoms: C_24  and  C_25
REMARK    8  A    between atoms: C_24  and  C_26
REMARK    9  A    between atoms: C_24  and  C_27
REMARK                            x       y       z     vdW  Elec       q    Type
REMARK                         _______ _______ _______ _____ _____    ______ ____
ROOT
ATOM      1  C   UNL     1       1.181   9.286  19.656  0.00  0.00    +0.000 A 
ATOM      2  C   UNL     1       1.703   9.249  18.363  0.00  0.00    +0.000 A 
ATOM      3  C   UNL     1       2.481   8.166  17.946  0.00  0.00    +0.000 A 
ATOM      4  C   UNL     1       2.779   7.109  18.815  0.00  0.00    +0.000 A 
ATOM      5  C   UNL     1       2.226   7.122  20.096  0.00  0.00    +0.000 A 
ATOM      6  C   UNL     1       1.434   8.205  20.512  0.00  0.00    +0.000 A 
ENDROOT
BRANCH   1  16
ATOM      7  C   UNL     1      -3.482  14.120  23.410  0.00  0.00    +0.000 A 
ATOM      8  C   UNL     1      -3.324  12.795  23.863  0.00  0.00    +0.000 A 
ATOM      9  C   UNL     1      -2.497  11.894  23.183  0.00  0.00    +0.000 A 
ATOM     10  C   UNL     1      -1.858  12.362  22.053  0.00  0.00    +0.000 A 
ATOM     11  C   UNL     1      -2.024  13.667  21.564  0.00  0.00    +0.000 A 
ATOM     12  C   UNL     1      -2.848  14.553  22.236  0.00  0.00    +0.000 A 
ATOM     13  S   UNL     1      -1.066  13.970  20.073  0.00  0.00    +0.000 S 
ATOM     14  C   UNL     1      -0.474  12.341  20.171  0.00  0.00    +0.000 A 
ATOM     15  N   UNL     1       0.341  11.626  19.446  0.00  0.00    +0.000 NA
ATOM     16  C   UNL     1       0.379  10.407  20.111  0.00  0.00    +0.000 A 
ATOM     17  C   UNL     1      -0.444  10.412  21.231  0.00  0.00    +0.000 A 
ATOM     18  N   UNL     1      -0.975  11.662  21.240  0.00  0.00    +0.000 N 
BRANCH   7  20
ATOM     19  C   UNL     1      -3.586  15.868  24.993  0.00  0.00    +0.000 C 
ATOM     20  O   UNL     1      -4.264  15.060  24.035  0.00  0.00    +0.000 OA
ENDBRANCH   7  20
ENDBRANCH   1  16
BRANCH   4  21
ATOM     21  N   UNL     1       3.618   6.031  18.433  0.00  0.00    +0.000 N 
ATOM     22  C   UNL     1       4.237   5.956  17.195  0.00  0.00    +0.000 C 
ATOM     23  O   UNL     1       4.220   6.866  16.376  0.00  0.00    +0.000 OA
ATOM     24  N   UNL     1       4.879   4.748  16.987  0.00  0.00    +0.000 N 
ATOM     25  H   UNL     1       4.013   5.474  19.176  0.00  0.00    +0.000 HD
ATOM     26  H   UNL     1       4.676   3.963  17.586  0.00  0.00    +0.000 HD
BRANCH  24  27
ATOM     27  C   UNL     1       5.555   4.520  15.805  0.00  0.00    +0.000 A 
ATOM     28  C   UNL     1       5.132   4.082  14.575  0.00  0.00    +0.000 A 
ATOM     29  C   UNL     1       6.303   4.100  13.761  0.00  0.00    +0.000 A 
ATOM     30  N   UNL     1       7.365   4.487  14.475  0.00  0.00    +0.000 NA
ATOM     31  O   UNL     1       6.896   4.743  15.743  0.00  0.00    +0.000 OA
BRANCH  29  32
ATOM     32  C   UNL     1       6.443   3.757  12.292  0.00  0.00    +0.000 C 
ATOM     33  C   UNL     1       7.234   4.867  11.572  0.00  0.00    +0.000 C 
ATOM     34  C   UNL     1       7.191   2.423  12.066  0.00  0.00    +0.000 C 
ATOM     35  C   UNL     1       5.048   3.628  11.653  0.00  0.00    +0.000 C 
ENDBRANCH  29  32
ENDBRANCH  24  27
ENDBRANCH   4  21
TORSDOF 5
ENDMDL
MODEL 8
REMARK VINA RESULT:      -7.1      3.087     12.780
REMARK  Name = 
REMARK  9 active torsions:
REMARK  status: ('A' for Active; 'I' for Inactive)
REMARK    1  A    between atoms: C_1  and  O_2
REMARK    2  A    between atoms: O_2  and  C_3
REMARK    3  A    between atoms: C_12  and  C_13
REMARK    4  A    between atoms: C_16  and  N_17
REMARK    5  A    between atoms: N_20  and  C_21
REMARK    6  A    between atoms: C_23  and  C_24
REMARK    7  A    between atoms: C_24  and  C_25
REMARK    8  A    between atoms: C_24  and  C_26
REMARK    9  A    between atoms: C_24  and  C_27
REMARK                            x       y       z     vdW  Elec       q    Type
REMARK                         _______ _______ _______ _____ _____    ______ ____
ROOT
ATOM      1  C   UNL     1      -0.993  11.049  21.857  0.00  0.00    +0.000 A 
ATOM      2  C   UNL     1      -0.459  10.434  22.989  0.00  0.00    +0.000 A 
ATOM      3  C   UNL     1       0.402   9.341  22.859  0.00  0.00    +0.000 A 
ATOM      4  C   UNL     1       0.726   8.818  21.602  0.00  0.00    +0.000 A 
ATOM      5  C   UNL     1       0.226   9.454  20.465  0.00  0.00    +0.000 A 
ATOM      6  C   UNL     1      -0.630  10.561  20.594  0.00  0.00    +0.000 A 
ENDROOT
BRANCH   1  16
ATOM      7  C   UNL     1      -5.086  17.166  24.104  0.00  0.00    +0.000 A 
ATOM      8  C   UNL     1      -4.229  16.515  25.014  0.00  0.00    +0.000 A 
ATOM      9  C   UNL     1      -3.492  15.389  24.632  0.00  0.00    +0.000 A 
ATOM     10  C   UNL     1      -3.652  14.947  23.334  0.00  0.00    +0.000 A 
ATOM     11  C   UNL     1      -4.523  15.558  22.420  0.00  0.00    +0.000 A 
ATOM     12  C   UNL     1      -5.255  16.668  22.804  0.00  0.00    +0.000 A 
ATOM     13  S   UNL     1      -4.515  14.747  20.815  0.00  0.00    +0.000 S 
ATOM     14  C   UNL     1      -3.338  13.630  21.431  0.00  0.00    +0.000 A 
ATOM     15  N   UNL     1      -2.705  12.608  20.926  0.00  0.00    +0.000 NA
ATOM     16  C   UNL     1      -1.896  12.180  21.971  0.00  0.00    +0.000 A 
ATOM     17  C   UNL     1      -2.080  12.959  23.108  0.00  0.00    +0.000 A 
ATOM     18  N   UNL     1      -3.009  13.875  22.729  0.00  0.00    +0.000 N 
BRANCH   7  20
ATOM     19  C   UNL     1      -6.815  18.630  23.440  0.00  0.00    +0.000 C 
ATOM     20  O   UNL     1      -5.826  18.282  24.406  0.00  0.00    +0.000 OA
ENDBRANCH   7  20
ENDBRANCH   1  16
BRANCH   4  21
ATOM     21  N   UNL     1       1.546   7.671  21.449  0.00  0.00    +0.000 N 
ATOM     22  C   UNL     1       2.167   7.339  20.256  0.00  0.00    +0.000 C 
ATOM     23  O   UNL     1       2.171   8.068  19.272  0.00  0.00    +0.000 OA
ATOM     24  N   UNL     1       2.787   6.103  20.298  0.00  0.00    +0.000 N 
ATOM     25  H   UNL     1       1.926   7.265  22.292  0.00  0.00    +0.000 HD
ATOM     26  H   UNL     1       2.567   5.456  21.040  0.00  0.00    +0.000 HD
BRANCH  24  27
ATOM     27  C   UNL     1       3.463   5.632  19.190  0.00  0.00    +0.000 A 
ATOM     28  C   UNL     1       4.176   6.273  18.207  0.00  0.00    +0.000 A 
ATOM     29  C   UNL     1       4.667   5.225  17.374  0.00  0.00    +0.000 A 
ATOM     30  N   UNL     1       4.238   4.038  17.811  0.00  0.00    +0.000 NA
ATOM     31  O   UNL     1       3.490   4.295  18.936  0.00  0.00    +0.000 OA
BRANCH  29  32
ATOM     32  C   UNL     1       5.554   5.325  16.149  0.00  0.00    +0.000 C 
ATOM     33  C   UNL     1       5.311   4.111  15.231  0.00  0.00    +0.000 C 
ATOM     34  C   UNL     1       5.279   6.603  15.324  0.00  0.00    +0.000 C 
ATOM     35  C   UNL     1       7.032   5.351  16.578  0.00  0.00    +0.000 C 
ENDBRANCH  29  32
ENDBRANCH  24  27
ENDBRANCH   4  21
TORSDOF 5
ENDMDL
MODEL 9
REMARK VINA RESULT:      -7.0      3.115     12.905
REMARK  Name = 
REMARK  9 active torsions:
REMARK  status: ('A' for Active; 'I' for Inactive)
REMARK    1  A    between atoms: C_1  and  O_2
REMARK    2  A    between atoms: O_2  and  C_3
REMARK    3  A    between atoms: C_12  and  C_13
REMARK    4  A    between atoms: C_16  and  N_17
REMARK    5  A    between atoms: N_20  and  C_21
REMARK    6  A    between atoms: C_23  and  C_24
REMARK    7  A    between atoms: C_24  and  C_25
REMARK    8  A    between atoms: C_24  and  C_26
REMARK    9  A    between atoms: C_24  and  C_27
REMARK                            x       y       z     vdW  Elec       q    Type
REMARK                         _______ _______ _______ _____ _____    ______ ____
ROOT
ATOM      1  C   UNL     1      -0.703  11.239  21.500  0.00  0.00    +0.000 A 
ATOM      2  C   UNL     1      -0.081  10.900  20.299  0.00  0.00    +0.000 A 
ATOM      3  C   UNL     1       0.663   9.723  20.196  0.00  0.00    +0.000 A 
ATOM      4  C   UNL     1       0.829   8.870  21.294  0.00  0.00    +0.000 A 
ATOM      5  C   UNL     1       0.176   9.184  22.487  0.00  0.00    +0.000 A 
ATOM      6  C   UNL     1      -0.583  10.362  22.588  0.00  0.00    +0.000 A 
ENDROOT
BRANCH   1  16
ATOM      7  C   UNL     1      -5.730  16.760  23.358  0.00  0.00    +0.000 A 
ATOM      8  C   UNL     1      -5.881  15.460  23.881  0.00  0.00    +0.000 A 
ATOM      9  C   UNL     1      -4.991  14.437  23.540  0.00  0.00    +0.000 A 
ATOM     10  C   UNL     1      -3.972  14.759  22.666  0.00  0.00    +0.000 A 
ATOM     11  C   UNL     1      -3.820  16.037  22.107  0.00  0.00    +0.000 A 
ATOM     12  C   UNL     1      -4.707  17.045  22.442  0.00  0.00    +0.000 A 
ATOM     13  S   UNL     1      -2.404  16.139  21.002  0.00  0.00    +0.000 S 
ATOM     14  C   UNL     1      -2.069  14.471  21.343  0.00  0.00    +0.000 A 
ATOM     15  N   UNL     1      -1.153  13.630  20.949  0.00  0.00    +0.000 NA
ATOM     16  C   UNL     1      -1.473  12.462  21.630  0.00  0.00    +0.000 A 
ATOM     17  C   UNL     1      -2.606  12.627  22.419  0.00  0.00    +0.000 A 
ATOM     18  N   UNL     1      -2.962  13.921  22.211  0.00  0.00    +0.000 N 
BRANCH   7  20
ATOM     19  C   UNL     1      -6.122  18.630  24.745  0.00  0.00    +0.000 C 
ATOM     20  O   UNL     1      -6.557  17.814  23.660  0.00  0.00    +0.000 OA
ENDBRANCH   7  20
ENDBRANCH   1  16
BRANCH   4  21
ATOM     21  N   UNL     1       1.632   7.703  21.230  0.00  0.00    +0.000 N 
ATOM     22  C   UNL     1       2.227   7.258  20.060  0.00  0.00    +0.000 C 
ATOM     23  O   UNL     1       2.220   7.895  19.014  0.00  0.00    +0.000 OA
ATOM     24  N   UNL     1       2.833   6.021  20.202  0.00  0.00    +0.000 N 
ATOM     25  H   UNL     1       2.024   7.370  22.098  0.00  0.00    +0.000 HD
ATOM     26  H   UNL     1       2.620   5.447  21.002  0.00  0.00    +0.000 HD
BRANCH  24  27
ATOM     27  C   UNL     1       3.482   5.444  19.129  0.00  0.00    +0.000 A 
ATOM     28  C   UNL     1       4.483   5.900  18.307  0.00  0.00    +0.000 A 
ATOM     29  C   UNL     1       4.746   4.815  17.419  0.00  0.00    +0.000 A 
ATOM     30  N   UNL     1       3.923   3.792  17.672  0.00  0.00    +0.000 NA
ATOM     31  O   UNL     1       3.140   4.188  18.731  0.00  0.00    +0.000 OA
BRANCH  29  32
ATOM     32  C   UNL     1       5.781   4.720  16.318  0.00  0.00    +0.000 C 
ATOM     33  C   UNL     1       5.705   5.972  15.422  0.00  0.00    +0.000 C 
ATOM     34  C   UNL     1       7.223   4.624  16.870  0.00  0.00    +0.000 C 
ATOM     35  C   UNL     1       5.520   3.466  15.464  0.00  0.00    +0.000 C 
ENDBRANCH  29  32
ENDBRANCH  24  27
ENDBRANCH   4  21
TORSDOF 5
ENDMDL
