MODEL 1
REMARK VINA RESULT:      -7.5      0.000      0.000
REMARK  Name = 
REMARK  6 active torsions:
REMARK  status: ('A' for Active; 'I' for Inactive)
REMARK    1  A    between atoms: C_1  and  C_2
REMARK    2  A    between atoms: N_7  and  C_8
REMARK    3  A    between atoms: C_8  and  C_9
REMARK    4  A    between atoms: C_13  and  N_14
REMARK    5  A    between atoms: C_15  and  C_17
REMARK    6  A    between atoms: N_27  and  C_28
REMARK                            x       y       z     vdW  Elec       q    Type
REMARK                         _______ _______ _______ _____ _____    ______ ____
ROOT
ATOM      1  C   UNL     1      -1.938  12.256  19.520  0.00  0.00    +0.000 A 
ATOM      2  N   UNL     1      -1.797  10.988  19.189  0.00  0.00    +0.000 NA
ATOM      3  C   UNL     1      -0.480  10.836  18.855  0.00  0.00    +0.000 A 
ATOM      4  C   UNL     1       0.192   9.684  18.428  0.00  0.00    +0.000 A 
ATOM      5  C   UNL     1       1.546   9.760  18.082  0.00  0.00    +0.000 A 
ATOM      6  C   UNL     1       2.216  10.986  18.194  0.00  0.00    +0.000 A 
ATOM      7  C   UNL     1       1.567  12.149  18.641  0.00  0.00    +0.000 A 
ATOM      8  C   UNL     1       0.215  12.032  18.979  0.00  0.00    +0.000 A 
ATOM      9  N   UNL     1      -0.725  12.907  19.480  0.00  0.00    +0.000 N 
ATOM     10  C   UNL     1      -0.458  14.246  19.946  0.00  0.00    +0.000 C 
ENDROOT
BRANCH   5  11
ATOM     11  N   UNL     1       2.277   8.638  17.621  0.00  0.00    +0.000 N 
ATOM     12  C   UNL     1       2.639   7.553  18.401  0.00  0.00    +0.000 C 
ATOM     13  O   UNL     1       2.312   7.357  19.566  0.00  0.00    +0.000 OA
ATOM     14  H   UNL     1       2.438   8.584  16.624  0.00  0.00    +0.000 HD
BRANCH  12  15
ATOM     15  C   UNL     1       3.463   6.492  17.755  0.00  0.00    +0.000 A 
ATOM     16  C   UNL     1       3.170   5.125  17.869  0.00  0.00    +0.000 A 
ATOM     17  C   UNL     1       3.939   4.199  17.153  0.00  0.00    +0.000 A 
ATOM     18  C   UNL     1       4.980   4.640  16.340  0.00  0.00    +0.000 A 
ATOM     19  F   UNL     1       5.691   3.747  15.640  0.00  0.00    +0.000 F 
ATOM     20  C   UNL     1       5.280   5.990  16.225  0.00  0.00    +0.000 A 
ATOM     21  C   UNL     1       4.521   6.915  16.935  0.00  0.00    +0.000 A 
ENDBRANCH  12  15
ENDBRANCH   5  11
BRANCH   1  22
ATOM     22  C   UNL     1      -3.247  12.872  19.908  0.00  0.00    +0.000 C 
BRANCH  22  29
ATOM     23  C   UNL     1      -6.100  16.054  23.956  0.00  0.00    +0.000 C 
ATOM     24  C   UNL     1      -4.667  15.590  23.891  0.00  0.00    +0.000 C 
ATOM     25  O   UNL     1      -3.867  15.933  24.760  0.00  0.00    +0.000 OA
ATOM     26  N   UNL     1      -4.328  14.749  22.844  0.00  0.00    +0.000 N 
ATOM     27  C   UNL     1      -2.962  14.221  22.745  0.00  0.00    +0.000 C 
ATOM     28  C   UNL     1      -2.965  12.725  22.356  0.00  0.00    +0.000 C 
ATOM     29  N   UNL     1      -3.804  12.363  21.178  0.00  0.00    +0.000 NA
ATOM     30  C   UNL     1      -5.160  12.925  21.394  0.00  0.00    +0.000 C 
ATOM     31  C   UNL     1      -5.192  14.435  21.705  0.00  0.00    +0.000 C 
ENDBRANCH  22  29
ENDBRANCH   1  22
TORSDOF 4
ENDMDL
MODEL 2
REMARK VINA RESULT:      -7.5      1.195      1.655
REMARK  Name = 
REMARK  6 active torsions:
REMARK  status: ('A' for Active; 'I' for Inactive)
REMARK    1  A    between atoms: C_1  and  C_2
REMARK    2  A    between atoms: N_7  and  C_8
REMARK    3  A    between atoms: C_8  and  C_9
REMARK    4  A    between atoms: C_13  and  N_14
REMARK    5  A    between atoms: C_15  and  C_17
REMARK    6  A    between atoms: N_27  and  C_28
REMARK                            x       y       z     vdW  Elec       q    Type
REMARK                         _______ _______ _______ _____ _____    ______ ____
ROOT
ATOM      1  C   UNL     1      -1.643  12.861  20.089  0.00  0.00    +0.000 A 
ATOM      2  N   UNL     1      -1.593  11.563  19.860  0.00  0.00    +0.000 NA
ATOM      3  C   UNL     1      -0.363  11.329  19.313  0.00  0.00    +0.000 A 
ATOM      4  C   UNL     1       0.193  10.118  18.884  0.00  0.00    +0.000 A 
ATOM      5  C   UNL     1       1.464  10.109  18.297  0.00  0.00    +0.000 A 
ATOM      6  C   UNL     1       2.172  11.311  18.171  0.00  0.00    +0.000 A 
ATOM      7  C   UNL     1       1.642  12.534  18.615  0.00  0.00    +0.000 A 
ATOM      8  C   UNL     1       0.371  12.503  19.198  0.00  0.00    +0.000 A 
ATOM      9  N   UNL     1      -0.441  13.456  19.772  0.00  0.00    +0.000 N 
ATOM     10  C   UNL     1      -0.063  14.820  20.053  0.00  0.00    +0.000 C 
ENDROOT
BRANCH   5  11
ATOM     11  N   UNL     1       2.073   8.921  17.822  0.00  0.00    +0.000 N 
ATOM     12  C   UNL     1       2.399   7.829  18.608  0.00  0.00    +0.000 C 
ATOM     13  O   UNL     1       2.137   7.687  19.797  0.00  0.00    +0.000 OA
ATOM     14  H   UNL     1       2.163   8.832  16.819  0.00  0.00    +0.000 HD
BRANCH  12  15
ATOM     15  C   UNL     1       3.093   6.691  17.941  0.00  0.00    +0.000 A 
ATOM     16  C   UNL     1       4.302   6.838  17.245  0.00  0.00    +0.000 A 
ATOM     17  C   UNL     1       4.936   5.701  16.728  0.00  0.00    +0.000 A 
ATOM     18  C   UNL     1       4.367   4.443  16.909  0.00  0.00    +0.000 A 
ATOM     19  F   UNL     1       4.997   3.362  16.434  0.00  0.00    +0.000 F 
ATOM     20  C   UNL     1       3.168   4.288  17.592  0.00  0.00    +0.000 A 
ATOM     21  C   UNL     1       2.532   5.415  18.106  0.00  0.00    +0.000 A 
ENDBRANCH  12  15
ENDBRANCH   5  11
BRANCH   1  22
ATOM     22  C   UNL     1      -2.845  13.561  20.643  0.00  0.00    +0.000 C 
BRANCH  22  29
ATOM     23  C   UNL     1      -7.537  13.415  24.195  0.00  0.00    +0.000 C 
ATOM     24  C   UNL     1      -6.768  14.576  23.617  0.00  0.00    +0.000 C 
ATOM     25  O   UNL     1      -7.144  15.730  23.822  0.00  0.00    +0.000 OA
ATOM     26  N   UNL     1      -5.626  14.274  22.895  0.00  0.00    +0.000 N 
ATOM     27  C   UNL     1      -4.803  15.357  22.343  0.00  0.00    +0.000 C 
ATOM     28  C   UNL     1      -3.296  15.073  22.542  0.00  0.00    +0.000 C 
ATOM     29  N   UNL     1      -2.828  13.725  22.112  0.00  0.00    +0.000 NA
ATOM     30  C   UNL     1      -3.712  12.713  22.741  0.00  0.00    +0.000 C 
ATOM     31  C   UNL     1      -5.218  12.927  22.492  0.00  0.00    +0.000 C 
ENDBRANCH  22  29
ENDBRANCH   1  22
TORSDOF 4
ENDMDL
MODEL 3
REMARK VINA RESULT:      -7.5      1.944      2.658
REMARK  Name = 
REMARK  6 active torsions:
REMARK  status: ('A' for Active; 'I' for Inactive)
REMARK    1  A    between atoms: C_1  and  C_2
REMARK    2  A    between atoms: N_7  and  C_8
REMARK    3  A    between atoms: C_8  and  C_9
REMARK    4  A    between atoms: C_13  and  N_14
REMARK    5  A    between atoms: C_15  and  C_17
REMARK    6  A    between atoms: N_27  and  C_28
REMARK                            x       y       z     vdW  Elec       q    Type
REMARK                         _______ _______ _______ _____ _____    ______ ____
ROOT
ATOM      1  C   UNL     1      -1.003  11.549  20.814  0.00  0.00    +0.000 A 
ATOM      2  N   UNL     1      -0.485  11.248  19.640  0.00  0.00    +0.000 NA
ATOM      3  C   UNL     1       0.300  10.150  19.852  0.00  0.00    +0.000 A 
ATOM      4  C   UNL     1       1.076   9.433  18.933  0.00  0.00    +0.000 A 
ATOM      5  C   UNL     1       1.857   8.358  19.374  0.00  0.00    +0.000 A 
ATOM      6  C   UNL     1       1.828   7.999  20.728  0.00  0.00    +0.000 A 
ATOM      7  C   UNL     1       1.040   8.690  21.663  0.00  0.00    +0.000 A 
ATOM      8  C   UNL     1       0.272   9.756  21.184  0.00  0.00    +0.000 A 
ATOM      9  N   UNL     1      -0.629  10.622  21.763  0.00  0.00    +0.000 N 
ATOM     10  C   UNL     1      -1.140  10.523  23.108  0.00  0.00    +0.000 C 
ENDROOT
BRANCH   5  11
ATOM     11  N   UNL     1       2.681   7.608  18.500  0.00  0.00    +0.000 N 
ATOM     12  C   UNL     1       2.782   6.227  18.496  0.00  0.00    +0.000 C 
ATOM     13  O   UNL     1       2.120   5.450  19.176  0.00  0.00    +0.000 OA
ATOM     14  H   UNL     1       3.132   8.121  17.755  0.00  0.00    +0.000 HD
BRANCH  12  15
ATOM     15  C   UNL     1       3.751   5.615  17.543  0.00  0.00    +0.000 A 
ATOM     16  C   UNL     1       3.837   4.233  17.326  0.00  0.00    +0.000 A 
ATOM     17  C   UNL     1       4.709   3.747  16.344  0.00  0.00    +0.000 A 
ATOM     18  C   UNL     1       5.476   4.635  15.594  0.00  0.00    +0.000 A 
ATOM     19  F   UNL     1       6.286   4.160  14.640  0.00  0.00    +0.000 F 
ATOM     20  C   UNL     1       5.402   6.005  15.805  0.00  0.00    +0.000 A 
ATOM     21  C   UNL     1       4.539   6.493  16.782  0.00  0.00    +0.000 A 
ENDBRANCH  12  15
ENDBRANCH   5  11
BRANCH   1  22
ATOM     22  C   UNL     1      -1.895  12.729  21.051  0.00  0.00    +0.000 C 
BRANCH  22  29
ATOM     23  C   UNL     1      -1.547  16.086  25.874  0.00  0.00    +0.000 C 
ATOM     24  C   UNL     1      -2.437  16.185  24.660  0.00  0.00    +0.000 C 
ATOM     25  O   UNL     1      -3.309  17.051  24.603  0.00  0.00    +0.000 OA
ATOM     26  N   UNL     1      -2.193  15.292  23.630  0.00  0.00    +0.000 N 
ATOM     27  C   UNL     1      -2.990  15.361  22.400  0.00  0.00    +0.000 C 
ATOM     28  C   UNL     1      -2.103  15.187  21.146  0.00  0.00    +0.000 C 
ATOM     29  N   UNL     1      -1.180  14.017  21.162  0.00  0.00    +0.000 NA
ATOM     30  C   UNL     1      -0.413  14.059  22.432  0.00  0.00    +0.000 C 
ATOM     31  C   UNL     1      -1.278  14.152  23.706  0.00  0.00    +0.000 C 
ENDBRANCH  22  29
ENDBRANCH   1  22
TORSDOF 4
ENDMDL
MODEL 4
REMARK VINA RESULT:      -7.4      1.789      2.423
REMARK  Name = 
REMARK  6 active torsions:
REMARK  status: ('A' for Active; 'I' for Inactive)
REMARK    1  A    between atoms: C_1  and  C_2
REMARK    2  A    between atoms: N_7  and  C_8
REMARK    3  A    between atoms: C_8  and  C_9
REMARK    4  A    between atoms: C_13  and  N_14
REMARK    5  A    between atoms: C_15  and  C_17
REMARK    6  A    between atoms: N_27  and  C_28
REMARK                            x       y       z     vdW  Elec       q    Type
REMARK                         _______ _______ _______ _____ _____    ______ ____
ROOT
ATOM      1  C   UNL     1      -0.503  12.094  21.014  0.00  0.00    +0.000 A 
ATOM      2  N   UNL     1       0.081  11.852  19.857  0.00  0.00    +0.000 NA
ATOM      3  C   UNL     1       0.603  10.593  19.961  0.00  0.00    +0.000 A 
ATOM      4  C   UNL     1       1.326   9.859  19.013  0.00  0.00    +0.000 A 
ATOM      5  C   UNL     1       1.821   8.593  19.346  0.00  0.00    +0.000 A 
ATOM      6  C   UNL     1       1.560   8.067  20.618  0.00  0.00    +0.000 A 
ATOM      7  C   UNL     1       0.818   8.776  21.577  0.00  0.00    +0.000 A 
ATOM      8  C   UNL     1       0.340  10.037  21.206  0.00  0.00    +0.000 A 
ATOM      9  N   UNL     1      -0.435  10.988  21.833  0.00  0.00    +0.000 N 
ATOM     10  C   UNL     1      -1.113  10.817  23.095  0.00  0.00    +0.000 C 
ENDROOT
BRANCH   5  11
ATOM     11  N   UNL     1       2.579   7.810  18.440  0.00  0.00    +0.000 N 
ATOM     12  C   UNL     1       2.815   6.453  18.572  0.00  0.00    +0.000 C 
ATOM     13  O   UNL     1       2.340   5.714  19.428  0.00  0.00    +0.000 OA
ATOM     14  H   UNL     1       2.863   8.264  17.582  0.00  0.00    +0.000 HD
BRANCH  12  15
ATOM     15  C   UNL     1       3.689   5.809  17.551  0.00  0.00    +0.000 A 
ATOM     16  C   UNL     1       4.532   6.540  16.700  0.00  0.00    +0.000 A 
ATOM     17  C   UNL     1       5.391   5.853  15.834  0.00  0.00    +0.000 A 
ATOM     18  C   UNL     1       5.403   4.461  15.824  0.00  0.00    +0.000 A 
ATOM     19  F   UNL     1       6.248   3.815  15.011  0.00  0.00    +0.000 F 
ATOM     20  C   UNL     1       4.569   3.729  16.658  0.00  0.00    +0.000 A 
ATOM     21  C   UNL     1       3.711   4.406  17.520  0.00  0.00    +0.000 A 
ENDBRANCH  12  15
ENDBRANCH   5  11
BRANCH   1  22
ATOM     22  C   UNL     1      -1.166  13.393  21.354  0.00  0.00    +0.000 C 
BRANCH  22  29
ATOM     23  C   UNL     1      -6.198  15.682  23.378  0.00  0.00    +0.000 C 
ATOM     24  C   UNL     1      -5.809  14.256  23.074  0.00  0.00    +0.000 C 
ATOM     25  O   UNL     1      -6.594  13.338  23.311  0.00  0.00    +0.000 OA
ATOM     26  N   UNL     1      -4.567  14.056  22.496  0.00  0.00    +0.000 N 
ATOM     27  C   UNL     1      -4.143  12.698  22.130  0.00  0.00    +0.000 C 
ATOM     28  C   UNL     1      -3.450  12.680  20.749  0.00  0.00    +0.000 C 
ATOM     29  N   UNL     1      -2.370  13.688  20.551  0.00  0.00    +0.000 NA
ATOM     30  C   UNL     1      -2.913  15.017  20.927  0.00  0.00    +0.000 C 
ATOM     31  C   UNL     1      -3.538  15.085  22.334  0.00  0.00    +0.000 C 
ENDBRANCH  22  29
ENDBRANCH   1  22
TORSDOF 4
ENDMDL
MODEL 5
REMARK VINA RESULT:      -7.4      2.018      2.605
REMARK  Name = 
REMARK  6 active torsions:
REMARK  status: ('A' for Active; 'I' for Inactive)
REMARK    1  A    between atoms: C_1  and  C_2
REMARK    2  A    between atoms: N_7  and  C_8
REMARK    3  A    between atoms: C_8  and  C_9
REMARK    4  A    between atoms: C_13  and  N_14
REMARK    5  A    between atoms: C_15  and  C_17
REMARK    6  A    between atoms: N_27  and  C_28
REMARK                            x       y       z     vdW  Elec       q    Type
REMARK                         _______ _______ _______ _____ _____    ______ ____
ROOT
ATOM      1  C   UNL     1       0.106  11.967  20.702  0.00  0.00    +0.000 A 
ATOM      2  N   UNL     1       0.292  10.774  21.230  0.00  0.00    +0.000 NA
ATOM      3  C   UNL     1       0.874  10.020  20.249  0.00  0.00    +0.000 A 
ATOM      4  C   UNL     1       1.274   8.679  20.292  0.00  0.00    +0.000 A 
ATOM      5  C   UNL     1       1.806   8.079  19.145  0.00  0.00    +0.000 A 
ATOM      6  C   UNL     1       1.954   8.838  17.977  0.00  0.00    +0.000 A 
ATOM      7  C   UNL     1       1.580  10.191  17.919  0.00  0.00    +0.000 A 
ATOM      8  C   UNL     1       1.054  10.756  19.085  0.00  0.00    +0.000 A 
ATOM      9  N   UNL     1       0.625  12.020  19.426  0.00  0.00    +0.000 N 
ATOM     10  C   UNL     1       0.765  13.201  18.609  0.00  0.00    +0.000 C 
ENDROOT
BRANCH   5  11
ATOM     11  N   UNL     1       2.208   6.721  19.115  0.00  0.00    +0.000 N 
ATOM     12  C   UNL     1       3.270   6.225  18.378  0.00  0.00    +0.000 C 
ATOM     13  O   UNL     1       4.066   6.885  17.719  0.00  0.00    +0.000 OA
ATOM     14  H   UNL     1       1.753   6.102  19.772  0.00  0.00    +0.000 HD
BRANCH  12  15
ATOM     15  C   UNL     1       3.505   4.754  18.423  0.00  0.00    +0.000 A 
ATOM     16  C   UNL     1       4.371   4.148  19.346  0.00  0.00    +0.000 A 
ATOM     17  C   UNL     1       4.462   2.752  19.384  0.00  0.00    +0.000 A 
ATOM     18  C   UNL     1       3.698   1.981  18.512  0.00  0.00    +0.000 A 
ATOM     19  F   UNL     1       3.775   0.645  18.575  0.00  0.00    +0.000 F 
ATOM     20  C   UNL     1       2.844   2.570  17.591  0.00  0.00    +0.000 A 
ATOM     21  C   UNL     1       2.750   3.959  17.548  0.00  0.00    +0.000 A 
ENDBRANCH  12  15
ENDBRANCH   5  11
BRANCH   1  22
ATOM     22  C   UNL     1      -0.558  13.100  21.421  0.00  0.00    +0.000 C 
BRANCH  22  29
ATOM     23  C   UNL     1      -6.033  13.231  23.579  0.00  0.00    +0.000 C 
ATOM     24  C   UNL     1      -4.913  14.238  23.658  0.00  0.00    +0.000 C 
ATOM     25  O   UNL     1      -5.099  15.328  24.198  0.00  0.00    +0.000 OA
ATOM     26  N   UNL     1      -3.690  13.856  23.134  0.00  0.00    +0.000 N 
ATOM     27  C   UNL     1      -2.543  14.768  23.218  0.00  0.00    +0.000 C 
ATOM     28  C   UNL     1      -1.252  14.012  23.608  0.00  0.00    +0.000 C 
ATOM     29  N   UNL     1      -0.951  12.788  22.811  0.00  0.00    +0.000 NA
ATOM     30  C   UNL     1      -2.165  11.934  22.811  0.00  0.00    +0.000 C 
ATOM     31  C   UNL     1      -3.454  12.643  22.348  0.00  0.00    +0.000 C 
ENDBRANCH  22  29
ENDBRANCH   1  22
TORSDOF 4
ENDMDL
MODEL 6
REMARK VINA RESULT:      -7.3      3.244      4.301
REMARK  Name = 
REMARK  6 active torsions:
REMARK  status: ('A' for Active; 'I' for Inactive)
REMARK    1  A    between atoms: C_1  and  C_2
REMARK    2  A    between atoms: N_7  and  C_8
REMARK    3  A    between atoms: C_8  and  C_9
REMARK    4  A    between atoms: C_13  and  N_14
REMARK    5  A    between atoms: C_15  and  C_17
REMARK    6  A    between atoms: N_27  and  C_28
REMARK                            x       y       z     vdW  Elec       q    Type
REMARK                         _______ _______ _______ _____ _____    ______ ____
ROOT
ATOM      1  C   UNL     1      -0.020  11.487  19.940  0.00  0.00    +0.000 A 
ATOM      2  N   UNL     1       0.527  11.154  18.788  0.00  0.00    +0.000 NA
ATOM      3  C   UNL     1       1.090   9.924  18.985  0.00  0.00    +0.000 A 
ATOM      4  C   UNL     1       1.798   9.125  18.079  0.00  0.00    +0.000 A 
ATOM      5  C   UNL     1       2.343   7.909  18.507  0.00  0.00    +0.000 A 
ATOM      6  C   UNL     1       2.149   7.497  19.833  0.00  0.00    +0.000 A 
ATOM      7  C   UNL     1       1.423   8.273  20.752  0.00  0.00    +0.000 A 
ATOM      8  C   UNL     1       0.892   9.480  20.286  0.00  0.00    +0.000 A 
ATOM      9  N   UNL     1       0.114  10.465  20.854  0.00  0.00    +0.000 N 
ATOM     10  C   UNL     1      -0.508  10.395  22.154  0.00  0.00    +0.000 C 
ENDROOT
BRANCH   5  11
ATOM     11  N   UNL     1       3.088   7.065  17.647  0.00  0.00    +0.000 N 
ATOM     12  C   UNL     1       4.011   6.122  18.067  0.00  0.00    +0.000 C 
ATOM     13  O   UNL     1       4.257   5.815  19.228  0.00  0.00    +0.000 OA
ATOM     14  H   UNL     1       2.834   7.082  16.669  0.00  0.00    +0.000 HD
BRANCH  12  15
ATOM     15  C   UNL     1       4.746   5.369  17.011  0.00  0.00    +0.000 A 
ATOM     16  C   UNL     1       4.912   3.977  17.044  0.00  0.00    +0.000 A 
ATOM     17  C   UNL     1       5.533   3.336  15.965  0.00  0.00    +0.000 A 
ATOM     18  C   UNL     1       5.976   4.080  14.875  0.00  0.00    +0.000 A 
ATOM     19  F   UNL     1       6.543   3.453  13.837  0.00  0.00    +0.000 F 
ATOM     20  C   UNL     1       5.821   5.459  14.835  0.00  0.00    +0.000 A 
ATOM     21  C   UNL     1       5.206   6.102  15.906  0.00  0.00    +0.000 A 
ENDBRANCH  12  15
ENDBRANCH   5  11
BRANCH   1  22
ATOM     22  C   UNL     1      -0.708  12.794  20.186  0.00  0.00    +0.000 C 
BRANCH  22  29
ATOM     23  C   UNL     1       0.716  18.232  18.439  0.00  0.00    +0.000 C 
ATOM     24  C   UNL     1       1.501  16.945  18.410  0.00  0.00    +0.000 C 
ATOM     25  O   UNL     1       2.621  16.916  17.901  0.00  0.00    +0.000 OA
ATOM     26  N   UNL     1       0.916  15.841  19.007  0.00  0.00    +0.000 N 
ATOM     27  C   UNL     1       1.644  14.567  19.056  0.00  0.00    +0.000 C 
ATOM     28  C   UNL     1       1.492  13.887  20.436  0.00  0.00    +0.000 C 
ATOM     29  N   UNL     1       0.098  13.768  20.951  0.00  0.00    +0.000 NA
ATOM     30  C   UNL     1      -0.531  15.110  20.876  0.00  0.00    +0.000 C 
ATOM     31  C   UNL     1      -0.465  15.778  19.488  0.00  0.00    +0.000 C 
ENDBRANCH  22  29
ENDBRANCH   1  22
TORSDOF 4
ENDMDL
MODEL 7
REMARK VINA RESULT:      -7.3      1.933      2.916
REMARK  Name = 
REMARK  6 active torsions:
REMARK  status: ('A' for Active; 'I' for Inactive)
REMARK    1  A    between atoms: C_1  and  C_2
REMARK    2  A    between atoms: N_7  and  C_8
REMARK    3  A    between atoms: C_8  and  C_9
REMARK    4  A    between atoms: C_13  and  N_14
REMARK    5  A    between atoms: C_15  and  C_17
REMARK    6  A    between atoms: N_27  and  C_28
REMARK                            x       y       z     vdW  Elec       q    Type
REMARK                         _______ _______ _______ _____ _____    ______ ____
ROOT
ATOM      1  C   UNL     1       0.087  11.214  20.855  0.00  0.00    +0.000 A 
ATOM      2  N   UNL     1       0.627  11.032  19.666  0.00  0.00    +0.000 NA
ATOM      3  C   UNL     1       1.097   9.749  19.664  0.00  0.00    +0.000 A 
ATOM      4  C   UNL     1       1.760   9.056  18.644  0.00  0.00    +0.000 A 
ATOM      5  C   UNL     1       2.208   7.750  18.872  0.00  0.00    +0.000 A 
ATOM      6  C   UNL     1       1.962   7.144  20.112  0.00  0.00    +0.000 A 
ATOM      7  C   UNL     1       1.279   7.814  21.141  0.00  0.00    +0.000 A 
ATOM      8  C   UNL     1       0.846   9.116  20.875  0.00  0.00    +0.000 A 
ATOM      9  N   UNL     1       0.131  10.051  21.592  0.00  0.00    +0.000 N 
ATOM     10  C   UNL     1      -0.517   9.819  22.860  0.00  0.00    +0.000 C 
ENDROOT
BRANCH   5  11
ATOM     11  N   UNL     1       2.905   7.003  17.890  0.00  0.00    +0.000 N 
ATOM     12  C   UNL     1       3.958   6.142  18.148  0.00  0.00    +0.000 C 
ATOM     13  O   UNL     1       4.384   5.830  19.254  0.00  0.00    +0.000 OA
ATOM     14  H   UNL     1       2.521   7.021  16.955  0.00  0.00    +0.000 HD
BRANCH  12  15
ATOM     15  C   UNL     1       4.609   5.489  16.977  0.00  0.00    +0.000 A 
ATOM     16  C   UNL     1       5.163   6.213  15.912  0.00  0.00    +0.000 A 
ATOM     17  C   UNL     1       5.840   5.526  14.897  0.00  0.00    +0.000 A 
ATOM     18  C   UNL     1       5.958   4.140  14.954  0.00  0.00    +0.000 A 
ATOM     19  F   UNL     1       6.631   3.497  13.991  0.00  0.00    +0.000 F 
ATOM     20  C   UNL     1       5.409   3.414  16.001  0.00  0.00    +0.000 A 
ATOM     21  C   UNL     1       4.732   4.091  17.012  0.00  0.00    +0.000 A 
ENDBRANCH  12  15
ENDBRANCH   5  11
BRANCH   1  22
ATOM     22  C   UNL     1      -0.508  12.512  21.307  0.00  0.00    +0.000 C 
BRANCH  22  29
ATOM     23  C   UNL     1      -4.949  16.209  22.432  0.00  0.00    +0.000 C 
ATOM     24  C   UNL     1      -4.944  14.736  22.109  0.00  0.00    +0.000 C 
ATOM     25  O   UNL     1      -5.997  14.099  22.113  0.00  0.00    +0.000 OA
ATOM     26  N   UNL     1      -3.723  14.171  21.781  0.00  0.00    +0.000 N 
ATOM     27  C   UNL     1      -3.651  12.752  21.410  0.00  0.00    +0.000 C 
ATOM     28  C   UNL     1      -2.714  12.536  20.199  0.00  0.00    +0.000 C 
ATOM     29  N   UNL     1      -1.368  13.168  20.300  0.00  0.00    +0.000 NA
ATOM     30  C   UNL     1      -1.561  14.596  20.655  0.00  0.00    +0.000 C 
ATOM     31  C   UNL     1      -2.426  14.839  21.908  0.00  0.00    +0.000 C 
ENDBRANCH  22  29
ENDBRANCH   1  22
TORSDOF 4
ENDMDL
MODEL 8
REMARK VINA RESULT:      -7.3      1.647      2.201
REMARK  Name = 
REMARK  6 active torsions:
REMARK  status: ('A' for Active; 'I' for Inactive)
REMARK    1  A    between atoms: C_1  and  C_2
REMARK    2  A    between atoms: N_7  and  C_8
REMARK    3  A    between atoms: C_8  and  C_9
REMARK    4  A    between atoms: C_13  and  N_14
REMARK    5  A    between atoms: C_15  and  C_17
REMARK    6  A    between atoms: N_27  and  C_28
REMARK                            x       y       z     vdW  Elec       q    Type
REMARK                         _______ _______ _______ _____ _____    ______ ____
ROOT
ATOM      1  C   UNL     1      -1.053  11.667  20.908  0.00  0.00    +0.000 A 
ATOM      2  N   UNL     1      -0.561  11.372  19.721  0.00  0.00    +0.000 NA
ATOM      3  C   UNL     1       0.228  10.272  19.908  0.00  0.00    +0.000 A 
ATOM      4  C   UNL     1       0.983   9.561  18.968  0.00  0.00    +0.000 A 
ATOM      5  C   UNL     1       1.773   8.483  19.386  0.00  0.00    +0.000 A 
ATOM      6  C   UNL     1       1.774   8.116  20.738  0.00  0.00    +0.000 A 
ATOM      7  C   UNL     1       1.007   8.802  21.695  0.00  0.00    +0.000 A 
ATOM      8  C   UNL     1       0.230   9.872  21.238  0.00  0.00    +0.000 A 
ATOM      9  N   UNL     1      -0.658  10.735  21.842  0.00  0.00    +0.000 N 
ATOM     10  C   UNL     1      -1.139  10.627  23.198  0.00  0.00    +0.000 C 
ENDROOT
BRANCH   5  11
ATOM     11  N   UNL     1       2.577   7.737  18.489  0.00  0.00    +0.000 N 
ATOM     12  C   UNL     1       2.697   6.358  18.492  0.00  0.00    +0.000 C 
ATOM     13  O   UNL     1       2.070   5.577  19.200  0.00  0.00    +0.000 OA
ATOM     14  H   UNL     1       2.995   8.251  17.726  0.00  0.00    +0.000 HD
BRANCH  12  15
ATOM     15  C   UNL     1       3.641   5.753  17.511  0.00  0.00    +0.000 A 
ATOM     16  C   UNL     1       4.529   6.515  16.737  0.00  0.00    +0.000 A 
ATOM     17  C   UNL     1       5.448   5.861  15.908  0.00  0.00    +0.000 A 
ATOM     18  C   UNL     1       5.474   4.470  15.858  0.00  0.00    +0.000 A 
ATOM     19  F   UNL     1       6.375   3.856  15.081  0.00  0.00    +0.000 F 
ATOM     20  C   UNL     1       4.596   3.707  16.615  0.00  0.00    +0.000 A 
ATOM     21  C   UNL     1       3.678   4.351  17.441  0.00  0.00    +0.000 A 
ENDBRANCH  12  15
ENDBRANCH   5  11
BRANCH   1  22
ATOM     22  C   UNL     1      -1.939  12.846  21.171  0.00  0.00    +0.000 C 
BRANCH  22  29
ATOM     23  C   UNL     1      -6.325  16.689  21.970  0.00  0.00    +0.000 C 
ATOM     24  C   UNL     1      -5.608  15.787  22.944  0.00  0.00    +0.000 C 
ATOM     25  O   UNL     1      -5.880  15.833  24.143  0.00  0.00    +0.000 OA
ATOM     26  N   UNL     1      -4.681  14.906  22.415  0.00  0.00    +0.000 N 
ATOM     27  C   UNL     1      -3.980  13.966  23.298  0.00  0.00    +0.000 C 
ATOM     28  C   UNL     1      -3.886  12.561  22.662  0.00  0.00    +0.000 C 
ATOM     29  N   UNL     1      -3.376  12.516  21.262  0.00  0.00    +0.000 NA
ATOM     30  C   UNL     1      -4.166  13.481  20.458  0.00  0.00    +0.000 C 
ATOM     31  C   UNL     1      -4.210  14.913  21.029  0.00  0.00    +0.000 C 
ENDBRANCH  22  29
ENDBRANCH   1  22
TORSDOF 4
ENDMDL
MODEL 9
REMARK VINA RESULT:      -7.2      2.023      2.983
REMARK  Name = 
REMARK  6 active torsions:
REMARK  status: ('A' for Active; 'I' for Inactive)
REMARK    1  A    between atoms: C_1  and  C_2
REMARK    2  A    between atoms: N_7  and  C_8
REMARK    3  A    between atoms: C_8  and  C_9
REMARK    4  A    between atoms: C_13  and  N_14
REMARK    5  A    between atoms: C_15  and  C_17
REMARK    6  A    between atoms: N_27  and  C_28
REMARK                            x       y       z     vdW  Elec       q    Type
REMARK                         _______ _______ _______ _____ _____    ______ ____
ROOT
ATOM      1  C   UNL     1      -0.016  11.019  20.665  0.00  0.00    +0.000 A 
ATOM      2  N   UNL     1       0.539  10.818  19.487  0.00  0.00    +0.000 NA
ATOM      3  C   UNL     1       1.089   9.568  19.544  0.00  0.00    +0.000 A 
ATOM      4  C   UNL     1       1.799   8.873  18.557  0.00  0.00    +0.000 A 
ATOM      5  C   UNL     1       2.328   7.610  18.844  0.00  0.00    +0.000 A 
ATOM      6  C   UNL     1       2.115   7.046  20.110  0.00  0.00    +0.000 A 
ATOM      7  C   UNL     1       1.386   7.717  21.107  0.00  0.00    +0.000 A 
ATOM      8  C   UNL     1       0.873   8.976  20.782  0.00  0.00    +0.000 A 
ATOM      9  N   UNL     1       0.097   9.895  21.454  0.00  0.00    +0.000 N 
ATOM     10  C   UNL     1      -0.540   9.679  22.730  0.00  0.00    +0.000 C 
ENDROOT
BRANCH   5  11
ATOM     11  N   UNL     1       3.075   6.865  17.898  0.00  0.00    +0.000 N 
ATOM     12  C   UNL     1       4.098   5.987  18.211  0.00  0.00    +0.000 C 
ATOM     13  O   UNL     1       4.451   5.656  19.338  0.00  0.00    +0.000 OA
ATOM     14  H   UNL     1       2.750   6.899  16.942  0.00  0.00    +0.000 HD
BRANCH  12  15
ATOM     15  C   UNL     1       4.813   5.339  17.075  0.00  0.00    +0.000 A 
ATOM     16  C   UNL     1       5.097   3.966  17.037  0.00  0.00    +0.000 A 
ATOM     17  C   UNL     1       5.687   3.421  15.890  0.00  0.00    +0.000 A 
ATOM     18  C   UNL     1       5.984   4.240  14.804  0.00  0.00    +0.000 A 
ATOM     19  F   UNL     1       6.524   3.702  13.703  0.00  0.00    +0.000 F 
ATOM     20  C   UNL     1       5.711   5.601  14.834  0.00  0.00    +0.000 A 
ATOM     21  C   UNL     1       5.126   6.149  15.972  0.00  0.00    +0.000 A 
ENDBRANCH  12  15
ENDBRANCH   5  11
BRANCH   1  22
ATOM     22  C   UNL     1      -0.695  12.296  21.057  0.00  0.00    +0.000 C 
BRANCH  22  29
ATOM     23  C   UNL     1      -4.910  16.384  21.468  0.00  0.00    +0.000 C 
ATOM     24  C   UNL     1      -4.983  14.916  21.128  0.00  0.00    +0.000 C 
ATOM     25  O   UNL     1      -6.074  14.379  20.942  0.00  0.00    +0.000 OA
ATOM     26  N   UNL     1      -3.780  14.242  21.003  0.00  0.00    +0.000 N 
ATOM     27  C   UNL     1      -3.774  12.823  20.627  0.00  0.00    +0.000 C 
ATOM     28  C   UNL     1      -2.668  12.522  19.591  0.00  0.00    +0.000 C 
ATOM     29  N   UNL     1      -1.307  13.028  19.929  0.00  0.00    +0.000 NA
ATOM     30  C   UNL     1      -1.428  14.467  20.269  0.00  0.00    +0.000 C 
ATOM     31  C   UNL     1      -2.469  14.788  21.360  0.00  0.00    +0.000 C 
ENDBRANCH  22  29
ENDBRANCH   1  22
TORSDOF 4
ENDMDL
