MODEL 1
REMARK VINA RESULT:      -7.2      0.000      0.000
REMARK  Name = 
REMARK  3 active torsions:
REMARK  status: ('A' for Active; 'I' for Inactive)
REMARK    1  A    between atoms: C_2  and  C_3
REMARK    2  A    between atoms: C_3  and  C_4
REMARK    3  A    between atoms: C_15  and  C_16
REMARK                            x       y       z     vdW  Elec       q    Type
REMARK                         _______ _______ _______ _____ _____    ______ ____
ROOT
ATOM      1  O   UNL     1       6.928   7.650  17.127  0.00  0.00    +0.000 OA
ATOM      2  C   UNL     1       6.557   6.512  17.431  0.00  0.00    +0.000 C 
ATOM      3  N   UNL     1       5.386   6.379  18.126  0.00  0.00    +0.000 N 
ATOM      4  C   UNL     1       4.956   5.234  18.730  0.00  0.00    +0.000 A 
ATOM      5  N   UNL     1       5.608   4.121  18.939  0.00  0.00    +0.000 NA
ATOM      6  N   UNL     1       4.842   3.183  19.585  0.00  0.00    +0.000 NA
ATOM      7  C   UNL     1       3.621   3.622  19.801  0.00  0.00    +0.000 A 
ATOM      8  S   UNL     1       3.345   5.239  19.295  0.00  0.00    +0.000 S 
ATOM      9  H   UNL     1       4.848   7.220  18.262  0.00  0.00    +0.000 HD
ENDROOT
BRANCH   7  10
ATOM     10  C   UNL     1       2.556   2.750  20.458  0.00  0.00    +0.000 C 
ATOM     11  C   UNL     1       2.051   3.140  21.835  0.00  0.00    +0.000 C 
ATOM     12  C   UNL     1       1.177   3.349  20.648  0.00  0.00    +0.000 C 
ENDBRANCH   7  10
BRANCH   2  13
ATOM     13  C   UNL     1       7.321   5.283  16.946  0.00  0.00    +0.000 C 
BRANCH  13  14
ATOM     14  C   UNL     1       6.865   4.724  15.620  0.00  0.00    +0.000 A 
ATOM     15  C   UNL     1       5.758   3.863  15.551  0.00  0.00    +0.000 A 
ATOM     16  C   UNL     1       5.315   3.364  14.326  0.00  0.00    +0.000 A 
ATOM     17  C   UNL     1       5.965   3.737  13.155  0.00  0.00    +0.000 A 
ATOM     18 BR   UNL     1       5.360   3.072  11.493  0.00  0.00    +0.000 Br
ATOM     19  C   UNL     1       7.055   4.604  13.200  0.00  0.00    +0.000 A 
ATOM     20  C   UNL     1       7.504   5.095  14.430  0.00  0.00    +0.000 A 
ENDBRANCH  13  14
ENDBRANCH   2  13
TORSDOF 3
ENDMDL
MODEL 2
REMARK VINA RESULT:      -7.2      0.088      1.109
REMARK  Name = 
REMARK  3 active torsions:
REMARK  status: ('A' for Active; 'I' for Inactive)
REMARK    1  A    between atoms: C_2  and  C_3
REMARK    2  A    between atoms: C_3  and  C_4
REMARK    3  A    between atoms: C_15  and  C_16
REMARK                            x       y       z     vdW  Elec       q    Type
REMARK                         _______ _______ _______ _____ _____    ______ ____
ROOT
ATOM      1  O   UNL     1       6.872   7.736  17.179  0.00  0.00    +0.000 OA
ATOM      2  C   UNL     1       6.512   6.590  17.465  0.00  0.00    +0.000 C 
ATOM      3  N   UNL     1       5.340   6.434  18.152  0.00  0.00    +0.000 N 
ATOM      4  C   UNL     1       4.921   5.275  18.738  0.00  0.00    +0.000 A 
ATOM      5  N   UNL     1       5.585   4.166  18.933  0.00  0.00    +0.000 NA
ATOM      6  N   UNL     1       4.827   3.210  19.561  0.00  0.00    +0.000 NA
ATOM      7  C   UNL     1       3.599   3.632  19.780  0.00  0.00    +0.000 A 
ATOM      8  S   UNL     1       3.308   5.253  19.297  0.00  0.00    +0.000 S 
ATOM      9  H   UNL     1       4.793   7.267  18.299  0.00  0.00    +0.000 HD
ENDROOT
BRANCH   7  10
ATOM     10  C   UNL     1       2.543   2.738  20.419  0.00  0.00    +0.000 C 
ATOM     11  C   UNL     1       2.047   3.087  21.811  0.00  0.00    +0.000 C 
ATOM     12  C   UNL     1       1.163   3.328  20.636  0.00  0.00    +0.000 C 
ENDBRANCH   7  10
BRANCH   2  13
ATOM     13  C   UNL     1       7.291   5.377  16.964  0.00  0.00    +0.000 C 
BRANCH  13  14
ATOM     14  C   UNL     1       6.836   4.823  15.635  0.00  0.00    +0.000 A 
ATOM     15  C   UNL     1       7.569   5.081  14.466  0.00  0.00    +0.000 A 
ATOM     16  C   UNL     1       7.168   4.551  13.239  0.00  0.00    +0.000 A 
ATOM     17  C   UNL     1       6.041   3.740  13.174  0.00  0.00    +0.000 A 
ATOM     18 BR   UNL     1       5.504   3.011  11.516  0.00  0.00    +0.000 Br
ATOM     19  C   UNL     1       5.310   3.457  14.327  0.00  0.00    +0.000 A 
ATOM     20  C   UNL     1       5.707   3.999  15.554  0.00  0.00    +0.000 A 
ENDBRANCH  13  14
ENDBRANCH   2  13
TORSDOF 3
ENDMDL
MODEL 3
REMARK VINA RESULT:      -6.7      4.564      7.058
REMARK  Name = 
REMARK  3 active torsions:
REMARK  status: ('A' for Active; 'I' for Inactive)
REMARK    1  A    between atoms: C_2  and  C_3
REMARK    2  A    between atoms: C_3  and  C_4
REMARK    3  A    between atoms: C_15  and  C_16
REMARK                            x       y       z     vdW  Elec       q    Type
REMARK                         _______ _______ _______ _____ _____    ______ ____
ROOT
ATOM      1  O   UNL     1       0.759   4.367  20.611  0.00  0.00    +0.000 OA
ATOM      2  C   UNL     1       1.799   4.710  20.039  0.00  0.00    +0.000 C 
ATOM      3  N   UNL     1       2.177   4.020  18.920  0.00  0.00    +0.000 N 
ATOM      4  C   UNL     1       3.395   4.116  18.312  0.00  0.00    +0.000 A 
ATOM      5  N   UNL     1       4.482   4.705  18.738  0.00  0.00    +0.000 NA
ATOM      6  N   UNL     1       5.519   4.588  17.847  0.00  0.00    +0.000 NA
ATOM      7  C   UNL     1       5.153   3.944  16.760  0.00  0.00    +0.000 A 
ATOM      8  S   UNL     1       3.535   3.371  16.783  0.00  0.00    +0.000 S 
ATOM      9  H   UNL     1       1.526   3.332  18.577  0.00  0.00    +0.000 HD
ENDROOT
BRANCH   7  10
ATOM     10  C   UNL     1       6.109   3.727  15.592  0.00  0.00    +0.000 C 
ATOM     11  C   UNL     1       5.808   4.419  14.274  0.00  0.00    +0.000 C 
ATOM     12  C   UNL     1       6.926   4.916  15.124  0.00  0.00    +0.000 C 
ENDBRANCH   7  10
BRANCH   2  13
ATOM     13  C   UNL     1       2.577   5.940  20.499  0.00  0.00    +0.000 C 
BRANCH  13  14
ATOM     14  C   UNL     1       1.990   7.266  20.079  0.00  0.00    +0.000 A 
ATOM     15  C   UNL     1       1.253   8.040  20.989  0.00  0.00    +0.000 A 
ATOM     16  C   UNL     1       0.731   9.279  20.616  0.00  0.00    +0.000 A 
ATOM     17  C   UNL     1       0.958   9.764  19.333  0.00  0.00    +0.000 A 
ATOM     18 BR   UNL     1       0.261  11.446  18.829  0.00  0.00    +0.000 Br
ATOM     19  C   UNL     1       1.701   9.018  18.420  0.00  0.00    +0.000 A 
ATOM     20  C   UNL     1       2.215   7.772  18.793  0.00  0.00    +0.000 A 
ENDBRANCH  13  14
ENDBRANCH   2  13
TORSDOF 3
ENDMDL
MODEL 4
REMARK VINA RESULT:      -6.7      3.461      6.498
REMARK  Name = 
REMARK  3 active torsions:
REMARK  status: ('A' for Active; 'I' for Inactive)
REMARK    1  A    between atoms: C_2  and  C_3
REMARK    2  A    between atoms: C_3  and  C_4
REMARK    3  A    between atoms: C_15  and  C_16
REMARK                            x       y       z     vdW  Elec       q    Type
REMARK                         _______ _______ _______ _____ _____    ______ ____
ROOT
ATOM      1  O   UNL     1       7.654   6.783  18.026  0.00  0.00    +0.000 OA
ATOM      2  C   UNL     1       7.317   5.817  17.334  0.00  0.00    +0.000 C 
ATOM      3  N   UNL     1       7.465   5.912  15.978  0.00  0.00    +0.000 N 
ATOM      4  C   UNL     1       6.937   5.044  15.067  0.00  0.00    +0.000 A 
ATOM      5  N   UNL     1       6.063   4.090  15.252  0.00  0.00    +0.000 NA
ATOM      6  N   UNL     1       5.768   3.423  14.090  0.00  0.00    +0.000 NA
ATOM      7  C   UNL     1       6.469   3.882  13.076  0.00  0.00    +0.000 A 
ATOM      8  S   UNL     1       7.486   5.212  13.460  0.00  0.00    +0.000 S 
ATOM      9  H   UNL     1       7.934   6.735  15.635  0.00  0.00    +0.000 HD
ENDROOT
BRANCH   7  10
ATOM     10  C   UNL     1       6.364   3.274  11.682  0.00  0.00    +0.000 C 
ATOM     11  C   UNL     1       7.264   2.102  11.336  0.00  0.00    +0.000 C 
ATOM     12  C   UNL     1       5.813   1.866  11.571  0.00  0.00    +0.000 C 
ENDBRANCH   7  10
BRANCH   2  13
ATOM     13  C   UNL     1       6.858   4.513  17.981  0.00  0.00    +0.000 C 
BRANCH  13  14
ATOM     14  C   UNL     1       5.464   4.538  18.560  0.00  0.00    +0.000 A 
ATOM     15  C   UNL     1       4.894   3.374  19.100  0.00  0.00    +0.000 A 
ATOM     16  C   UNL     1       3.617   3.395  19.660  0.00  0.00    +0.000 A 
ATOM     17  C   UNL     1       2.905   4.588  19.705  0.00  0.00    +0.000 A 
ATOM     18 BR   UNL     1       1.179   4.623  20.474  0.00  0.00    +0.000 Br
ATOM     19  C   UNL     1       3.459   5.759  19.190  0.00  0.00    +0.000 A 
ATOM     20  C   UNL     1       4.735   5.733  18.619  0.00  0.00    +0.000 A 
ENDBRANCH  13  14
ENDBRANCH   2  13
TORSDOF 3
ENDMDL
MODEL 5
REMARK VINA RESULT:      -6.7      3.432      6.518
REMARK  Name = 
REMARK  3 active torsions:
REMARK  status: ('A' for Active; 'I' for Inactive)
REMARK    1  A    between atoms: C_2  and  C_3
REMARK    2  A    between atoms: C_3  and  C_4
REMARK    3  A    between atoms: C_15  and  C_16
REMARK                            x       y       z     vdW  Elec       q    Type
REMARK                         _______ _______ _______ _____ _____    ______ ____
ROOT
ATOM      1  O   UNL     1       7.650   6.778  18.099  0.00  0.00    +0.000 OA
ATOM      2  C   UNL     1       7.325   5.817  17.395  0.00  0.00    +0.000 C 
ATOM      3  N   UNL     1       7.477   5.927  16.041  0.00  0.00    +0.000 N 
ATOM      4  C   UNL     1       6.961   5.064  15.119  0.00  0.00    +0.000 A 
ATOM      5  N   UNL     1       6.095   4.099  15.290  0.00  0.00    +0.000 NA
ATOM      6  N   UNL     1       5.811   3.442  14.120  0.00  0.00    +0.000 NA
ATOM      7  C   UNL     1       6.511   3.920  13.114  0.00  0.00    +0.000 A 
ATOM      8  S   UNL     1       7.513   5.255  13.515  0.00  0.00    +0.000 S 
ATOM      9  H   UNL     1       7.938   6.759  15.709  0.00  0.00    +0.000 HD
ENDROOT
BRANCH   7  10
ATOM     10  C   UNL     1       6.417   3.326  11.713  0.00  0.00    +0.000 C 
ATOM     11  C   UNL     1       7.209   2.068  11.407  0.00  0.00    +0.000 C 
ATOM     12  C   UNL     1       5.730   1.983  11.565  0.00  0.00    +0.000 C 
ENDBRANCH   7  10
BRANCH   2  13
ATOM     13  C   UNL     1       6.876   4.501  18.026  0.00  0.00    +0.000 C 
BRANCH  13  14
ATOM     14  C   UNL     1       5.487   4.511  18.617  0.00  0.00    +0.000 A 
ATOM     15  C   UNL     1       4.664   5.640  18.485  0.00  0.00    +0.000 A 
ATOM     16  C   UNL     1       3.369   5.647  19.005  0.00  0.00    +0.000 A 
ATOM     17  C   UNL     1       2.879   4.516  19.647  0.00  0.00    +0.000 A 
ATOM     18 BR   UNL     1       1.123   4.518  20.343  0.00  0.00    +0.000 Br
ATOM     19  C   UNL     1       3.675   3.378  19.774  0.00  0.00    +0.000 A 
ATOM     20  C   UNL     1       4.976   3.377  19.261  0.00  0.00    +0.000 A 
ENDBRANCH  13  14
ENDBRANCH   2  13
TORSDOF 3
ENDMDL
MODEL 6
REMARK VINA RESULT:      -6.6      4.814      7.224
REMARK  Name = 
REMARK  3 active torsions:
REMARK  status: ('A' for Active; 'I' for Inactive)
REMARK    1  A    between atoms: C_2  and  C_3
REMARK    2  A    between atoms: C_3  and  C_4
REMARK    3  A    between atoms: C_15  and  C_16
REMARK                            x       y       z     vdW  Elec       q    Type
REMARK                         _______ _______ _______ _____ _____    ______ ____
ROOT
ATOM      1  O   UNL     1       1.145   5.157  20.730  0.00  0.00    +0.000 OA
ATOM      2  C   UNL     1       2.094   5.427  19.988  0.00  0.00    +0.000 C 
ATOM      3  N   UNL     1       2.448   4.513  19.034  0.00  0.00    +0.000 N 
ATOM      4  C   UNL     1       3.596   4.549  18.297  0.00  0.00    +0.000 A 
ATOM      5  N   UNL     1       4.649   5.308  18.453  0.00  0.00    +0.000 NA
ATOM      6  N   UNL     1       5.615   5.055  17.513  0.00  0.00    +0.000 NA
ATOM      7  C   UNL     1       5.229   4.134  16.656  0.00  0.00    +0.000 A 
ATOM      8  S   UNL     1       3.684   3.461  16.985  0.00  0.00    +0.000 S 
ATOM      9  H   UNL     1       1.844   3.712  18.935  0.00  0.00    +0.000 HD
ENDROOT
BRANCH   7  10
ATOM     10  C   UNL     1       6.102   3.710  15.481  0.00  0.00    +0.000 C 
ATOM     11  C   UNL     1       5.781   4.264  14.105  0.00  0.00    +0.000 C 
ATOM     12  C   UNL     1       6.975   4.769  14.838  0.00  0.00    +0.000 C 
ENDBRANCH   7  10
BRANCH   2  13
ATOM     13  C   UNL     1       2.779   6.789  20.056  0.00  0.00    +0.000 C 
BRANCH  13  14
ATOM     14  C   UNL     1       1.905   7.967  19.697  0.00  0.00    +0.000 A 
ATOM     15  C   UNL     1       1.836   8.426  18.372  0.00  0.00    +0.000 A 
ATOM     16  C   UNL     1       1.010   9.497  18.028  0.00  0.00    +0.000 A 
ATOM     17  C   UNL     1       0.231  10.107  19.005  0.00  0.00    +0.000 A 
ATOM     18 BR   UNL     1      -0.897  11.550  18.540  0.00  0.00    +0.000 Br
ATOM     19  C   UNL     1       0.273   9.655  20.322  0.00  0.00    +0.000 A 
ATOM     20  C   UNL     1       1.109   8.588  20.667  0.00  0.00    +0.000 A 
ENDBRANCH  13  14
ENDBRANCH   2  13
TORSDOF 3
ENDMDL
MODEL 7
REMARK VINA RESULT:      -6.4      3.245      4.108
REMARK  Name = 
REMARK  3 active torsions:
REMARK  status: ('A' for Active; 'I' for Inactive)
REMARK    1  A    between atoms: C_2  and  C_3
REMARK    2  A    between atoms: C_3  and  C_4
REMARK    3  A    between atoms: C_15  and  C_16
REMARK                            x       y       z     vdW  Elec       q    Type
REMARK                         _______ _______ _______ _____ _____    ______ ____
ROOT
ATOM      1  O   UNL     1       5.001   3.357  19.622  0.00  0.00    +0.000 OA
ATOM      2  C   UNL     1       4.884   4.503  19.175  0.00  0.00    +0.000 C 
ATOM      3  N   UNL     1       3.766   5.216  19.511  0.00  0.00    +0.000 N 
ATOM      4  C   UNL     1       3.375   6.386  18.928  0.00  0.00    +0.000 A 
ATOM      5  N   UNL     1       3.841   6.963  17.851  0.00  0.00    +0.000 NA
ATOM      6  N   UNL     1       3.191   8.138  17.569  0.00  0.00    +0.000 NA
ATOM      7  C   UNL     1       2.280   8.417  18.477  0.00  0.00    +0.000 A 
ATOM      8  S   UNL     1       2.106   7.226  19.700  0.00  0.00    +0.000 S 
ATOM      9  H   UNL     1       3.151   4.792  20.187  0.00  0.00    +0.000 HD
ENDROOT
BRANCH   7  10
ATOM     10  C   UNL     1       1.453   9.697  18.420  0.00  0.00    +0.000 C 
ATOM     11  C   UNL     1       0.001   9.601  17.989  0.00  0.00    +0.000 C 
ATOM     12  C   UNL     1       0.325   9.848  19.421  0.00  0.00    +0.000 C 
ENDBRANCH   7  10
BRANCH   2  13
ATOM     13  C   UNL     1       6.007   5.146  18.365  0.00  0.00    +0.000 C 
BRANCH  13  14
ATOM     14  C   UNL     1       6.043   4.770  16.904  0.00  0.00    +0.000 A 
ATOM     15  C   UNL     1       7.080   5.228  16.074  0.00  0.00    +0.000 A 
ATOM     16  C   UNL     1       7.134   4.863  14.729  0.00  0.00    +0.000 A 
ATOM     17  C   UNL     1       6.162   4.019  14.205  0.00  0.00    +0.000 A 
ATOM     18 BR   UNL     1       6.240   3.514  12.386  0.00  0.00    +0.000 Br
ATOM     19  C   UNL     1       5.134   3.539  15.015  0.00  0.00    +0.000 A 
ATOM     20  C   UNL     1       5.075   3.915  16.361  0.00  0.00    +0.000 A 
ENDBRANCH  13  14
ENDBRANCH   2  13
TORSDOF 3
ENDMDL
MODEL 8
REMARK VINA RESULT:      -6.4      3.395      4.128
REMARK  Name = 
REMARK  3 active torsions:
REMARK  status: ('A' for Active; 'I' for Inactive)
REMARK    1  A    between atoms: C_2  and  C_3
REMARK    2  A    between atoms: C_3  and  C_4
REMARK    3  A    between atoms: C_15  and  C_16
REMARK                            x       y       z     vdW  Elec       q    Type
REMARK                         _______ _______ _______ _____ _____    ______ ____
ROOT
ATOM      1  O   UNL     1       5.266   3.886  19.578  0.00  0.00    +0.000 OA
ATOM      2  C   UNL     1       4.952   4.996  19.134  0.00  0.00    +0.000 C 
ATOM      3  N   UNL     1       3.805   5.576  19.600  0.00  0.00    +0.000 N 
ATOM      4  C   UNL     1       3.202   6.672  19.057  0.00  0.00    +0.000 A 
ATOM      5  N   UNL     1       3.454   7.272  17.923  0.00  0.00    +0.000 NA
ATOM      6  N   UNL     1       2.632   8.350  17.711  0.00  0.00    +0.000 NA
ATOM      7  C   UNL     1       1.813   8.541  18.723  0.00  0.00    +0.000 A 
ATOM      8  S   UNL     1       1.942   7.371  19.973  0.00  0.00    +0.000 S 
ATOM      9  H   UNL     1       3.336   5.099  20.354  0.00  0.00    +0.000 HD
ENDROOT
BRANCH   7  10
ATOM     10  C   UNL     1       0.833   9.708  18.756  0.00  0.00    +0.000 C 
ATOM     11  C   UNL     1       0.835  10.619  19.970  0.00  0.00    +0.000 C 
ATOM     12  C   UNL     1       1.406  11.109  18.685  0.00  0.00    +0.000 C 
ENDBRANCH   7  10
BRANCH   2  13
ATOM     13  C   UNL     1       5.877   5.749  18.182  0.00  0.00    +0.000 C 
BRANCH  13  14
ATOM     14  C   UNL     1       5.978   5.170  16.791  0.00  0.00    +0.000 A 
ATOM     15  C   UNL     1       4.891   4.488  16.222  0.00  0.00    +0.000 A 
ATOM     16  C   UNL     1       4.969   3.973  14.927  0.00  0.00    +0.000 A 
ATOM     17  C   UNL     1       6.128   4.153  14.183  0.00  0.00    +0.000 A 
ATOM     18 BR   UNL     1       6.231   3.467  12.425  0.00  0.00    +0.000 Br
ATOM     19  C   UNL     1       7.212   4.842  14.723  0.00  0.00    +0.000 A 
ATOM     20  C   UNL     1       7.137   5.348  16.025  0.00  0.00    +0.000 A 
ENDBRANCH  13  14
ENDBRANCH   2  13
TORSDOF 3
ENDMDL
MODEL 9
REMARK VINA RESULT:      -6.4      5.704      7.849
REMARK  Name = 
REMARK  3 active torsions:
REMARK  status: ('A' for Active; 'I' for Inactive)
REMARK    1  A    between atoms: C_2  and  C_3
REMARK    2  A    between atoms: C_3  and  C_4
REMARK    3  A    between atoms: C_15  and  C_16
REMARK                            x       y       z     vdW  Elec       q    Type
REMARK                         _______ _______ _______ _____ _____    ______ ____
ROOT
ATOM      1  O   UNL     1       1.813   7.809  20.151  0.00  0.00    +0.000 OA
ATOM      2  C   UNL     1       2.333   7.592  19.052  0.00  0.00    +0.000 C 
ATOM      3  N   UNL     1       3.110   6.475  18.914  0.00  0.00    +0.000 N 
ATOM      4  C   UNL     1       3.930   6.213  17.856  0.00  0.00    +0.000 A 
ATOM      5  N   UNL     1       4.290   7.006  16.880  0.00  0.00    +0.000 NA
ATOM      6  N   UNL     1       5.135   6.387  15.993  0.00  0.00    +0.000 NA
ATOM      7  C   UNL     1       5.345   5.130  16.322  0.00  0.00    +0.000 A 
ATOM      8  S   UNL     1       4.583   4.638  17.779  0.00  0.00    +0.000 S 
ATOM      9  H   UNL     1       3.130   5.844  19.699  0.00  0.00    +0.000 HD
ENDROOT
BRANCH   7  10
ATOM     10  C   UNL     1       6.208   4.208  15.467  0.00  0.00    +0.000 C 
ATOM     11  C   UNL     1       5.782   3.944  14.034  0.00  0.00    +0.000 C 
ATOM     12  C   UNL     1       6.953   4.826  14.300  0.00  0.00    +0.000 C 
ENDBRANCH   7  10
BRANCH   2  13
ATOM     13  C   UNL     1       2.024   8.482  17.850  0.00  0.00    +0.000 C 
BRANCH  13  14
ATOM     14  C   UNL     1       1.439   9.833  18.184  0.00  0.00    +0.000 A 
ATOM     15  C   UNL     1       2.266  10.964  18.280  0.00  0.00    +0.000 A 
ATOM     16  C   UNL     1       1.729  12.221  18.562  0.00  0.00    +0.000 A 
ATOM     17  C   UNL     1       0.357  12.361  18.731  0.00  0.00    +0.000 A 
ATOM     18 BR   UNL     1      -0.374  14.064  19.101  0.00  0.00    +0.000 Br
ATOM     19  C   UNL     1      -0.483  11.254  18.622  0.00  0.00    +0.000 A 
ATOM     20  C   UNL     1       0.058   9.993  18.350  0.00  0.00    +0.000 A 
ENDBRANCH  13  14
ENDBRANCH   2  13
TORSDOF 3
ENDMDL
