MODEL 1
REMARK VINA RESULT:      -8.1      0.000      0.000
REMARK  Name = 
REMARK  8 active torsions:
REMARK  status: ('A' for Active; 'I' for Inactive)
REMARK    1  A    between atoms: C_1  and  C_2
REMARK    2  A    between atoms: C_5  and  N_6
REMARK    3  A    between atoms: C_7  and  C_9
REMARK    4  A    between atoms: C_9  and  C_11
REMARK    5  A    between atoms: C_11  and  C_12
REMARK    6  A    between atoms: C_11  and  C_14
REMARK    7  A    between atoms: C_19  and  C_20
REMARK    8  A    between atoms: C_22  and  C_23
REMARK                            x       y       z     vdW  Elec       q    Type
REMARK                         _______ _______ _______ _____ _____    ______ ____
ROOT
ATOM      1  N   UNL     1       2.283   5.750  20.918  0.00  0.00    +0.000 N 
ATOM      2  C   UNL     1       1.679   4.523  20.687  0.00  0.00    +0.000 C 
ATOM      3  O   UNL     1       0.582   4.276  20.210  0.00  0.00    +0.000 OA
ATOM      4  H   UNL     1       3.203   5.741  21.343  0.00  0.00    +0.000 HD
ENDROOT
BRANCH   1   9
ATOM      5  C   UNL     1       0.211  10.947  19.564  0.00  0.00    +0.000 C 
ATOM      6  C   UNL     1       0.755   9.582  19.894  0.00  0.00    +0.000 A 
ATOM      7  C   UNL     1       0.412   8.985  21.114  0.00  0.00    +0.000 A 
ATOM      8  C   UNL     1       0.913   7.729  21.473  0.00  0.00    +0.000 A 
ATOM      9  C   UNL     1       1.751   7.026  20.612  0.00  0.00    +0.000 A 
ATOM     10  C   UNL     1       2.078   7.608  19.375  0.00  0.00    +0.000 A 
ATOM     11  C   UNL     1       1.611   8.891  19.017  0.00  0.00    +0.000 A 
ATOM     12  C   UNL     1       2.048   9.517  17.718  0.00  0.00    +0.000 C 
ENDBRANCH   1   9
BRANCH   2  13
ATOM     13  C   UNL     1       2.540   3.339  21.105  0.00  0.00    +0.000 C 
ATOM     14  O   UNL     1       2.407   2.937  22.261  0.00  0.00    +0.000 OA
BRANCH  13  15
ATOM     15  C   UNL     1       3.482   2.714  20.080  0.00  0.00    +0.000 C 
BRANCH  15  16
ATOM     16  C   UNL     1       4.085   3.751  19.115  0.00  0.00    +0.000 A 
ATOM     17  C   UNL     1       5.246   4.456  19.490  0.00  0.00    +0.000 A 
ATOM     18  C   UNL     1       5.811   5.429  18.668  0.00  0.00    +0.000 A 
ATOM     19  C   UNL     1       5.240   5.708  17.435  0.00  0.00    +0.000 A 
ATOM     20  C   UNL     1       4.129   4.986  17.011  0.00  0.00    +0.000 A 
ATOM     21  C   UNL     1       3.548   3.991  17.822  0.00  0.00    +0.000 A 
ATOM     22  C   UNL     1       2.404   3.203  17.242  0.00  0.00    +0.000 C 
ENDBRANCH  15  16
BRANCH  15  23
ATOM     23  C   UNL     1       4.557   1.924  20.702  0.00  0.00    +0.000 C 
ATOM     24  N   UNL     1       5.420   1.330  21.200  0.00  0.00    +0.000 NA
ENDBRANCH  15  23
ENDBRANCH  13  15
ENDBRANCH   2  13
TORSDOF 5
ENDMDL
MODEL 2
REMARK VINA RESULT:      -8.1      0.649      1.459
REMARK  Name = 
REMARK  8 active torsions:
REMARK  status: ('A' for Active; 'I' for Inactive)
REMARK    1  A    between atoms: C_1  and  C_2
REMARK    2  A    between atoms: C_5  and  N_6
REMARK    3  A    between atoms: C_7  and  C_9
REMARK    4  A    between atoms: C_9  and  C_11
REMARK    5  A    between atoms: C_11  and  C_12
REMARK    6  A    between atoms: C_11  and  C_14
REMARK    7  A    between atoms: C_19  and  C_20
REMARK    8  A    between atoms: C_22  and  C_23
REMARK                            x       y       z     vdW  Elec       q    Type
REMARK                         _______ _______ _______ _____ _____    ______ ____
ROOT
ATOM      1  N   UNL     1       2.619   5.643  20.467  0.00  0.00    +0.000 N 
ATOM      2  C   UNL     1       1.879   4.471  20.511  0.00  0.00    +0.000 C 
ATOM      3  O   UNL     1       0.724   4.270  20.171  0.00  0.00    +0.000 OA
ATOM      4  H   UNL     1       3.570   5.604  20.814  0.00  0.00    +0.000 HD
ENDROOT
BRANCH   1   9
ATOM      5  C   UNL     1       0.778  10.759  18.574  0.00  0.00    +0.000 C 
ATOM      6  C   UNL     1       1.260   9.429  19.093  0.00  0.00    +0.000 A 
ATOM      7  C   UNL     1       1.996   8.590  18.246  0.00  0.00    +0.000 A 
ATOM      8  C   UNL     1       2.443   7.336  18.677  0.00  0.00    +0.000 A 
ATOM      9  C   UNL     1       2.187   6.898  19.974  0.00  0.00    +0.000 A 
ATOM     10  C   UNL     1       1.472   7.746  20.837  0.00  0.00    +0.000 A 
ATOM     11  C   UNL     1       0.982   8.997  20.403  0.00  0.00    +0.000 A 
ATOM     12  C   UNL     1       0.148   9.843  21.329  0.00  0.00    +0.000 C 
ENDBRANCH   1   9
BRANCH   2  13
ATOM     13  C   UNL     1       2.657   3.288  21.071  0.00  0.00    +0.000 C 
ATOM     14  O   UNL     1       2.478   3.018  22.258  0.00  0.00    +0.000 OA
BRANCH  13  15
ATOM     15  C   UNL     1       3.578   2.504  20.140  0.00  0.00    +0.000 C 
BRANCH  15  16
ATOM     16  C   UNL     1       4.169   3.373  19.015  0.00  0.00    +0.000 A 
ATOM     17  C   UNL     1       5.352   4.102  19.249  0.00  0.00    +0.000 A 
ATOM     18  C   UNL     1       5.908   4.931  18.276  0.00  0.00    +0.000 A 
ATOM     19  C   UNL     1       5.306   5.035  17.032  0.00  0.00    +0.000 A 
ATOM     20  C   UNL     1       4.171   4.281  16.750  0.00  0.00    +0.000 A 
ATOM     21  C   UNL     1       3.598   3.429  17.716  0.00  0.00    +0.000 A 
ATOM     22  C   UNL     1       2.424   2.587  17.291  0.00  0.00    +0.000 C 
ENDBRANCH  15  16
BRANCH  15  23
ATOM     23  C   UNL     1       4.661   1.813  20.860  0.00  0.00    +0.000 C 
ATOM     24  N   UNL     1       5.522   1.253  21.399  0.00  0.00    +0.000 NA
ENDBRANCH  15  23
ENDBRANCH  13  15
ENDBRANCH   2  13
TORSDOF 5
ENDMDL
MODEL 3
REMARK VINA RESULT:      -7.7      2.498      3.932
REMARK  Name = 
REMARK  8 active torsions:
REMARK  status: ('A' for Active; 'I' for Inactive)
REMARK    1  A    between atoms: C_1  and  C_2
REMARK    2  A    between atoms: C_5  and  N_6
REMARK    3  A    between atoms: C_7  and  C_9
REMARK    4  A    between atoms: C_9  and  C_11
REMARK    5  A    between atoms: C_11  and  C_12
REMARK    6  A    between atoms: C_11  and  C_14
REMARK    7  A    between atoms: C_19  and  C_20
REMARK    8  A    between atoms: C_22  and  C_23
REMARK                            x       y       z     vdW  Elec       q    Type
REMARK                         _______ _______ _______ _____ _____    ______ ____
ROOT
ATOM      1  N   UNL     1       2.219   7.813  19.395  0.00  0.00    +0.000 N 
ATOM      2  C   UNL     1       2.772   7.786  18.123  0.00  0.00    +0.000 C 
ATOM      3  O   UNL     1       2.603   8.553  17.188  0.00  0.00    +0.000 OA
ATOM      4  H   UNL     1       2.480   7.066  20.029  0.00  0.00    +0.000 HD
ENDROOT
BRANCH   1   9
ATOM      5  C   UNL     1      -1.408  11.695  21.611  0.00  0.00    +0.000 C 
ATOM      6  C   UNL     1      -0.448  10.677  21.053  0.00  0.00    +0.000 A 
ATOM      7  C   UNL     1      -0.136  10.706  19.688  0.00  0.00    +0.000 A 
ATOM      8  C   UNL     1       0.732   9.765  19.122  0.00  0.00    +0.000 A 
ATOM      9  C   UNL     1       1.329   8.786  19.911  0.00  0.00    +0.000 A 
ATOM     10  C   UNL     1       1.041   8.767  21.286  0.00  0.00    +0.000 A 
ATOM     11  C   UNL     1       0.137   9.686  21.862  0.00  0.00    +0.000 A 
ATOM     12  C   UNL     1      -0.211   9.585  23.325  0.00  0.00    +0.000 C 
ENDBRANCH   1   9
BRANCH   2  13
ATOM     13  C   UNL     1       3.721   6.616  17.902  0.00  0.00    +0.000 C 
ATOM     14  O   UNL     1       4.303   6.571  16.820  0.00  0.00    +0.000 OA
BRANCH  13  15
ATOM     15  C   UNL     1       3.910   5.599  19.025  0.00  0.00    +0.000 C 
BRANCH  15  16
ATOM     16  C   UNL     1       2.966   4.390  18.900  0.00  0.00    +0.000 A 
ATOM     17  C   UNL     1       3.159   3.463  17.855  0.00  0.00    +0.000 A 
ATOM     18  C   UNL     1       2.311   2.372  17.678  0.00  0.00    +0.000 A 
ATOM     19  C   UNL     1       1.258   2.165  18.555  0.00  0.00    +0.000 A 
ATOM     20  C   UNL     1       1.078   3.029  19.631  0.00  0.00    +0.000 A 
ATOM     21  C   UNL     1       1.930   4.133  19.836  0.00  0.00    +0.000 A 
ATOM     22  C   UNL     1       1.711   4.959  21.076  0.00  0.00    +0.000 C 
ENDBRANCH  15  16
BRANCH  15  23
ATOM     23  C   UNL     1       5.303   5.137  19.145  0.00  0.00    +0.000 C 
ATOM     24  N   UNL     1       6.402   4.772  19.207  0.00  0.00    +0.000 NA
ENDBRANCH  15  23
ENDBRANCH  13  15
ENDBRANCH   2  13
TORSDOF 5
ENDMDL
MODEL 4
REMARK VINA RESULT:      -7.4      3.786      6.256
REMARK  Name = 
REMARK  8 active torsions:
REMARK  status: ('A' for Active; 'I' for Inactive)
REMARK    1  A    between atoms: C_1  and  C_2
REMARK    2  A    between atoms: C_5  and  N_6
REMARK    3  A    between atoms: C_7  and  C_9
REMARK    4  A    between atoms: C_9  and  C_11
REMARK    5  A    between atoms: C_11  and  C_12
REMARK    6  A    between atoms: C_11  and  C_14
REMARK    7  A    between atoms: C_19  and  C_20
REMARK    8  A    between atoms: C_22  and  C_23
REMARK                            x       y       z     vdW  Elec       q    Type
REMARK                         _______ _______ _______ _____ _____    ______ ____
ROOT
ATOM      1  N   UNL     1       5.225   3.910  17.833  0.00  0.00    +0.000 N 
ATOM      2  C   UNL     1       6.418   4.584  18.048  0.00  0.00    +0.000 C 
ATOM      3  O   UNL     1       6.861   5.065  19.079  0.00  0.00    +0.000 OA
ATOM      4  H   UNL     1       5.033   3.599  16.887  0.00  0.00    +0.000 HD
ENDROOT
BRANCH   1   9
ATOM      5  C   UNL     1       1.213   2.772  21.801  0.00  0.00    +0.000 C 
ATOM      6  C   UNL     1       2.249   3.089  20.754  0.00  0.00    +0.000 A 
ATOM      7  C   UNL     1       3.075   2.063  20.277  0.00  0.00    +0.000 A 
ATOM      8  C   UNL     1       4.068   2.316  19.322  0.00  0.00    +0.000 A 
ATOM      9  C   UNL     1       4.243   3.596  18.803  0.00  0.00    +0.000 A 
ATOM     10  C   UNL     1       3.400   4.624  19.259  0.00  0.00    +0.000 A 
ATOM     11  C   UNL     1       2.422   4.391  20.249  0.00  0.00    +0.000 A 
ATOM     12  C   UNL     1       1.592   5.534  20.773  0.00  0.00    +0.000 C 
ENDBRANCH   1   9
BRANCH   2  13
ATOM     13  C   UNL     1       7.266   4.726  16.792  0.00  0.00    +0.000 C 
ATOM     14  O   UNL     1       8.317   4.086  16.757  0.00  0.00    +0.000 OA
BRANCH  13  15
ATOM     15  C   UNL     1       6.764   5.618  15.660  0.00  0.00    +0.000 C 
BRANCH  15  16
ATOM     16  C   UNL     1       6.540   4.847  14.347  0.00  0.00    +0.000 A 
ATOM     17  C   UNL     1       5.373   4.073  14.186  0.00  0.00    +0.000 A 
ATOM     18  C   UNL     1       5.141   3.328  13.031  0.00  0.00    +0.000 A 
ATOM     19  C   UNL     1       6.061   3.355  11.995  0.00  0.00    +0.000 A 
ATOM     20  C   UNL     1       7.193   4.157  12.100  0.00  0.00    +0.000 A 
ATOM     21  C   UNL     1       7.443   4.926  13.254  0.00  0.00    +0.000 A 
ATOM     22  C   UNL     1       8.648   5.829  13.239  0.00  0.00    +0.000 C 
ENDBRANCH  15  16
BRANCH  15  23
ATOM     23  C   UNL     1       5.543   6.359  16.019  0.00  0.00    +0.000 C 
ATOM     24  N   UNL     1       4.599   6.962  16.321  0.00  0.00    +0.000 NA
ENDBRANCH  15  23
ENDBRANCH  13  15
ENDBRANCH   2  13
TORSDOF 5
ENDMDL
MODEL 5
REMARK VINA RESULT:      -7.3      1.630      2.661
REMARK  Name = 
REMARK  8 active torsions:
REMARK  status: ('A' for Active; 'I' for Inactive)
REMARK    1  A    between atoms: C_1  and  C_2
REMARK    2  A    between atoms: C_5  and  N_6
REMARK    3  A    between atoms: C_7  and  C_9
REMARK    4  A    between atoms: C_9  and  C_11
REMARK    5  A    between atoms: C_11  and  C_12
REMARK    6  A    between atoms: C_11  and  C_14
REMARK    7  A    between atoms: C_19  and  C_20
REMARK    8  A    between atoms: C_22  and  C_23
REMARK                            x       y       z     vdW  Elec       q    Type
REMARK                         _______ _______ _______ _____ _____    ______ ____
ROOT
ATOM      1  N   UNL     1       2.669   6.100  18.011  0.00  0.00    +0.000 N 
ATOM      2  C   UNL     1       2.353   4.839  18.494  0.00  0.00    +0.000 C 
ATOM      3  O   UNL     1       1.655   4.525  19.446  0.00  0.00    +0.000 OA
ATOM      4  H   UNL     1       3.285   6.148  17.208  0.00  0.00    +0.000 HD
ENDROOT
BRANCH   1   9
ATOM      5  C   UNL     1       0.769  11.076  20.195  0.00  0.00    +0.000 C 
ATOM      6  C   UNL     1       1.276   9.768  19.646  0.00  0.00    +0.000 A 
ATOM      7  C   UNL     1       1.533   9.657  18.273  0.00  0.00    +0.000 A 
ATOM      8  C   UNL     1       1.982   8.454  17.715  0.00  0.00    +0.000 A 
ATOM      9  C   UNL     1       2.209   7.340  18.518  0.00  0.00    +0.000 A 
ATOM     10  C   UNL     1       1.979   7.454  19.900  0.00  0.00    +0.000 A 
ATOM     11  C   UNL     1       1.489   8.648  20.470  0.00  0.00    +0.000 A 
ATOM     12  C   UNL     1       1.175   8.708  21.942  0.00  0.00    +0.000 C 
ENDBRANCH   1   9
BRANCH   2  13
ATOM     13  C   UNL     1       2.989   3.710  17.695  0.00  0.00    +0.000 C 
ATOM     14  O   UNL     1       2.329   3.247  16.766  0.00  0.00    +0.000 OA
BRANCH  13  15
ATOM     15  C   UNL     1       4.394   3.244  18.069  0.00  0.00    +0.000 C 
BRANCH  15  16
ATOM     16  C   UNL     1       5.456   4.343  17.885  0.00  0.00    +0.000 A 
ATOM     17  C   UNL     1       6.011   4.970  19.019  0.00  0.00    +0.000 A 
ATOM     18  C   UNL     1       6.948   5.994  18.906  0.00  0.00    +0.000 A 
ATOM     19  C   UNL     1       7.375   6.404  17.652  0.00  0.00    +0.000 A 
ATOM     20  C   UNL     1       6.892   5.764  16.516  0.00  0.00    +0.000 A 
ATOM     21  C   UNL     1       5.950   4.719  16.608  0.00  0.00    +0.000 A 
ATOM     22  C   UNL     1       5.553   4.028  15.330  0.00  0.00    +0.000 C 
ENDBRANCH  15  16
BRANCH  15  23
ATOM     23  C   UNL     1       4.468   2.700  19.435  0.00  0.00    +0.000 C 
ATOM     24  N   UNL     1       4.544   2.246  20.500  0.00  0.00    +0.000 NA
ENDBRANCH  15  23
ENDBRANCH  13  15
ENDBRANCH   2  13
TORSDOF 5
ENDMDL
MODEL 6
REMARK VINA RESULT:      -7.3      2.470      3.704
REMARK  Name = 
REMARK  8 active torsions:
REMARK  status: ('A' for Active; 'I' for Inactive)
REMARK    1  A    between atoms: C_1  and  C_2
REMARK    2  A    between atoms: C_5  and  N_6
REMARK    3  A    between atoms: C_7  and  C_9
REMARK    4  A    between atoms: C_9  and  C_11
REMARK    5  A    between atoms: C_11  and  C_12
REMARK    6  A    between atoms: C_11  and  C_14
REMARK    7  A    between atoms: C_19  and  C_20
REMARK    8  A    between atoms: C_22  and  C_23
REMARK                            x       y       z     vdW  Elec       q    Type
REMARK                         _______ _______ _______ _____ _____    ______ ____
ROOT
ATOM      1  N   UNL     1       2.215   7.764  19.645  0.00  0.00    +0.000 N 
ATOM      2  C   UNL     1       2.679   7.808  18.338  0.00  0.00    +0.000 C 
ATOM      3  O   UNL     1       2.427   8.610  17.453  0.00  0.00    +0.000 OA
ATOM      4  H   UNL     1       2.536   6.997  20.225  0.00  0.00    +0.000 HD
ENDROOT
BRANCH   1   9
ATOM      5  C   UNL     1      -1.344  11.601  22.042  0.00  0.00    +0.000 C 
ATOM      6  C   UNL     1      -0.426  10.598  21.393  0.00  0.00    +0.000 A 
ATOM      7  C   UNL     1       0.253   9.673  22.197  0.00  0.00    +0.000 A 
ATOM      8  C   UNL     1       1.135   8.739  21.640  0.00  0.00    +0.000 A 
ATOM      9  C   UNL     1       1.341   8.690  20.264  0.00  0.00    +0.000 A 
ATOM     10  C   UNL     1       0.643   9.598  19.451  0.00  0.00    +0.000 A 
ATOM     11  C   UNL     1      -0.219  10.571  20.002  0.00  0.00    +0.000 A 
ATOM     12  C   UNL     1      -0.887  11.581  19.107  0.00  0.00    +0.000 C 
ENDBRANCH   1   9
BRANCH   2  13
ATOM     13  C   UNL     1       3.637   6.674  18.000  0.00  0.00    +0.000 C 
ATOM     14  O   UNL     1       4.146   6.694  16.880  0.00  0.00    +0.000 OA
BRANCH  13  15
ATOM     15  C   UNL     1       3.923   5.611  19.057  0.00  0.00    +0.000 C 
BRANCH  15  16
ATOM     16  C   UNL     1       3.023   4.371  18.916  0.00  0.00    +0.000 A 
ATOM     17  C   UNL     1       3.187   3.515  17.808  0.00  0.00    +0.000 A 
ATOM     18  C   UNL     1       2.374   2.400  17.616  0.00  0.00    +0.000 A 
ATOM     19  C   UNL     1       1.386   2.097  18.541  0.00  0.00    +0.000 A 
ATOM     20  C   UNL     1       1.240   2.889  19.676  0.00  0.00    +0.000 A 
ATOM     21  C   UNL     1       2.058   4.015  19.895  0.00  0.00    +0.000 A 
ATOM     22  C   UNL     1       1.883   4.758  21.193  0.00  0.00    +0.000 C 
ENDBRANCH  15  16
BRANCH  15  23
ATOM     23  C   UNL     1       5.338   5.202  19.084  0.00  0.00    +0.000 C 
ATOM     24  N   UNL     1       6.458   4.903  19.083  0.00  0.00    +0.000 NA
ENDBRANCH  15  23
ENDBRANCH  13  15
ENDBRANCH   2  13
TORSDOF 5
ENDMDL
MODEL 7
REMARK VINA RESULT:      -7.3      1.918      3.141
REMARK  Name = 
REMARK  8 active torsions:
REMARK  status: ('A' for Active; 'I' for Inactive)
REMARK    1  A    between atoms: C_1  and  C_2
REMARK    2  A    between atoms: C_5  and  N_6
REMARK    3  A    between atoms: C_7  and  C_9
REMARK    4  A    between atoms: C_9  and  C_11
REMARK    5  A    between atoms: C_11  and  C_12
REMARK    6  A    between atoms: C_11  and  C_14
REMARK    7  A    between atoms: C_19  and  C_20
REMARK    8  A    between atoms: C_22  and  C_23
REMARK                            x       y       z     vdW  Elec       q    Type
REMARK                         _______ _______ _______ _____ _____    ______ ____
ROOT
ATOM      1  N   UNL     1       1.864   7.464  20.408  0.00  0.00    +0.000 N 
ATOM      2  C   UNL     1       2.331   6.899  19.230  0.00  0.00    +0.000 C 
ATOM      3  O   UNL     1       2.241   7.311  18.084  0.00  0.00    +0.000 OA
ATOM      4  H   UNL     1       2.029   6.950  21.266  0.00  0.00    +0.000 HD
ENDROOT
BRANCH   1   9
ATOM      5  C   UNL     1      -0.958  12.437  21.073  0.00  0.00    +0.000 C 
ATOM      6  C   UNL     1      -0.216  11.134  20.924  0.00  0.00    +0.000 A 
ATOM      7  C   UNL     1       0.465  10.868  19.729  0.00  0.00    +0.000 A 
ATOM      8  C   UNL     1       1.147   9.660  19.537  0.00  0.00    +0.000 A 
ATOM      9  C   UNL     1       1.186   8.699  20.543  0.00  0.00    +0.000 A 
ATOM     10  C   UNL     1       0.527   8.972  21.754  0.00  0.00    +0.000 A 
ATOM     11  C   UNL     1      -0.197  10.169  21.946  0.00  0.00    +0.000 A 
ATOM     12  C   UNL     1      -0.960  10.391  23.226  0.00  0.00    +0.000 C 
ENDBRANCH   1   9
BRANCH   2  13
ATOM     13  C   UNL     1       3.050   5.574  19.441  0.00  0.00    +0.000 C 
ATOM     14  O   UNL     1       2.884   5.019  20.526  0.00  0.00    +0.000 OA
BRANCH  13  15
ATOM     15  C   UNL     1       3.900   5.009  18.306  0.00  0.00    +0.000 C 
BRANCH  15  16
ATOM     16  C   UNL     1       5.332   5.574  18.294  0.00  0.00    +0.000 A 
ATOM     17  C   UNL     1       6.215   5.252  19.345  0.00  0.00    +0.000 A 
ATOM     18  C   UNL     1       7.509   5.767  19.399  0.00  0.00    +0.000 A 
ATOM     19  C   UNL     1       7.963   6.602  18.390  0.00  0.00    +0.000 A 
ATOM     20  C   UNL     1       7.136   6.889  17.309  0.00  0.00    +0.000 A 
ATOM     21  C   UNL     1       5.827   6.371  17.229  0.00  0.00    +0.000 A 
ATOM     22  C   UNL     1       5.039   6.665  15.979  0.00  0.00    +0.000 C 
ENDBRANCH  15  16
BRANCH  15  23
ATOM     23  C   UNL     1       3.944   3.537  18.306  0.00  0.00    +0.000 C 
ATOM     24  N   UNL     1       3.999   2.378  18.281  0.00  0.00    +0.000 NA
ENDBRANCH  15  23
ENDBRANCH  13  15
ENDBRANCH   2  13
TORSDOF 5
ENDMDL
MODEL 8
REMARK VINA RESULT:      -7.2      1.314      2.104
REMARK  Name = 
REMARK  8 active torsions:
REMARK  status: ('A' for Active; 'I' for Inactive)
REMARK    1  A    between atoms: C_1  and  C_2
REMARK    2  A    between atoms: C_5  and  N_6
REMARK    3  A    between atoms: C_7  and  C_9
REMARK    4  A    between atoms: C_9  and  C_11
REMARK    5  A    between atoms: C_11  and  C_12
REMARK    6  A    between atoms: C_11  and  C_14
REMARK    7  A    between atoms: C_19  and  C_20
REMARK    8  A    between atoms: C_22  and  C_23
REMARK                            x       y       z     vdW  Elec       q    Type
REMARK                         _______ _______ _______ _____ _____    ______ ____
ROOT
ATOM      1  N   UNL     1       2.481   6.637  19.989  0.00  0.00    +0.000 N 
ATOM      2  C   UNL     1       2.411   5.477  19.231  0.00  0.00    +0.000 C 
ATOM      3  O   UNL     1       1.899   5.296  18.138  0.00  0.00    +0.000 OA
ATOM      4  H   UNL     1       2.942   6.575  20.890  0.00  0.00    +0.000 HD
ENDROOT
BRANCH   1   9
ATOM      5  C   UNL     1       0.369  11.822  18.649  0.00  0.00    +0.000 C 
ATOM      6  C   UNL     1       0.921  10.472  19.024  0.00  0.00    +0.000 A 
ATOM      7  C   UNL     1       1.683   9.760  18.087  0.00  0.00    +0.000 A 
ATOM      8  C   UNL     1       2.196   8.492  18.383  0.00  0.00    +0.000 A 
ATOM      9  C   UNL     1       1.982   7.913  19.632  0.00  0.00    +0.000 A 
ATOM     10  C   UNL     1       1.241   8.633  20.584  0.00  0.00    +0.000 A 
ATOM     11  C   UNL     1       0.685   9.896  20.286  0.00  0.00    +0.000 A 
ATOM     12  C   UNL     1      -0.172  10.602  21.303  0.00  0.00    +0.000 C 
ENDBRANCH   1   9
BRANCH   2  13
ATOM     13  C   UNL     1       3.079   4.282  19.896  0.00  0.00    +0.000 C 
ATOM     14  O   UNL     1       2.695   3.990  21.028  0.00  0.00    +0.000 OA
BRANCH  13  15
ATOM     15  C   UNL     1       4.149   3.513  19.125  0.00  0.00    +0.000 C 
BRANCH  15  16
ATOM     16  C   UNL     1       5.261   4.426  18.577  0.00  0.00    +0.000 A 
ATOM     17  C   UNL     1       6.188   5.004  19.469  0.00  0.00    +0.000 A 
ATOM     18  C   UNL     1       7.190   5.865  19.027  0.00  0.00    +0.000 A 
ATOM     19  C   UNL     1       7.308   6.154  17.676  0.00  0.00    +0.000 A 
ATOM     20  C   UNL     1       6.446   5.551  16.766  0.00  0.00    +0.000 A 
ATOM     21  C   UNL     1       5.431   4.669  17.189  0.00  0.00    +0.000 A 
ATOM     22  C   UNL     1       4.606   3.998  16.123  0.00  0.00    +0.000 C 
ENDBRANCH  15  16
BRANCH  15  23
ATOM     23  C   UNL     1       4.742   2.419  19.912  0.00  0.00    +0.000 C 
ATOM     24  N   UNL     1       5.186   1.561  20.555  0.00  0.00    +0.000 NA
ENDBRANCH  15  23
ENDBRANCH  13  15
ENDBRANCH   2  13
TORSDOF 5
ENDMDL
MODEL 9
REMARK VINA RESULT:      -7.1      2.376      3.911
REMARK  Name = 
REMARK  8 active torsions:
REMARK  status: ('A' for Active; 'I' for Inactive)
REMARK    1  A    between atoms: C_1  and  C_2
REMARK    2  A    between atoms: C_5  and  N_6
REMARK    3  A    between atoms: C_7  and  C_9
REMARK    4  A    between atoms: C_9  and  C_11
REMARK    5  A    between atoms: C_11  and  C_12
REMARK    6  A    between atoms: C_11  and  C_14
REMARK    7  A    between atoms: C_19  and  C_20
REMARK    8  A    between atoms: C_22  and  C_23
REMARK                            x       y       z     vdW  Elec       q    Type
REMARK                         _______ _______ _______ _____ _____    ______ ____
ROOT
ATOM      1  N   UNL     1       2.226   8.552  17.979  0.00  0.00    +0.000 N 
ATOM      2  C   UNL     1       2.564   7.556  18.884  0.00  0.00    +0.000 C 
ATOM      3  O   UNL     1       2.152   7.365  20.017  0.00  0.00    +0.000 OA
ATOM      4  H   UNL     1       2.699   8.544  17.083  0.00  0.00    +0.000 HD
ENDROOT
BRANCH   1   9
ATOM      5  C   UNL     1      -1.735  12.668  18.690  0.00  0.00    +0.000 C 
ATOM      6  C   UNL     1      -0.716  11.573  18.507  0.00  0.00    +0.000 A 
ATOM      7  C   UNL     1       0.623  11.824  18.834  0.00  0.00    +0.000 A 
ATOM      8  C   UNL     1       1.608  10.845  18.658  0.00  0.00    +0.000 A 
ATOM      9  C   UNL     1       1.275   9.583  18.173  0.00  0.00    +0.000 A 
ATOM     10  C   UNL     1      -0.071   9.317  17.867  0.00  0.00    +0.000 A 
ATOM     11  C   UNL     1      -1.067  10.308  18.004  0.00  0.00    +0.000 A 
ATOM     12  C   UNL     1      -2.485  10.013  17.589  0.00  0.00    +0.000 C 
ENDBRANCH   1   9
BRANCH   2  13
ATOM     13  C   UNL     1       3.603   6.580  18.347  0.00  0.00    +0.000 C 
ATOM     14  O   UNL     1       4.055   6.813  17.226  0.00  0.00    +0.000 OA
BRANCH  13  15
ATOM     15  C   UNL     1       4.033   5.406  19.221  0.00  0.00    +0.000 C 
BRANCH  15  16
ATOM     16  C   UNL     1       3.142   4.165  19.035  0.00  0.00    +0.000 A 
ATOM     17  C   UNL     1       3.206   3.439  17.829  0.00  0.00    +0.000 A 
ATOM     18  C   UNL     1       2.394   2.330  17.597  0.00  0.00    +0.000 A 
ATOM     19  C   UNL     1       1.512   1.902  18.577  0.00  0.00    +0.000 A 
ATOM     20  C   UNL     1       1.470   2.562  19.801  0.00  0.00    +0.000 A 
ATOM     21  C   UNL     1       2.288   3.679  20.060  0.00  0.00    +0.000 A 
ATOM     22  C   UNL     1       2.236   4.272  21.444  0.00  0.00    +0.000 C 
ENDBRANCH  15  16
BRANCH  15  23
ATOM     23  C   UNL     1       5.447   5.041  19.029  0.00  0.00    +0.000 C 
ATOM     24  N   UNL     1       6.550   4.723  18.869  0.00  0.00    +0.000 NA
ENDBRANCH  15  23
ENDBRANCH  13  15
ENDBRANCH   2  13
TORSDOF 5
ENDMDL
