MODEL 1
REMARK VINA RESULT:      -7.4      0.000      0.000
REMARK  Name = 
REMARK  5 active torsions:
REMARK  status: ('A' for Active; 'I' for Inactive)
REMARK    1  A    between atoms: C_1  and  S_2
REMARK    2  A    between atoms: S_2  and  C_3
REMARK    3  A    between atoms: C_6  and  C_7
REMARK    4  A    between atoms: N_16  and  C_17
REMARK    5  A    between atoms: C_17  and  C_18
REMARK                            x       y       z     vdW  Elec       q    Type
REMARK                         _______ _______ _______ _____ _____    ______ ____
ROOT
ATOM      1  C   UNL     1       3.283   5.772  19.731  0.00  0.00    +0.000 C 
ATOM      2  O   UNL     1       4.278   5.885  20.447  0.00  0.00    +0.000 OA
ATOM      3  N   UNL     1       2.824   4.517  19.315  0.00  0.00    +0.000 N 
ATOM      4  C   UNL     1       3.537   3.324  19.807  0.00  0.00    +0.000 C 
ATOM      5  C   UNL     1       3.159   2.048  19.029  0.00  0.00    +0.000 C 
ATOM      6  C   UNL     1       1.643   1.812  19.123  0.00  0.00    +0.000 C 
ATOM      7  C   UNL     1       0.854   3.108  19.023  0.00  0.00    +0.000 C 
ATOM      8  C   UNL     1       1.692   4.238  18.416  0.00  0.00    +0.000 C 
ATOM      9  C   UNL     1       2.175   3.909  16.962  0.00  0.00    +0.000 C 
ATOM     10  N   UNL     1       3.496   3.287  16.756  0.00  0.00    +0.000 NA
ATOM     11  C   UNL     1       3.653   2.060  17.557  0.00  0.00    +0.000 C 
ENDROOT
BRANCH   1  15
ATOM     12  C   UNL     1       1.057   9.369  18.865  0.00  0.00    +0.000 A 
ATOM     13  C   UNL     1       1.814   8.782  17.856  0.00  0.00    +0.000 A 
ATOM     14  C   UNL     1       2.594   7.652  18.132  0.00  0.00    +0.000 A 
ATOM     15  C   UNL     1       2.550   7.030  19.382  0.00  0.00    +0.000 A 
ATOM     16  C   UNL     1       1.815   7.646  20.400  0.00  0.00    +0.000 A 
ATOM     17  C   UNL     1       1.083   8.810  20.141  0.00  0.00    +0.000 A 
BRANCH  12  19
ATOM     18  C   UNL     1      -1.412  10.236  17.965  0.00  0.00    +0.000 C 
ATOM     19  S   UNL     1       0.158  10.892  18.588  0.00  0.00    +0.000 S 
ENDBRANCH  12  19
ENDBRANCH   1  15
BRANCH  10  20
ATOM     20  C   UNL     1       4.681   4.161  16.895  0.00  0.00    +0.000 C 
BRANCH  20  21
ATOM     21  C   UNL     1       5.644   4.278  15.740  0.00  0.00    +0.000 A 
ATOM     22  C   UNL     1       5.334   3.692  14.502  0.00  0.00    +0.000 A 
ATOM     23  C   UNL     1       6.141   3.924  13.394  0.00  0.00    +0.000 A 
ATOM     24  C   UNL     1       7.245   4.741  13.554  0.00  0.00    +0.000 A 
ATOM     25  N   UNL     1       7.586   5.322  14.727  0.00  0.00    +0.000 NA
ATOM     26  C   UNL     1       6.771   5.089  15.786  0.00  0.00    +0.000 A 
ENDBRANCH  20  21
ENDBRANCH  10  20
TORSDOF 4
ENDMDL
MODEL 2
REMARK VINA RESULT:      -7.2      1.887      2.270
REMARK  Name = 
REMARK  5 active torsions:
REMARK  status: ('A' for Active; 'I' for Inactive)
REMARK    1  A    between atoms: C_1  and  S_2
REMARK    2  A    between atoms: S_2  and  C_3
REMARK    3  A    between atoms: C_6  and  C_7
REMARK    4  A    between atoms: N_16  and  C_17
REMARK    5  A    between atoms: C_17  and  C_18
REMARK                            x       y       z     vdW  Elec       q    Type
REMARK                         _______ _______ _______ _____ _____    ______ ____
ROOT
ATOM      1  C   UNL     1       2.284   5.525  20.564  0.00  0.00    +0.000 C 
ATOM      2  O   UNL     1       2.621   5.418  21.743  0.00  0.00    +0.000 OA
ATOM      3  N   UNL     1       2.151   4.401  19.740  0.00  0.00    +0.000 N 
ATOM      4  C   UNL     1       2.372   3.073  20.342  0.00  0.00    +0.000 C 
ATOM      5  C   UNL     1       2.527   1.964  19.284  0.00  0.00    +0.000 C 
ATOM      6  C   UNL     1       1.275   1.917  18.393  0.00  0.00    +0.000 C 
ATOM      7  C   UNL     1       0.753   3.308  18.065  0.00  0.00    +0.000 C 
ATOM      8  C   UNL     1       1.815   4.385  18.306  0.00  0.00    +0.000 C 
ATOM      9  C   UNL     1       3.089   4.178  17.417  0.00  0.00    +0.000 C 
ATOM     10  N   UNL     1       4.235   3.419  17.950  0.00  0.00    +0.000 NA
ATOM     11  C   UNL     1       3.829   2.093  18.448  0.00  0.00    +0.000 C 
ENDROOT
BRANCH   1  15
ATOM     12  C   UNL     1       1.210   9.500  19.264  0.00  0.00    +0.000 A 
ATOM     13  C   UNL     1       1.940   8.681  18.408  0.00  0.00    +0.000 A 
ATOM     14  C   UNL     1       2.353   7.413  18.833  0.00  0.00    +0.000 A 
ATOM     15  C   UNL     1       1.959   6.901  20.072  0.00  0.00    +0.000 A 
ATOM     16  C   UNL     1       1.256   7.742  20.940  0.00  0.00    +0.000 A 
ATOM     17  C   UNL     1       0.893   9.032  20.539  0.00  0.00    +0.000 A 
BRANCH  12  19
ATOM     18  C   UNL     1      -0.962  10.963  18.371  0.00  0.00    +0.000 C 
ATOM     19  S   UNL     1       0.782  11.178  18.810  0.00  0.00    +0.000 S 
ENDBRANCH  12  19
ENDBRANCH   1  15
BRANCH  10  20
ATOM     20  C   UNL     1       5.100   4.108  18.934  0.00  0.00    +0.000 C 
BRANCH  20  21
ATOM     21  C   UNL     1       5.910   5.300  18.488  0.00  0.00    +0.000 A 
ATOM     22  C   UNL     1       7.108   5.623  19.145  0.00  0.00    +0.000 A 
ATOM     23  C   UNL     1       7.934   6.623  18.645  0.00  0.00    +0.000 A 
ATOM     24  C   UNL     1       7.538   7.278  17.493  0.00  0.00    +0.000 A 
ATOM     25  N   UNL     1       6.392   7.004  16.831  0.00  0.00    +0.000 NA
ATOM     26  C   UNL     1       5.614   6.014  17.334  0.00  0.00    +0.000 A 
ENDBRANCH  20  21
ENDBRANCH  10  20
TORSDOF 4
ENDMDL
MODEL 3
REMARK VINA RESULT:      -7.0      2.103      2.358
REMARK  Name = 
REMARK  5 active torsions:
REMARK  status: ('A' for Active; 'I' for Inactive)
REMARK    1  A    between atoms: C_1  and  S_2
REMARK    2  A    between atoms: S_2  and  C_3
REMARK    3  A    between atoms: C_6  and  C_7
REMARK    4  A    between atoms: N_16  and  C_17
REMARK    5  A    between atoms: C_17  and  C_18
REMARK                            x       y       z     vdW  Elec       q    Type
REMARK                         _______ _______ _______ _____ _____    ______ ____
ROOT
ATOM      1  C   UNL     1       2.272   5.630  20.573  0.00  0.00    +0.000 C 
ATOM      2  O   UNL     1       2.599   5.547  21.757  0.00  0.00    +0.000 OA
ATOM      3  N   UNL     1       2.163   4.491  19.767  0.00  0.00    +0.000 N 
ATOM      4  C   UNL     1       2.398   3.177  20.393  0.00  0.00    +0.000 C 
ATOM      5  C   UNL     1       2.579   2.053  19.354  0.00  0.00    +0.000 C 
ATOM      6  C   UNL     1       1.337   1.973  18.452  0.00  0.00    +0.000 C 
ATOM      7  C   UNL     1       0.798   3.351  18.097  0.00  0.00    +0.000 C 
ATOM      8  C   UNL     1       1.842   4.447  18.330  0.00  0.00    +0.000 C 
ATOM      9  C   UNL     1       3.127   4.245  17.456  0.00  0.00    +0.000 C 
ATOM     10  N   UNL     1       4.279   3.512  18.013  0.00  0.00    +0.000 NA
ATOM     11  C   UNL     1       3.887   2.187  18.528  0.00  0.00    +0.000 C 
ENDROOT
BRANCH   1  15
ATOM     12  C   UNL     1       1.152   9.567  19.199  0.00  0.00    +0.000 A 
ATOM     13  C   UNL     1       1.910   8.749  18.367  0.00  0.00    +0.000 A 
ATOM     14  C   UNL     1       2.339   7.494  18.817  0.00  0.00    +0.000 A 
ATOM     15  C   UNL     1       1.932   6.993  20.056  0.00  0.00    +0.000 A 
ATOM     16  C   UNL     1       1.199   7.834  20.900  0.00  0.00    +0.000 A 
ATOM     17  C   UNL     1       0.822   9.112  20.474  0.00  0.00    +0.000 A 
BRANCH  12  19
ATOM     18  C   UNL     1       2.328  11.886  18.253  0.00  0.00    +0.000 C 
ATOM     19  S   UNL     1       0.703  11.230  18.713  0.00  0.00    +0.000 S 
ENDBRANCH  12  19
ENDBRANCH   1  15
BRANCH  10  20
ATOM     20  C   UNL     1       5.124   4.229  18.993  0.00  0.00    +0.000 C 
BRANCH  20  21
ATOM     21  C   UNL     1       6.068   5.297  18.502  0.00  0.00    +0.000 A 
ATOM     22  C   UNL     1       5.675   6.166  17.471  0.00  0.00    +0.000 A 
ATOM     23  C   UNL     1       6.477   7.245  17.119  0.00  0.00    +0.000 A 
ATOM     24  C   UNL     1       7.659   7.430  17.812  0.00  0.00    +0.000 A 
ATOM     25  N   UNL     1       8.081   6.617  18.807  0.00  0.00    +0.000 NA
ATOM     26  C   UNL     1       7.270   5.582  19.138  0.00  0.00    +0.000 A 
ENDBRANCH  20  21
ENDBRANCH  10  20
TORSDOF 4
ENDMDL
MODEL 4
REMARK VINA RESULT:      -6.7      4.671      9.039
REMARK  Name = 
REMARK  5 active torsions:
REMARK  status: ('A' for Active; 'I' for Inactive)
REMARK    1  A    between atoms: C_1  and  S_2
REMARK    2  A    between atoms: S_2  and  C_3
REMARK    3  A    between atoms: C_6  and  C_7
REMARK    4  A    between atoms: N_16  and  C_17
REMARK    5  A    between atoms: C_17  and  C_18
REMARK                            x       y       z     vdW  Elec       q    Type
REMARK                         _______ _______ _______ _____ _____    ______ ____
ROOT
ATOM      1  C   UNL     1       0.301   9.908  20.972  0.00  0.00    +0.000 C 
ATOM      2  O   UNL     1      -0.464   9.412  21.799  0.00  0.00    +0.000 OA
ATOM      3  N   UNL     1       0.474  11.294  20.879  0.00  0.00    +0.000 N 
ATOM      4  C   UNL     1      -0.249  12.146  21.841  0.00  0.00    +0.000 C 
ATOM      5  C   UNL     1      -0.246  13.631  21.432  0.00  0.00    +0.000 C 
ATOM      6  C   UNL     1       1.202  14.131  21.298  0.00  0.00    +0.000 C 
ATOM      7  C   UNL     1       2.107  13.092  20.654  0.00  0.00    +0.000 C 
ATOM      8  C   UNL     1       1.305  12.023  19.906  0.00  0.00    +0.000 C 
ATOM      9  C   UNL     1       0.442  12.626  18.745  0.00  0.00    +0.000 C 
ATOM     10  N   UNL     1      -0.960  13.005  19.001  0.00  0.00    +0.000 NA
ATOM     11  C   UNL     1      -1.079  13.917  20.153  0.00  0.00    +0.000 C 
ENDROOT
BRANCH   1  15
ATOM     12  C   UNL     1       2.643   7.108  18.666  0.00  0.00    +0.000 A 
ATOM     13  C   UNL     1       2.167   8.261  18.050  0.00  0.00    +0.000 A 
ATOM     14  C   UNL     1       1.352   9.151  18.762  0.00  0.00    +0.000 A 
ATOM     15  C   UNL     1       1.088   8.961  20.120  0.00  0.00    +0.000 A 
ATOM     16  C   UNL     1       1.541   7.783  20.722  0.00  0.00    +0.000 A 
ATOM     17  C   UNL     1       2.305   6.863  19.996  0.00  0.00    +0.000 A 
BRANCH  12  19
ATOM     18  C   UNL     1       4.897   6.910  17.073  0.00  0.00    +0.000 C 
ATOM     19  S   UNL     1       3.571   5.880  17.752  0.00  0.00    +0.000 S 
ENDBRANCH  12  19
ENDBRANCH   1  15
BRANCH  10  20
ATOM     20  C   UNL     1      -1.948  11.908  19.093  0.00  0.00    +0.000 C 
BRANCH  20  21
ATOM     21  C   UNL     1      -2.569  11.373  17.827  0.00  0.00    +0.000 A 
ATOM     22  C   UNL     1      -1.914  10.374  17.089  0.00  0.00    +0.000 A 
ATOM     23  C   UNL     1      -2.549   9.770  16.009  0.00  0.00    +0.000 A 
ATOM     24  C   UNL     1      -3.830  10.185  15.693  0.00  0.00    +0.000 A 
ATOM     25  N   UNL     1      -4.496  11.147  16.371  0.00  0.00    +0.000 NA
ATOM     26  C   UNL     1      -3.858  11.706  17.428  0.00  0.00    +0.000 A 
ENDBRANCH  20  21
ENDBRANCH  10  20
TORSDOF 4
ENDMDL
MODEL 5
REMARK VINA RESULT:      -6.7      4.521      8.909
REMARK  Name = 
REMARK  5 active torsions:
REMARK  status: ('A' for Active; 'I' for Inactive)
REMARK    1  A    between atoms: C_1  and  S_2
REMARK    2  A    between atoms: S_2  and  C_3
REMARK    3  A    between atoms: C_6  and  C_7
REMARK    4  A    between atoms: N_16  and  C_17
REMARK    5  A    between atoms: C_17  and  C_18
REMARK                            x       y       z     vdW  Elec       q    Type
REMARK                         _______ _______ _______ _____ _____    ______ ____
ROOT
ATOM      1  C   UNL     1       0.359   9.554  20.846  0.00  0.00    +0.000 C 
ATOM      2  O   UNL     1      -0.355   8.930  21.630  0.00  0.00    +0.000 OA
ATOM      3  N   UNL     1       0.391  10.953  20.847  0.00  0.00    +0.000 N 
ATOM      4  C   UNL     1      -0.417  11.662  21.857  0.00  0.00    +0.000 C 
ATOM      5  C   UNL     1      -0.562  13.164  21.547  0.00  0.00    +0.000 C 
ATOM      6  C   UNL     1       0.828  13.814  21.460  0.00  0.00    +0.000 C 
ATOM      7  C   UNL     1       1.836  12.917  20.757  0.00  0.00    +0.000 C 
ATOM      8  C   UNL     1       1.147  11.825  19.932  0.00  0.00    +0.000 C 
ATOM      9  C   UNL     1       0.230  12.416  18.806  0.00  0.00    +0.000 C 
ATOM     10  N   UNL     1      -1.203  12.635  19.073  0.00  0.00    +0.000 NA
ATOM     11  C   UNL     1      -1.416  13.450  20.282  0.00  0.00    +0.000 C 
ENDROOT
BRANCH   1  15
ATOM     12  C   UNL     1       2.974   7.161  18.380  0.00  0.00    +0.000 A 
ATOM     13  C   UNL     1       2.411   8.317  17.848  0.00  0.00    +0.000 A 
ATOM     14  C   UNL     1       1.510   9.073  18.608  0.00  0.00    +0.000 A 
ATOM     15  C   UNL     1       1.239   8.750  19.940  0.00  0.00    +0.000 A 
ATOM     16  C   UNL     1       1.781   7.569  20.456  0.00  0.00    +0.000 A 
ATOM     17  C   UNL     1       2.634   6.780  19.677  0.00  0.00    +0.000 A 
BRANCH  12  19
ATOM     18  C   UNL     1       4.965   5.266  18.698  0.00  0.00    +0.000 C 
ATOM     19  S   UNL     1       4.020   6.095  17.394  0.00  0.00    +0.000 S 
ENDBRANCH  12  19
ENDBRANCH   1  15
BRANCH  10  20
ATOM     20  C   UNL     1      -2.076  11.440  19.083  0.00  0.00    +0.000 C 
BRANCH  20  21
ATOM     21  C   UNL     1      -2.690  10.972  17.788  0.00  0.00    +0.000 A 
ATOM     22  C   UNL     1      -3.885  11.546  17.326  0.00  0.00    +0.000 A 
ATOM     23  C   UNL     1      -4.373  11.229  16.063  0.00  0.00    +0.000 A 
ATOM     24  C   UNL     1      -3.649  10.340  15.290  0.00  0.00    +0.000 A 
ATOM     25  N   UNL     1      -2.498   9.758  15.696  0.00  0.00    +0.000 NA
ATOM     26  C   UNL     1      -2.038  10.098  16.925  0.00  0.00    +0.000 A 
ENDBRANCH  20  21
ENDBRANCH  10  20
TORSDOF 4
ENDMDL
MODEL 6
REMARK VINA RESULT:      -6.6      2.121      2.494
REMARK  Name = 
REMARK  5 active torsions:
REMARK  status: ('A' for Active; 'I' for Inactive)
REMARK    1  A    between atoms: C_1  and  S_2
REMARK    2  A    between atoms: S_2  and  C_3
REMARK    3  A    between atoms: C_6  and  C_7
REMARK    4  A    between atoms: N_16  and  C_17
REMARK    5  A    between atoms: C_17  and  C_18
REMARK                            x       y       z     vdW  Elec       q    Type
REMARK                         _______ _______ _______ _____ _____    ______ ____
ROOT
ATOM      1  C   UNL     1       2.238   5.326  20.752  0.00  0.00    +0.000 C 
ATOM      2  O   UNL     1       2.622   5.176  21.912  0.00  0.00    +0.000 OA
ATOM      3  N   UNL     1       2.094   4.236  19.886  0.00  0.00    +0.000 N 
ATOM      4  C   UNL     1       2.364   2.889  20.422  0.00  0.00    +0.000 C 
ATOM      5  C   UNL     1       2.500   1.829  19.312  0.00  0.00    +0.000 C 
ATOM      6  C   UNL     1       1.216   1.793  18.467  0.00  0.00    +0.000 C 
ATOM      7  C   UNL     1       0.655   3.185  18.220  0.00  0.00    +0.000 C 
ATOM      8  C   UNL     1       1.704   4.273  18.466  0.00  0.00    +0.000 C 
ATOM      9  C   UNL     1       2.947   4.131  17.521  0.00  0.00    +0.000 C 
ATOM     10  N   UNL     1       4.127   3.374  17.979  0.00  0.00    +0.000 NA
ATOM     11  C   UNL     1       3.766   2.019  18.433  0.00  0.00    +0.000 C 
ENDROOT
BRANCH   1  15
ATOM     12  C   UNL     1       1.316   9.334  19.435  0.00  0.00    +0.000 A 
ATOM     13  C   UNL     1       0.791   8.879  20.641  0.00  0.00    +0.000 A 
ATOM     14  C   UNL     1       1.025   7.562  21.056  0.00  0.00    +0.000 A 
ATOM     15  C   UNL     1       1.867   6.715  20.332  0.00  0.00    +0.000 A 
ATOM     16  C   UNL     1       2.362   7.167  19.104  0.00  0.00    +0.000 A 
ATOM     17  C   UNL     1       2.079   8.463  18.660  0.00  0.00    +0.000 A 
BRANCH  12  19
ATOM     18  C   UNL     1       0.811  11.894  20.355  0.00  0.00    +0.000 C 
ATOM     19  S   UNL     1       0.926  10.963  18.805  0.00  0.00    +0.000 S 
ENDBRANCH  12  19
ENDBRANCH   1  15
BRANCH  10  20
ATOM     20  C   UNL     1       5.015   4.039  18.958  0.00  0.00    +0.000 C 
BRANCH  20  21
ATOM     21  C   UNL     1       5.958   5.114  18.478  0.00  0.00    +0.000 A 
ATOM     22  C   UNL     1       5.569   5.983  17.445  0.00  0.00    +0.000 A 
ATOM     23  C   UNL     1       6.369   7.067  17.104  0.00  0.00    +0.000 A 
ATOM     24  C   UNL     1       7.544   7.257  17.809  0.00  0.00    +0.000 A 
ATOM     25  N   UNL     1       7.960   6.444  18.806  0.00  0.00    +0.000 NA
ATOM     26  C   UNL     1       7.153   5.403  19.126  0.00  0.00    +0.000 A 
ENDBRANCH  20  21
ENDBRANCH  10  20
TORSDOF 4
ENDMDL
MODEL 7
REMARK VINA RESULT:      -6.3      4.739      9.207
REMARK  Name = 
REMARK  5 active torsions:
REMARK  status: ('A' for Active; 'I' for Inactive)
REMARK    1  A    between atoms: C_1  and  S_2
REMARK    2  A    between atoms: S_2  and  C_3
REMARK    3  A    between atoms: C_6  and  C_7
REMARK    4  A    between atoms: N_16  and  C_17
REMARK    5  A    between atoms: C_17  and  C_18
REMARK                            x       y       z     vdW  Elec       q    Type
REMARK                         _______ _______ _______ _____ _____    ______ ____
ROOT
ATOM      1  C   UNL     1       0.122  10.135  21.219  0.00  0.00    +0.000 C 
ATOM      2  O   UNL     1      -0.685   9.678  22.028  0.00  0.00    +0.000 OA
ATOM      3  N   UNL     1       0.305  11.515  21.074  0.00  0.00    +0.000 N 
ATOM      4  C   UNL     1      -0.459  12.410  21.963  0.00  0.00    +0.000 C 
ATOM      5  C   UNL     1      -0.429  13.876  21.491  0.00  0.00    +0.000 C 
ATOM      6  C   UNL     1       1.026  14.365  21.404  0.00  0.00    +0.000 C 
ATOM      7  C   UNL     1       1.957  13.297  20.850  0.00  0.00    +0.000 C 
ATOM      8  C   UNL     1       1.186  12.198  20.112  0.00  0.00    +0.000 C 
ATOM      9  C   UNL     1       0.382  12.753  18.886  0.00  0.00    +0.000 C 
ATOM     10  N   UNL     1      -1.029  13.147  19.057  0.00  0.00    +0.000 NA
ATOM     11  C   UNL     1      -1.198  14.108  20.162  0.00  0.00    +0.000 C 
ENDROOT
BRANCH   1  15
ATOM     12  C   UNL     1       2.414   7.352  18.843  0.00  0.00    +0.000 A 
ATOM     13  C   UNL     1       2.219   7.088  20.195  0.00  0.00    +0.000 A 
ATOM     14  C   UNL     1       1.534   8.009  20.998  0.00  0.00    +0.000 A 
ATOM     15  C   UNL     1       0.944   9.149  20.448  0.00  0.00    +0.000 A 
ATOM     16  C   UNL     1       1.174   9.425  19.096  0.00  0.00    +0.000 A 
ATOM     17  C   UNL     1       1.910   8.536  18.307  0.00  0.00    +0.000 A 
BRANCH  12  19
ATOM     18  C   UNL     1       4.125   5.190  19.078  0.00  0.00    +0.000 C 
ATOM     19  S   UNL     1       3.402   6.269  17.816  0.00  0.00    +0.000 S 
ENDBRANCH  12  19
ENDBRANCH   1  15
BRANCH  10  20
ATOM     20  C   UNL     1      -2.026  12.058  19.149  0.00  0.00    +0.000 C 
BRANCH  20  21
ATOM     21  C   UNL     1      -2.598  11.480  17.879  0.00  0.00    +0.000 A 
ATOM     22  C   UNL     1      -1.870  10.528  17.147  0.00  0.00    +0.000 A 
ATOM     23  C   UNL     1      -2.453   9.881  16.063  0.00  0.00    +0.000 A 
ATOM     24  C   UNL     1      -3.758  10.205  15.738  0.00  0.00    +0.000 A 
ATOM     25  N   UNL     1      -4.494  11.118  16.410  0.00  0.00    +0.000 NA
ATOM     26  C   UNL     1      -3.904  11.722  17.471  0.00  0.00    +0.000 A 
ENDBRANCH  20  21
ENDBRANCH  10  20
TORSDOF 4
ENDMDL
MODEL 8
REMARK VINA RESULT:      -6.3      0.859      1.506
REMARK  Name = 
REMARK  5 active torsions:
REMARK  status: ('A' for Active; 'I' for Inactive)
REMARK    1  A    between atoms: C_1  and  S_2
REMARK    2  A    between atoms: S_2  and  C_3
REMARK    3  A    between atoms: C_6  and  C_7
REMARK    4  A    between atoms: N_16  and  C_17
REMARK    5  A    between atoms: C_17  and  C_18
REMARK                            x       y       z     vdW  Elec       q    Type
REMARK                         _______ _______ _______ _____ _____    ______ ____
ROOT
ATOM      1  C   UNL     1       3.393   5.762  19.718  0.00  0.00    +0.000 C 
ATOM      2  O   UNL     1       4.470   5.901  20.298  0.00  0.00    +0.000 OA
ATOM      3  N   UNL     1       2.925   4.497  19.345  0.00  0.00    +0.000 N 
ATOM      4  C   UNL     1       3.735   3.323  19.718  0.00  0.00    +0.000 C 
ATOM      5  C   UNL     1       3.300   2.046  18.975  0.00  0.00    +0.000 C 
ATOM      6  C   UNL     1       1.819   1.755  19.264  0.00  0.00    +0.000 C 
ATOM      7  C   UNL     1       0.981   3.024  19.290  0.00  0.00    +0.000 C 
ATOM      8  C   UNL     1       1.693   4.190  18.598  0.00  0.00    +0.000 C 
ATOM      9  C   UNL     1       1.990   3.897  17.087  0.00  0.00    +0.000 C 
ATOM     10  N   UNL     1       3.292   3.324  16.699  0.00  0.00    +0.000 NA
ATOM     11  C   UNL     1       3.595   2.093  17.451  0.00  0.00    +0.000 C 
ENDROOT
BRANCH   1  15
ATOM     12  C   UNL     1       1.153   9.367  18.924  0.00  0.00    +0.000 A 
ATOM     13  C   UNL     1       1.100   8.802  20.195  0.00  0.00    +0.000 A 
ATOM     14  C   UNL     1       1.767   7.599  20.456  0.00  0.00    +0.000 A 
ATOM     15  C   UNL     1       2.579   6.998  19.491  0.00  0.00    +0.000 A 
ATOM     16  C   UNL     1       2.600   7.552  18.207  0.00  0.00    +0.000 A 
ATOM     17  C   UNL     1       1.885   8.722  17.929  0.00  0.00    +0.000 A 
BRANCH  12  19
ATOM     18  C   UNL     1       0.691  11.926  19.869  0.00  0.00    +0.000 C 
ATOM     19  S   UNL     1       0.204  10.828  18.514  0.00  0.00    +0.000 S 
ENDBRANCH  12  19
ENDBRANCH   1  15
BRANCH  10  20
ATOM     20  C   UNL     1       4.456   4.238  16.695  0.00  0.00    +0.000 C 
BRANCH  20  21
ATOM     21  C   UNL     1       5.281   4.367  15.439  0.00  0.00    +0.000 A 
ATOM     22  C   UNL     1       6.519   5.029  15.474  0.00  0.00    +0.000 A 
ATOM     23  C   UNL     1       7.351   5.019  14.360  0.00  0.00    +0.000 A 
ATOM     24  C   UNL     1       6.920   4.343  13.233  0.00  0.00    +0.000 A 
ATOM     25  N   UNL     1       5.735   3.697  13.152  0.00  0.00    +0.000 NA
ATOM     26  C   UNL     1       4.951   3.712  14.258  0.00  0.00    +0.000 A 
ENDBRANCH  20  21
ENDBRANCH  10  20
TORSDOF 4
ENDMDL
MODEL 9
REMARK VINA RESULT:      -6.2      4.573      9.744
REMARK  Name = 
REMARK  5 active torsions:
REMARK  status: ('A' for Active; 'I' for Inactive)
REMARK    1  A    between atoms: C_1  and  S_2
REMARK    2  A    between atoms: S_2  and  C_3
REMARK    3  A    between atoms: C_6  and  C_7
REMARK    4  A    between atoms: N_16  and  C_17
REMARK    5  A    between atoms: C_17  and  C_18
REMARK                            x       y       z     vdW  Elec       q    Type
REMARK                         _______ _______ _______ _____ _____    ______ ____
ROOT
ATOM      1  C   UNL     1       0.326   9.907  21.107  0.00  0.00    +0.000 C 
ATOM      2  O   UNL     1      -0.360   9.411  22.000  0.00  0.00    +0.000 OA
ATOM      3  N   UNL     1       0.432  11.294  20.955  0.00  0.00    +0.000 N 
ATOM      4  C   UNL     1      -0.260  12.151  21.935  0.00  0.00    +0.000 C 
ATOM      5  C   UNL     1      -0.348  13.619  21.477  0.00  0.00    +0.000 C 
ATOM      6  C   UNL     1       1.064  14.171  21.225  0.00  0.00    +0.000 C 
ATOM      7  C   UNL     1       1.969  13.147  20.557  0.00  0.00    +0.000 C 
ATOM      8  C   UNL     1       1.164  12.019  19.903  0.00  0.00    +0.000 C 
ATOM      9  C   UNL     1       0.200  12.544  18.784  0.00  0.00    +0.000 C 
ATOM     10  N   UNL     1      -1.197  12.875  19.123  0.00  0.00    +0.000 NA
ATOM     11  C   UNL     1      -1.277  13.823  20.248  0.00  0.00    +0.000 C 
ENDROOT
BRANCH   1  15
ATOM     12  C   UNL     1       2.612   7.108  18.743  0.00  0.00    +0.000 A 
ATOM     13  C   UNL     1       2.158   8.282  18.151  0.00  0.00    +0.000 A 
ATOM     14  C   UNL     1       1.361   9.173  18.881  0.00  0.00    +0.000 A 
ATOM     15  C   UNL     1       1.094   8.961  20.236  0.00  0.00    +0.000 A 
ATOM     16  C   UNL     1       1.525   7.763  20.814  0.00  0.00    +0.000 A 
ATOM     17  C   UNL     1       2.270   6.844  20.068  0.00  0.00    +0.000 A 
BRANCH  12  19
ATOM     18  C   UNL     1       2.344   4.499  17.861  0.00  0.00    +0.000 C 
ATOM     19  S   UNL     1       3.515   5.880  17.805  0.00  0.00    +0.000 S 
ENDBRANCH  12  19
ENDBRANCH   1  15
BRANCH  10  20
ATOM     20  C   UNL     1      -2.128  11.743  19.320  0.00  0.00    +0.000 C 
BRANCH  20  21
ATOM     21  C   UNL     1      -3.493  11.798  18.680  0.00  0.00    +0.000 A 
ATOM     22  C   UNL     1      -4.582  12.334  19.386  0.00  0.00    +0.000 A 
ATOM     23  C   UNL     1      -5.803  12.527  18.750  0.00  0.00    +0.000 A 
ATOM     24  C   UNL     1      -5.904  12.177  17.416  0.00  0.00    +0.000 A 
ATOM     25  N   UNL     1      -4.885  11.654  16.698  0.00  0.00    +0.000 NA
ATOM     26  C   UNL     1      -3.702  11.491  17.340  0.00  0.00    +0.000 A 
ENDBRANCH  20  21
ENDBRANCH  10  20
TORSDOF 4
ENDMDL
