MODEL 1
REMARK VINA RESULT:      -8.7      0.000      0.000
REMARK  Name = 
REMARK  8 active torsions:
REMARK  status: ('A' for Active; 'I' for Inactive)
REMARK    1  A    between atoms: C_2  and  O_3
REMARK    2  A    between atoms: C_2  and  C_4
REMARK    3  A    between atoms: C_9  and  C_10
REMARK    4  A    between atoms: C_10  and  C_12
REMARK    5  A    between atoms: C_13  and  C_14
REMARK    6  A    between atoms: C_17  and  O_18
REMARK    7  A    between atoms: O_18  and  C_19
REMARK    8  A    between atoms: C_19  and  C_20
REMARK                            x       y       z     vdW  Elec       q    Type
REMARK                         _______ _______ _______ _____ _____    ______ ____
ROOT
ATOM      1  C   UNL     1       2.484   7.464  18.888  0.00  0.00    +0.000 A 
ATOM      2  C   UNL     1       1.969   7.634  20.178  0.00  0.00    +0.000 A 
ATOM      3  C   UNL     1       1.122   8.721  20.495  0.00  0.00    +0.000 A 
ATOM      4  C   UNL     1       0.763   9.665  19.533  0.00  0.00    +0.000 A 
ATOM      5  C   UNL     1       1.255   9.478  18.232  0.00  0.00    +0.000 A 
ATOM      6  C   UNL     1       2.112   8.397  17.915  0.00  0.00    +0.000 A 
ENDROOT
BRANCH   1   8
ATOM      7  C   UNL     1       3.729   5.377  19.451  0.00  0.00    +0.000 C 
ATOM      8  C   UNL     1       3.421   6.361  18.585  0.00  0.00    +0.000 C 
BRANCH   7   9
ATOM      9  C   UNL     1       4.657   4.252  19.084  0.00  0.00    +0.000 C 
ATOM     10  O   UNL     1       4.766   3.237  19.767  0.00  0.00    +0.000 OA
BRANCH   9  16
ATOM     11  C   UNL     1       6.744   5.126  17.873  0.00  0.00    +0.000 A 
ATOM     12  C   UNL     1       7.463   5.234  16.659  0.00  0.00    +0.000 A 
ATOM     13  C   UNL     1       6.988   4.666  15.477  0.00  0.00    +0.000 A 
ATOM     14  C   UNL     1       5.780   3.986  15.483  0.00  0.00    +0.000 A 
ATOM     15  C   UNL     1       5.054   3.866  16.671  0.00  0.00    +0.000 A 
ATOM     16  C   UNL     1       5.529   4.410  17.883  0.00  0.00    +0.000 A 
BRANCH  11  18
ATOM     17  O   UNL     1       7.445   5.205  20.128  0.00  0.00    +0.000 OA
ATOM     18  C   UNL     1       7.438   5.754  19.035  0.00  0.00    +0.000 C 
BRANCH  18  19
ATOM     19  O   UNL     1       8.170   6.852  18.791  0.00  0.00    +0.000 OA
ATOM     20  H   UNL     1       8.007   7.298  17.927  0.00  0.00    +0.000 HD
ENDBRANCH  18  19
ENDBRANCH  11  18
ENDBRANCH   9  16
ENDBRANCH   7   9
ENDBRANCH   1   8
BRANCH   4  21
ATOM     21  O   UNL     1      -0.069  10.746  19.733  0.00  0.00    +0.000 OA
BRANCH  21  22
ATOM     22  C   UNL     1      -0.310  11.632  18.611  0.00  0.00    +0.000 C 
BRANCH  22  23
ATOM     23  C   UNL     1       0.376  13.002  18.708  0.00  0.00    +0.000 A 
ATOM     24  C   UNL     1       1.753  13.122  18.579  0.00  0.00    +0.000 A 
ATOM     25  C   UNL     1       2.332  14.389  18.613  0.00  0.00    +0.000 A 
ATOM     26  C   UNL     1       1.528  15.530  18.651  0.00  0.00    +0.000 A 
ATOM     27  C   UNL     1       2.103  16.810  18.549  0.00  0.00    +0.000 A 
ATOM     28  C   UNL     1       1.300  17.940  18.432  0.00  0.00    +0.000 A 
ATOM     29  C   UNL     1      -0.079  17.792  18.482  0.00  0.00    +0.000 A 
ATOM     30  C   UNL     1      -0.642  16.517  18.658  0.00  0.00    +0.000 A 
ATOM     31  C   UNL     1       0.135  15.354  18.724  0.00  0.00    +0.000 A 
ATOM     32  N   UNL     1      -0.424  14.113  18.792  0.00  0.00    +0.000 NA
ENDBRANCH  22  23
ENDBRANCH  21  22
ENDBRANCH   4  21
TORSDOF 8
ENDMDL
MODEL 2
REMARK VINA RESULT:      -8.7      3.209      3.818
REMARK  Name = 
REMARK  8 active torsions:
REMARK  status: ('A' for Active; 'I' for Inactive)
REMARK    1  A    between atoms: C_2  and  O_3
REMARK    2  A    between atoms: C_2  and  C_4
REMARK    3  A    between atoms: C_9  and  C_10
REMARK    4  A    between atoms: C_10  and  C_12
REMARK    5  A    between atoms: C_13  and  C_14
REMARK    6  A    between atoms: C_17  and  O_18
REMARK    7  A    between atoms: O_18  and  C_19
REMARK    8  A    between atoms: C_19  and  C_20
REMARK                            x       y       z     vdW  Elec       q    Type
REMARK                         _______ _______ _______ _____ _____    ______ ____
ROOT
ATOM      1  C   UNL     1       2.211   7.521  18.886  0.00  0.00    +0.000 A 
ATOM      2  C   UNL     1       1.773   7.746  20.196  0.00  0.00    +0.000 A 
ATOM      3  C   UNL     1       1.103   8.938  20.553  0.00  0.00    +0.000 A 
ATOM      4  C   UNL     1       0.848   9.936  19.613  0.00  0.00    +0.000 A 
ATOM      5  C   UNL     1       1.260   9.698  18.293  0.00  0.00    +0.000 A 
ATOM      6  C   UNL     1       1.942   8.510  17.935  0.00  0.00    +0.000 A 
ENDROOT
BRANCH   1   8
ATOM      7  C   UNL     1       2.516   5.345  17.705  0.00  0.00    +0.000 C 
ATOM      8  C   UNL     1       2.969   6.299  18.539  0.00  0.00    +0.000 C 
BRANCH   7   9
ATOM      9  C   UNL     1       3.340   4.138  17.350  0.00  0.00    +0.000 C 
ATOM     10  O   UNL     1       2.954   2.991  17.557  0.00  0.00    +0.000 OA
BRANCH   9  16
ATOM     11  C   UNL     1       5.876   4.462  17.571  0.00  0.00    +0.000 A 
ATOM     12  C   UNL     1       7.111   4.697  16.922  0.00  0.00    +0.000 A 
ATOM     13  C   UNL     1       7.192   4.835  15.536  0.00  0.00    +0.000 A 
ATOM     14  C   UNL     1       6.038   4.749  14.773  0.00  0.00    +0.000 A 
ATOM     15  C   UNL     1       4.809   4.517  15.393  0.00  0.00    +0.000 A 
ATOM     16  C   UNL     1       4.707   4.348  16.790  0.00  0.00    +0.000 A 
BRANCH  11  18
ATOM     17  O   UNL     1       6.486   5.180  19.738  0.00  0.00    +0.000 OA
ATOM     18  C   UNL     1       6.001   4.293  19.048  0.00  0.00    +0.000 C 
BRANCH  18  19
ATOM     19  O   UNL     1       5.427   3.210  19.592  0.00  0.00    +0.000 OA
ATOM     20  H   UNL     1       5.647   2.345  19.171  0.00  0.00    +0.000 HD
ENDBRANCH  18  19
ENDBRANCH  11  18
ENDBRANCH   9  16
ENDBRANCH   7   9
ENDBRANCH   1   8
BRANCH   4  21
ATOM     21  O   UNL     1       0.187  11.122  19.853  0.00  0.00    +0.000 OA
BRANCH  21  22
ATOM     22  C   UNL     1       0.634  11.932  20.970  0.00  0.00    +0.000 C 
BRANCH  22  23
ATOM     23  C   UNL     1      -0.489  12.504  21.846  0.00  0.00    +0.000 A 
ATOM     24  C   UNL     1      -1.604  11.742  22.166  0.00  0.00    +0.000 A 
ATOM     25  C   UNL     1      -2.574  12.275  23.012  0.00  0.00    +0.000 A 
ATOM     26  C   UNL     1      -2.368  13.510  23.630  0.00  0.00    +0.000 A 
ATOM     27  C   UNL     1      -3.280  13.990  24.588  0.00  0.00    +0.000 A 
ATOM     28  C   UNL     1      -3.003  15.142  25.316  0.00  0.00    +0.000 A 
ATOM     29  C   UNL     1      -1.841  15.848  25.038  0.00  0.00    +0.000 A 
ATOM     30  C   UNL     1      -0.972  15.402  24.029  0.00  0.00    +0.000 A 
ATOM     31  C   UNL     1      -1.193  14.217  23.315  0.00  0.00    +0.000 A 
ATOM     32  N   UNL     1      -0.295  13.739  22.409  0.00  0.00    +0.000 NA
ENDBRANCH  22  23
ENDBRANCH  21  22
ENDBRANCH   4  21
TORSDOF 8
ENDMDL
MODEL 3
REMARK VINA RESULT:      -8.7      3.075      4.016
REMARK  Name = 
REMARK  8 active torsions:
REMARK  status: ('A' for Active; 'I' for Inactive)
REMARK    1  A    between atoms: C_2  and  O_3
REMARK    2  A    between atoms: C_2  and  C_4
REMARK    3  A    between atoms: C_9  and  C_10
REMARK    4  A    between atoms: C_10  and  C_12
REMARK    5  A    between atoms: C_13  and  C_14
REMARK    6  A    between atoms: C_17  and  O_18
REMARK    7  A    between atoms: O_18  and  C_19
REMARK    8  A    between atoms: C_19  and  C_20
REMARK                            x       y       z     vdW  Elec       q    Type
REMARK                         _______ _______ _______ _____ _____    ______ ____
ROOT
ATOM      1  C   UNL     1       2.386   7.668  18.585  0.00  0.00    +0.000 A 
ATOM      2  C   UNL     1       1.865   7.812  19.875  0.00  0.00    +0.000 A 
ATOM      3  C   UNL     1       1.221   9.003  20.280  0.00  0.00    +0.000 A 
ATOM      4  C   UNL     1       1.076  10.081  19.407  0.00  0.00    +0.000 A 
ATOM      5  C   UNL     1       1.571   9.926  18.104  0.00  0.00    +0.000 A 
ATOM      6  C   UNL     1       2.227   8.738  17.699  0.00  0.00    +0.000 A 
ENDROOT
BRANCH   1   8
ATOM      7  C   UNL     1       2.517   5.307  17.789  0.00  0.00    +0.000 C 
ATOM      8  C   UNL     1       3.116   6.442  18.195  0.00  0.00    +0.000 C 
BRANCH   7   9
ATOM      9  C   UNL     1       3.302   4.097  17.362  0.00  0.00    +0.000 C 
ATOM     10  O   UNL     1       2.873   2.953  17.490  0.00  0.00    +0.000 OA
BRANCH   9  16
ATOM     11  C   UNL     1       5.829   4.454  17.637  0.00  0.00    +0.000 A 
ATOM     12  C   UNL     1       7.079   4.671  17.011  0.00  0.00    +0.000 A 
ATOM     13  C   UNL     1       7.196   4.748  15.624  0.00  0.00    +0.000 A 
ATOM     14  C   UNL     1       6.065   4.618  14.834  0.00  0.00    +0.000 A 
ATOM     15  C   UNL     1       4.820   4.402  15.430  0.00  0.00    +0.000 A 
ATOM     16  C   UNL     1       4.682   4.295  16.831  0.00  0.00    +0.000 A 
BRANCH  11  18
ATOM     17  O   UNL     1       5.402   3.412  19.714  0.00  0.00    +0.000 OA
ATOM     18  C   UNL     1       5.915   4.352  19.123  0.00  0.00    +0.000 C 
BRANCH  18  19
ATOM     19  O   UNL     1       6.699   5.240  19.754  0.00  0.00    +0.000 OA
ATOM     20  H   UNL     1       6.956   5.011  20.678  0.00  0.00    +0.000 HD
ENDBRANCH  18  19
ENDBRANCH  11  18
ENDBRANCH   9  16
ENDBRANCH   7   9
ENDBRANCH   1   8
BRANCH   4  21
ATOM     21  O   UNL     1       0.449  11.275  19.695  0.00  0.00    +0.000 OA
BRANCH  21  22
ATOM     22  C   UNL     1      -0.846  11.220  20.345  0.00  0.00    +0.000 C 
BRANCH  22  23
ATOM     23  C   UNL     1      -2.048  11.425  19.412  0.00  0.00    +0.000 A 
ATOM     24  C   UNL     1      -2.129  10.762  18.195  0.00  0.00    +0.000 A 
ATOM     25  C   UNL     1      -3.263  10.927  17.403  0.00  0.00    +0.000 A 
ATOM     26  C   UNL     1      -4.358  11.650  17.882  0.00  0.00    +0.000 A 
ATOM     27  C   UNL     1      -5.553  11.706  17.144  0.00  0.00    +0.000 A 
ATOM     28  C   UNL     1      -6.693  12.293  17.684  0.00  0.00    +0.000 A 
ATOM     29  C   UNL     1      -6.615  12.882  18.938  0.00  0.00    +0.000 A 
ATOM     30  C   UNL     1      -5.396  12.885  19.637  0.00  0.00    +0.000 A 
ATOM     31  C   UNL     1      -4.246  12.255  19.147  0.00  0.00    +0.000 A 
ATOM     32  N   UNL     1      -3.097  12.177  19.876  0.00  0.00    +0.000 NA
ENDBRANCH  22  23
ENDBRANCH  21  22
ENDBRANCH   4  21
TORSDOF 8
ENDMDL
MODEL 4
REMARK VINA RESULT:      -8.7      3.011      3.719
REMARK  Name = 
REMARK  8 active torsions:
REMARK  status: ('A' for Active; 'I' for Inactive)
REMARK    1  A    between atoms: C_2  and  O_3
REMARK    2  A    between atoms: C_2  and  C_4
REMARK    3  A    between atoms: C_9  and  C_10
REMARK    4  A    between atoms: C_10  and  C_12
REMARK    5  A    between atoms: C_13  and  C_14
REMARK    6  A    between atoms: C_17  and  O_18
REMARK    7  A    between atoms: O_18  and  C_19
REMARK    8  A    between atoms: C_19  and  C_20
REMARK                            x       y       z     vdW  Elec       q    Type
REMARK                         _______ _______ _______ _____ _____    ______ ____
ROOT
ATOM      1  C   UNL     1       2.507   7.503  18.773  0.00  0.00    +0.000 A 
ATOM      2  C   UNL     1       2.240   8.515  17.844  0.00  0.00    +0.000 A 
ATOM      3  C   UNL     1       1.431   9.625  18.176  0.00  0.00    +0.000 A 
ATOM      4  C   UNL     1       0.869   9.758  19.446  0.00  0.00    +0.000 A 
ATOM      5  C   UNL     1       1.161   8.760  20.387  0.00  0.00    +0.000 A 
ATOM      6  C   UNL     1       1.962   7.641  20.054  0.00  0.00    +0.000 A 
ENDROOT
BRANCH   1   8
ATOM      7  C   UNL     1       4.113   5.652  19.237  0.00  0.00    +0.000 C 
ATOM      8  C   UNL     1       3.301   6.315  18.393  0.00  0.00    +0.000 C 
BRANCH   7   9
ATOM      9  C   UNL     1       4.870   4.422  18.816  0.00  0.00    +0.000 C 
ATOM     10  O   UNL     1       4.943   3.419  19.521  0.00  0.00    +0.000 OA
BRANCH   9  16
ATOM     11  C   UNL     1       6.833   5.142  17.328  0.00  0.00    +0.000 A 
ATOM     12  C   UNL     1       7.427   5.124  16.044  0.00  0.00    +0.000 A 
ATOM     13  C   UNL     1       6.830   4.459  14.973  0.00  0.00    +0.000 A 
ATOM     14  C   UNL     1       5.623   3.805  15.163  0.00  0.00    +0.000 A 
ATOM     15  C   UNL     1       5.019   3.808  16.422  0.00  0.00    +0.000 A 
ATOM     16  C   UNL     1       5.618   4.453  17.525  0.00  0.00    +0.000 A 
BRANCH  11  18
ATOM     17  O   UNL     1       7.767   7.078  18.308  0.00  0.00    +0.000 OA
ATOM     18  C   UNL     1       7.646   5.861  18.351  0.00  0.00    +0.000 C 
BRANCH  18  19
ATOM     19  O   UNL     1       8.101   5.142  19.389  0.00  0.00    +0.000 OA
ATOM     20  H   UNL     1       7.498   4.439  19.726  0.00  0.00    +0.000 HD
ENDBRANCH  18  19
ENDBRANCH  11  18
ENDBRANCH   9  16
ENDBRANCH   7   9
ENDBRANCH   1   8
BRANCH   4  21
ATOM     21  O   UNL     1       0.085  10.808  19.876  0.00  0.00    +0.000 OA
BRANCH  21  22
ATOM     22  C   UNL     1       0.753  11.974  20.418  0.00  0.00    +0.000 C 
BRANCH  22  23
ATOM     23  C   UNL     1      -0.003  12.687  21.549  0.00  0.00    +0.000 A 
ATOM     24  C   UNL     1       0.288  14.003  21.883  0.00  0.00    +0.000 A 
ATOM     25  C   UNL     1      -0.460  14.635  22.874  0.00  0.00    +0.000 A 
ATOM     26  C   UNL     1      -1.568  13.997  23.435  0.00  0.00    +0.000 A 
ATOM     27  C   UNL     1      -2.405  14.680  24.336  0.00  0.00    +0.000 A 
ATOM     28  C   UNL     1      -3.591  14.104  24.779  0.00  0.00    +0.000 A 
ATOM     29  C   UNL     1      -3.905  12.816  24.369  0.00  0.00    +0.000 A 
ATOM     30  C   UNL     1      -3.027  12.113  23.528  0.00  0.00    +0.000 A 
ATOM     31  C   UNL     1      -1.853  12.683  23.020  0.00  0.00    +0.000 A 
ATOM     32  N   UNL     1      -1.060  12.031  22.125  0.00  0.00    +0.000 NA
ENDBRANCH  22  23
ENDBRANCH  21  22
ENDBRANCH   4  21
TORSDOF 8
ENDMDL
MODEL 5
REMARK VINA RESULT:      -8.6      0.753      1.264
REMARK  Name = 
REMARK  8 active torsions:
REMARK  status: ('A' for Active; 'I' for Inactive)
REMARK    1  A    between atoms: C_2  and  O_3
REMARK    2  A    between atoms: C_2  and  C_4
REMARK    3  A    between atoms: C_9  and  C_10
REMARK    4  A    between atoms: C_10  and  C_12
REMARK    5  A    between atoms: C_13  and  C_14
REMARK    6  A    between atoms: C_17  and  O_18
REMARK    7  A    between atoms: O_18  and  C_19
REMARK    8  A    between atoms: C_19  and  C_20
REMARK                            x       y       z     vdW  Elec       q    Type
REMARK                         _______ _______ _______ _____ _____    ______ ____
ROOT
ATOM      1  C   UNL     1       2.486   7.543  18.744  0.00  0.00    +0.000 A 
ATOM      2  C   UNL     1       2.166   8.519  17.795  0.00  0.00    +0.000 A 
ATOM      3  C   UNL     1       1.332   9.614  18.118  0.00  0.00    +0.000 A 
ATOM      4  C   UNL     1       0.799   9.766  19.397  0.00  0.00    +0.000 A 
ATOM      5  C   UNL     1       1.143   8.804  20.357  0.00  0.00    +0.000 A 
ATOM      6  C   UNL     1       1.969   7.700  20.034  0.00  0.00    +0.000 A 
ENDROOT
BRANCH   1   8
ATOM      7  C   UNL     1       4.059   5.673  19.249  0.00  0.00    +0.000 C 
ATOM      8  C   UNL     1       3.305   6.367  18.376  0.00  0.00    +0.000 C 
BRANCH   7   9
ATOM      9  C   UNL     1       4.844   4.459  18.836  0.00  0.00    +0.000 C 
ATOM     10  O   UNL     1       4.941   3.463  19.548  0.00  0.00    +0.000 OA
BRANCH   9  16
ATOM     11  C   UNL     1       6.818   5.167  17.357  0.00  0.00    +0.000 A 
ATOM     12  C   UNL     1       7.409   5.160  16.071  0.00  0.00    +0.000 A 
ATOM     13  C   UNL     1       6.798   4.526  14.990  0.00  0.00    +0.000 A 
ATOM     14  C   UNL     1       5.579   3.891  15.171  0.00  0.00    +0.000 A 
ATOM     15  C   UNL     1       4.977   3.884  16.432  0.00  0.00    +0.000 A 
ATOM     16  C   UNL     1       5.591   4.498  17.545  0.00  0.00    +0.000 A 
BRANCH  11  18
ATOM     17  O   UNL     1       7.840   7.059  18.334  0.00  0.00    +0.000 OA
ATOM     18  C   UNL     1       7.646   5.852  18.391  0.00  0.00    +0.000 C 
BRANCH  18  19
ATOM     19  O   UNL     1       8.033   5.124  19.449  0.00  0.00    +0.000 OA
ATOM     20  H   UNL     1       7.505   4.311  19.631  0.00  0.00    +0.000 HD
ENDBRANCH  18  19
ENDBRANCH  11  18
ENDBRANCH   9  16
ENDBRANCH   7   9
ENDBRANCH   1   8
BRANCH   4  21
ATOM     21  O   UNL     1      -0.006  10.804  19.818  0.00  0.00    +0.000 OA
BRANCH  21  22
ATOM     22  C   UNL     1       0.545  11.741  20.777  0.00  0.00    +0.000 C 
BRANCH  22  23
ATOM     23  C   UNL     1       1.024  13.073  20.181  0.00  0.00    +0.000 A 
ATOM     24  C   UNL     1       2.336  13.234  19.757  0.00  0.00    +0.000 A 
ATOM     25  C   UNL     1       2.718  14.437  19.167  0.00  0.00    +0.000 A 
ATOM     26  C   UNL     1       1.765  15.420  18.890  0.00  0.00    +0.000 A 
ATOM     27  C   UNL     1       2.121  16.576  18.173  0.00  0.00    +0.000 A 
ATOM     28  C   UNL     1       1.150  17.483  17.763  0.00  0.00    +0.000 A 
ATOM     29  C   UNL     1      -0.171  17.263  18.128  0.00  0.00    +0.000 A 
ATOM     30  C   UNL     1      -0.507  16.143  18.906  0.00  0.00    +0.000 A 
ATOM     31  C   UNL     1       0.437  15.182  19.289  0.00  0.00    +0.000 A 
ATOM     32  N   UNL     1       0.086  14.048  19.958  0.00  0.00    +0.000 NA
ENDBRANCH  22  23
ENDBRANCH  21  22
ENDBRANCH   4  21
TORSDOF 8
ENDMDL
MODEL 6
REMARK VINA RESULT:      -8.6      5.676     10.196
REMARK  Name = 
REMARK  8 active torsions:
REMARK  status: ('A' for Active; 'I' for Inactive)
REMARK    1  A    between atoms: C_2  and  O_3
REMARK    2  A    between atoms: C_2  and  C_4
REMARK    3  A    between atoms: C_9  and  C_10
REMARK    4  A    between atoms: C_10  and  C_12
REMARK    5  A    between atoms: C_13  and  C_14
REMARK    6  A    between atoms: C_17  and  O_18
REMARK    7  A    between atoms: O_18  and  C_19
REMARK    8  A    between atoms: C_19  and  C_20
REMARK                            x       y       z     vdW  Elec       q    Type
REMARK                         _______ _______ _______ _____ _____    ______ ____
ROOT
ATOM      1  C   UNL     1       8.101   8.216  18.054  0.00  0.00    +0.000 A 
ATOM      2  C   UNL     1       8.453   7.312  19.062  0.00  0.00    +0.000 A 
ATOM      3  C   UNL     1       8.031   5.963  19.021  0.00  0.00    +0.000 A 
ATOM      4  C   UNL     1       7.249   5.480  17.972  0.00  0.00    +0.000 A 
ATOM      5  C   UNL     1       6.921   6.378  16.946  0.00  0.00    +0.000 A 
ATOM      6  C   UNL     1       7.333   7.732  16.990  0.00  0.00    +0.000 A 
ENDROOT
BRANCH   1   8
ATOM      7  C   UNL     1       9.432  10.110  18.983  0.00  0.00    +0.000 C 
ATOM      8  C   UNL     1       8.493   9.639  18.141  0.00  0.00    +0.000 C 
BRANCH   7   9
ATOM      9  C   UNL     1       9.828  11.561  19.008  0.00  0.00    +0.000 C 
ATOM     10  O   UNL     1      10.662  12.031  18.239  0.00  0.00    +0.000 OA
BRANCH   9  16
ATOM     11  C   UNL     1       8.482  13.604  19.782  0.00  0.00    +0.000 A 
ATOM     12  C   UNL     1       8.003  14.378  20.866  0.00  0.00    +0.000 A 
ATOM     13  C   UNL     1       8.273  14.028  22.188  0.00  0.00    +0.000 A 
ATOM     14  C   UNL     1       9.035  12.900  22.454  0.00  0.00    +0.000 A 
ATOM     15  C   UNL     1       9.517  12.121  21.400  0.00  0.00    +0.000 A 
ATOM     16  C   UNL     1       9.234  12.443  20.055  0.00  0.00    +0.000 A 
BRANCH  11  18
ATOM     17  O   UNL     1       8.078  15.309  18.197  0.00  0.00    +0.000 OA
ATOM     18  C   UNL     1       8.047  14.112  18.448  0.00  0.00    +0.000 C 
BRANCH  18  19
ATOM     19  O   UNL     1       7.773  13.199  17.504  0.00  0.00    +0.000 OA
ATOM     20  H   UNL     1       7.381  12.352  17.822  0.00  0.00    +0.000 HD
ENDBRANCH  18  19
ENDBRANCH  11  18
ENDBRANCH   9  16
ENDBRANCH   7   9
ENDBRANCH   1   8
BRANCH   4  21
ATOM     21  O   UNL     1       6.803   4.183  17.829  0.00  0.00    +0.000 OA
BRANCH  21  22
ATOM     22  C   UNL     1       5.654   3.953  16.975  0.00  0.00    +0.000 C 
BRANCH  22  23
ATOM     23  C   UNL     1       4.312   3.835  17.712  0.00  0.00    +0.000 A 
ATOM     24  C   UNL     1       3.120   3.723  17.011  0.00  0.00    +0.000 A 
ATOM     25  C   UNL     1       1.929   3.558  17.714  0.00  0.00    +0.000 A 
ATOM     26  C   UNL     1       1.947   3.382  19.100  0.00  0.00    +0.000 A 
ATOM     27  C   UNL     1       0.763   3.080  19.796  0.00  0.00    +0.000 A 
ATOM     28  C   UNL     1       0.799   2.754  21.148  0.00  0.00    +0.000 A 
ATOM     29  C   UNL     1       2.015   2.794  21.815  0.00  0.00    +0.000 A 
ATOM     30  C   UNL     1       3.181   3.167  21.128  0.00  0.00    +0.000 A 
ATOM     31  C   UNL     1       3.190   3.448  19.756  0.00  0.00    +0.000 A 
ATOM     32  N   UNL     1       4.341   3.711  19.078  0.00  0.00    +0.000 NA
ENDBRANCH  22  23
ENDBRANCH  21  22
ENDBRANCH   4  21
TORSDOF 8
ENDMDL
MODEL 7
REMARK VINA RESULT:      -8.6      4.534      8.605
REMARK  Name = 
REMARK  8 active torsions:
REMARK  status: ('A' for Active; 'I' for Inactive)
REMARK    1  A    between atoms: C_2  and  O_3
REMARK    2  A    between atoms: C_2  and  C_4
REMARK    3  A    between atoms: C_9  and  C_10
REMARK    4  A    between atoms: C_10  and  C_12
REMARK    5  A    between atoms: C_13  and  C_14
REMARK    6  A    between atoms: C_17  and  O_18
REMARK    7  A    between atoms: O_18  and  C_19
REMARK    8  A    between atoms: C_19  and  C_20
REMARK                            x       y       z     vdW  Elec       q    Type
REMARK                         _______ _______ _______ _____ _____    ______ ____
ROOT
ATOM      1  C   UNL     1       7.959   8.023  17.982  0.00  0.00    +0.000 A 
ATOM      2  C   UNL     1       8.268   7.038  18.927  0.00  0.00    +0.000 A 
ATOM      3  C   UNL     1       7.625   5.779  18.915  0.00  0.00    +0.000 A 
ATOM      4  C   UNL     1       6.659   5.467  17.959  0.00  0.00    +0.000 A 
ATOM      5  C   UNL     1       6.370   6.443  16.993  0.00  0.00    +0.000 A 
ATOM      6  C   UNL     1       7.004   7.709  17.010  0.00  0.00    +0.000 A 
ENDROOT
BRANCH   1   8
ATOM      7  C   UNL     1       9.255   9.826  19.118  0.00  0.00    +0.000 C 
ATOM      8  C   UNL     1       8.591   9.358  18.045  0.00  0.00    +0.000 C 
BRANCH   7   9
ATOM      9  C   UNL     1       9.917  11.176  19.122  0.00  0.00    +0.000 C 
ATOM     10  O   UNL     1      10.950  11.407  18.498  0.00  0.00    +0.000 OA
BRANCH   9  16
ATOM     11  C   UNL     1       8.748  13.434  19.470  0.00  0.00    +0.000 A 
ATOM     12  C   UNL     1       8.261  14.398  20.384  0.00  0.00    +0.000 A 
ATOM     13  C   UNL     1       8.366  14.215  21.763  0.00  0.00    +0.000 A 
ATOM     14  C   UNL     1       8.966  13.066  22.255  0.00  0.00    +0.000 A 
ATOM     15  C   UNL     1       9.452  12.100  21.371  0.00  0.00    +0.000 A 
ATOM     16  C   UNL     1       9.334  12.254  19.973  0.00  0.00    +0.000 A 
BRANCH  11  18
ATOM     17  O   UNL     1       7.418  13.553  17.521  0.00  0.00    +0.000 OA
ATOM     18  C   UNL     1       8.500  13.787  18.042  0.00  0.00    +0.000 C 
BRANCH  18  19
ATOM     19  O   UNL     1       9.447  14.500  17.413  0.00  0.00    +0.000 OA
ATOM     20  H   UNL     1       9.308  15.476  17.387  0.00  0.00    +0.000 HD
ENDBRANCH  18  19
ENDBRANCH  11  18
ENDBRANCH   9  16
ENDBRANCH   7   9
ENDBRANCH   1   8
BRANCH   4  21
ATOM     21  O   UNL     1       5.989   4.267  17.849  0.00  0.00    +0.000 OA
BRANCH  21  22
ATOM     22  C   UNL     1       4.609   4.300  17.406  0.00  0.00    +0.000 C 
BRANCH  22  23
ATOM     23  C   UNL     1       3.660   5.107  18.304  0.00  0.00    +0.000 A 
ATOM     24  C   UNL     1       3.419   4.721  19.615  0.00  0.00    +0.000 A 
ATOM     25  C   UNL     1       2.598   5.511  20.417  0.00  0.00    +0.000 A 
ATOM     26  C   UNL     1       2.125   6.739  19.948  0.00  0.00    +0.000 A 
ATOM     27  C   UNL     1       1.410   7.600  20.800  0.00  0.00    +0.000 A 
ATOM     28  C   UNL     1       1.070   8.884  20.386  0.00  0.00    +0.000 A 
ATOM     29  C   UNL     1       1.392   9.281  19.096  0.00  0.00    +0.000 A 
ATOM     30  C   UNL     1       2.041   8.388  18.228  0.00  0.00    +0.000 A 
ATOM     31  C   UNL     1       2.446   7.109  18.629  0.00  0.00    +0.000 A 
ATOM     32  N   UNL     1       3.164   6.288  17.814  0.00  0.00    +0.000 NA
ENDBRANCH  22  23
ENDBRANCH  21  22
ENDBRANCH   4  21
TORSDOF 8
ENDMDL
MODEL 8
REMARK VINA RESULT:      -8.5      3.014      4.643
REMARK  Name = 
REMARK  8 active torsions:
REMARK  status: ('A' for Active; 'I' for Inactive)
REMARK    1  A    between atoms: C_2  and  O_3
REMARK    2  A    between atoms: C_2  and  C_4
REMARK    3  A    between atoms: C_9  and  C_10
REMARK    4  A    between atoms: C_10  and  C_12
REMARK    5  A    between atoms: C_13  and  C_14
REMARK    6  A    between atoms: C_17  and  O_18
REMARK    7  A    between atoms: O_18  and  C_19
REMARK    8  A    between atoms: C_19  and  C_20
REMARK                            x       y       z     vdW  Elec       q    Type
REMARK                         _______ _______ _______ _____ _____    ______ ____
ROOT
ATOM      1  C   UNL     1       2.529   7.744  18.690  0.00  0.00    +0.000 A 
ATOM      2  C   UNL     1       1.992   7.819  19.980  0.00  0.00    +0.000 A 
ATOM      3  C   UNL     1       0.973   8.744  20.301  0.00  0.00    +0.000 A 
ATOM      4  C   UNL     1       0.458   9.616  19.343  0.00  0.00    +0.000 A 
ATOM      5  C   UNL     1       0.974   9.521  18.042  0.00  0.00    +0.000 A 
ATOM      6  C   UNL     1       2.003   8.604  17.720  0.00  0.00    +0.000 A 
ENDROOT
BRANCH   1   8
ATOM      7  C   UNL     1       4.308   6.110  19.315  0.00  0.00    +0.000 C 
ATOM      8  C   UNL     1       3.641   6.818  18.384  0.00  0.00    +0.000 C 
BRANCH   7   9
ATOM      9  C   UNL     1       5.406   5.149  18.952  0.00  0.00    +0.000 C 
ATOM     10  O   UNL     1       6.174   4.679  19.787  0.00  0.00    +0.000 OA
BRANCH   9  16
ATOM     11  C   UNL     1       4.863   3.845  16.809  0.00  0.00    +0.000 A 
ATOM     12  C   UNL     1       5.179   3.591  15.454  0.00  0.00    +0.000 A 
ATOM     13  C   UNL     1       6.219   4.259  14.809  0.00  0.00    +0.000 A 
ATOM     14  C   UNL     1       6.970   5.191  15.510  0.00  0.00    +0.000 A 
ATOM     15  C   UNL     1       6.675   5.458  16.848  0.00  0.00    +0.000 A 
ATOM     16  C   UNL     1       5.611   4.812  17.513  0.00  0.00    +0.000 A 
BRANCH  11  18
ATOM     17  O   UNL     1       2.552   3.492  17.150  0.00  0.00    +0.000 OA
ATOM     18  C   UNL     1       3.689   3.068  17.304  0.00  0.00    +0.000 C 
BRANCH  18  19
ATOM     19  O   UNL     1       3.925   1.835  17.778  0.00  0.00    +0.000 OA
ATOM     20  H   UNL     1       4.033   1.761  18.756  0.00  0.00    +0.000 HD
ENDBRANCH  18  19
ENDBRANCH  11  18
ENDBRANCH   9  16
ENDBRANCH   7   9
ENDBRANCH   1   8
BRANCH   4  21
ATOM     21  O   UNL     1      -0.546  10.539  19.547  0.00  0.00    +0.000 OA
BRANCH  21  22
ATOM     22  C   UNL     1      -0.911  11.399  18.438  0.00  0.00    +0.000 C 
BRANCH  22  23
ATOM     23  C   UNL     1      -2.421  11.587  18.232  0.00  0.00    +0.000 A 
ATOM     24  C   UNL     1      -3.041  11.158  17.066  0.00  0.00    +0.000 A 
ATOM     25  C   UNL     1      -4.422  11.291  16.941  0.00  0.00    +0.000 A 
ATOM     26  C   UNL     1      -5.188  11.735  18.021  0.00  0.00    +0.000 A 
ATOM     27  C   UNL     1      -6.592  11.742  17.944  0.00  0.00    +0.000 A 
ATOM     28  C   UNL     1      -7.362  12.037  19.064  0.00  0.00    +0.000 A 
ATOM     29  C   UNL     1      -6.722  12.385  20.246  0.00  0.00    +0.000 A 
ATOM     30  C   UNL     1      -5.320  12.446  20.293  0.00  0.00    +0.000 A 
ATOM     31  C   UNL     1      -4.514  12.104  19.200  0.00  0.00    +0.000 A 
ATOM     32  N   UNL     1      -3.155  12.068  19.285  0.00  0.00    +0.000 NA
ENDBRANCH  22  23
ENDBRANCH  21  22
ENDBRANCH   4  21
TORSDOF 8
ENDMDL
MODEL 9
REMARK VINA RESULT:      -8.5      4.676      8.407
REMARK  Name = 
REMARK  8 active torsions:
REMARK  status: ('A' for Active; 'I' for Inactive)
REMARK    1  A    between atoms: C_2  and  O_3
REMARK    2  A    between atoms: C_2  and  C_4
REMARK    3  A    between atoms: C_9  and  C_10
REMARK    4  A    between atoms: C_10  and  C_12
REMARK    5  A    between atoms: C_13  and  C_14
REMARK    6  A    between atoms: C_17  and  O_18
REMARK    7  A    between atoms: O_18  and  C_19
REMARK    8  A    between atoms: C_19  and  C_20
REMARK                            x       y       z     vdW  Elec       q    Type
REMARK                         _______ _______ _______ _____ _____    ______ ____
ROOT
ATOM      1  C   UNL     1       7.908   7.858  18.030  0.00  0.00    +0.000 A 
ATOM      2  C   UNL     1       8.196   6.835  18.940  0.00  0.00    +0.000 A 
ATOM      3  C   UNL     1       7.610   5.555  18.817  0.00  0.00    +0.000 A 
ATOM      4  C   UNL     1       6.725   5.259  17.780  0.00  0.00    +0.000 A 
ATOM      5  C   UNL     1       6.460   6.275  16.850  0.00  0.00    +0.000 A 
ATOM      6  C   UNL     1       7.036   7.562  16.978  0.00  0.00    +0.000 A 
ENDROOT
BRANCH   1   8
ATOM      7  C   UNL     1       7.959  10.324  17.651  0.00  0.00    +0.000 C 
ATOM      8  C   UNL     1       8.476   9.212  18.208  0.00  0.00    +0.000 C 
BRANCH   7   9
ATOM      9  C   UNL     1       8.547  11.686  17.893  0.00  0.00    +0.000 C 
ATOM     10  O   UNL     1       8.056  12.710  17.424  0.00  0.00    +0.000 OA
BRANCH   9  16
ATOM     11  C   UNL     1       9.893  12.252  20.003  0.00  0.00    +0.000 A 
ATOM     12  C   UNL     1      11.163  12.334  20.624  0.00  0.00    +0.000 A 
ATOM     13  C   UNL     1      12.330  11.985  19.946  0.00  0.00    +0.000 A 
ATOM     14  C   UNL     1      12.253  11.553  18.631  0.00  0.00    +0.000 A 
ATOM     15  C   UNL     1      11.010  11.463  17.999  0.00  0.00    +0.000 A 
ATOM     16  C   UNL     1       9.815  11.787  18.674  0.00  0.00    +0.000 A 
BRANCH  11  18
ATOM     17  O   UNL     1       8.576  12.011  21.950  0.00  0.00    +0.000 OA
ATOM     18  C   UNL     1       8.764  12.620  20.905  0.00  0.00    +0.000 C 
BRANCH  18  19
ATOM     19  O   UNL     1       8.071  13.728  20.599  0.00  0.00    +0.000 OA
ATOM     20  H   UNL     1       7.332  13.613  19.957  0.00  0.00    +0.000 HD
ENDBRANCH  18  19
ENDBRANCH  11  18
ENDBRANCH   9  16
ENDBRANCH   7   9
ENDBRANCH   1   8
BRANCH   4  21
ATOM     21  O   UNL     1       6.117   4.041  17.560  0.00  0.00    +0.000 OA
BRANCH  21  22
ATOM     22  C   UNL     1       4.720   4.043  17.171  0.00  0.00    +0.000 C 
BRANCH  22  23
ATOM     23  C   UNL     1       3.790   4.839  18.098  0.00  0.00    +0.000 A 
ATOM     24  C   UNL     1       3.556   4.425  19.401  0.00  0.00    +0.000 A 
ATOM     25  C   UNL     1       2.753   5.206  20.230  0.00  0.00    +0.000 A 
ATOM     26  C   UNL     1       2.293   6.451  19.796  0.00  0.00    +0.000 A 
ATOM     27  C   UNL     1       1.597   7.300  20.675  0.00  0.00    +0.000 A 
ATOM     28  C   UNL     1       1.271   8.598  20.296  0.00  0.00    +0.000 A 
ATOM     29  C   UNL     1       1.586   9.022  19.013  0.00  0.00    +0.000 A 
ATOM     30  C   UNL     1       2.215   8.142  18.117  0.00  0.00    +0.000 A 
ATOM     31  C   UNL     1       2.606   6.849  18.483  0.00  0.00    +0.000 A 
ATOM     32  N   UNL     1       3.306   6.038  17.641  0.00  0.00    +0.000 NA
ENDBRANCH  22  23
ENDBRANCH  21  22
ENDBRANCH   4  21
TORSDOF 8
ENDMDL
