MODEL 1
REMARK VINA RESULT:      -8.3      0.000      0.000
REMARK  Name = 
REMARK  11 active torsions:
REMARK  status: ('A' for Active; 'I' for Inactive)
REMARK    1  A    between atoms: C_1  and  C_2
REMARK    2  A    between atoms: C_2  and  C_3
REMARK    3  A    between atoms: N_6  and  C_7
REMARK    4  A    between atoms: C_7  and  C_8
REMARK    5  A    between atoms: N_16  and  C_17
REMARK    6  A    between atoms: C_17  and  C_18
REMARK    7  A    between atoms: C_18  and  C_19
REMARK    8  A    between atoms: C_19  and  C_20
REMARK    9  A    between atoms: C_20  and  C_21
REMARK   10  A    between atoms: C_21  and  N_22
REMARK   11  A    between atoms: N_25  and  C_26
REMARK                            x       y       z     vdW  Elec       q    Type
REMARK                         _______ _______ _______ _____ _____    ______ ____
ROOT
ATOM      1  C   UNL     1       7.341   7.554  16.939  0.00  0.00    +0.000 C 
ENDROOT
BRANCH   1  10
ATOM      2  C   UNL     1       7.777   5.748  19.522  0.00  0.00    +0.000 C 
ATOM      3  C   UNL     1       7.018   5.361  18.266  0.00  0.00    +0.000 C 
ATOM      4  C   UNL     1       7.813   4.380  17.391  0.00  0.00    +0.000 C 
ATOM      5  C   UNL     1       5.692   4.649  18.567  0.00  0.00    +0.000 C 
ATOM      6  O   UNL     1       5.551   3.718  19.349  0.00  0.00    +0.000 OA
ATOM      7  N   UNL     1       4.759   5.113  17.683  0.00  0.00    +0.000 N 
ATOM      8  C   UNL     1       5.207   6.236  17.046  0.00  0.00    +0.000 C 
ATOM      9  O   UNL     1       4.593   6.903  16.229  0.00  0.00    +0.000 OA
ATOM     10  N   UNL     1       6.512   6.478  17.473  0.00  0.00    +0.000 N 
BRANCH   7  11
ATOM     11  C   UNL     1       3.556   4.401  17.338  0.00  0.00    +0.000 C 
BRANCH  11  12
ATOM     12  C   UNL     1       2.660   4.097  18.506  0.00  0.00    +0.000 A 
ATOM     13  C   UNL     1       2.283   2.777  18.780  0.00  0.00    +0.000 A 
ATOM     14  C   UNL     1       1.516   2.480  19.904  0.00  0.00    +0.000 A 
ATOM     15  C   UNL     1       1.108   3.502  20.758  0.00  0.00    +0.000 A 
ATOM     16  C   UNL     1       1.456   4.823  20.482  0.00  0.00    +0.000 A 
ATOM     17  C   UNL     1       2.226   5.122  19.358  0.00  0.00    +0.000 A 
ENDBRANCH  11  12
ENDBRANCH   7  11
ENDBRANCH   1  10
BRANCH   1  18
ATOM     18  C   UNL     1       7.236   8.809  17.801  0.00  0.00    +0.000 C 
BRANCH  18  19
ATOM     19  C   UNL     1       8.523   9.113  18.578  0.00  0.00    +0.000 C 
BRANCH  19  20
ATOM     20  C   UNL     1       9.168  10.386  18.024  0.00  0.00    +0.000 C 
BRANCH  20  21
ATOM     21  C   UNL     1      10.160  11.063  18.978  0.00  0.00    +0.000 C 
BRANCH  21  22
ATOM     22  N   UNL     1      11.309  11.720  18.330  0.00  0.00    +0.000 NA
ATOM     23  C   UNL     1      10.911  12.674  17.266  0.00  0.00    +0.000 C 
ATOM     24  C   UNL     1      10.114  13.896  17.767  0.00  0.00    +0.000 C 
ATOM     25  N   UNL     1      10.827  14.589  18.850  0.00  0.00    +0.000 N 
ATOM     26  C   UNL     1      11.385  13.740  19.918  0.00  0.00    +0.000 C 
ATOM     27  C   UNL     1      12.095  12.492  19.330  0.00  0.00    +0.000 C 
BRANCH  25  28
ATOM     28  C   UNL     1      11.259  15.897  18.722  0.00  0.00    +0.000 A 
ATOM     29  C   UNL     1      11.917  16.537  19.782  0.00  0.00    +0.000 A 
ATOM     30  C   UNL     1      12.333  17.872  19.689  0.00  0.00    +0.000 A 
ATOM     31  C   UNL     1      12.103  18.592  18.525  0.00  0.00    +0.000 A 
ATOM     32  C   UNL     1      11.461  17.977  17.452  0.00  0.00    +0.000 A 
ATOM     33  C   UNL     1      11.046  16.647  17.556  0.00  0.00    +0.000 A 
ENDBRANCH  25  28
ENDBRANCH  21  22
ENDBRANCH  20  21
ENDBRANCH  19  20
ENDBRANCH  18  19
ENDBRANCH   1  18
TORSDOF 9
ENDMDL
MODEL 2
REMARK VINA RESULT:      -8.3      1.246      2.227
REMARK  Name = 
REMARK  11 active torsions:
REMARK  status: ('A' for Active; 'I' for Inactive)
REMARK    1  A    between atoms: C_1  and  C_2
REMARK    2  A    between atoms: C_2  and  C_3
REMARK    3  A    between atoms: N_6  and  C_7
REMARK    4  A    between atoms: C_7  and  C_8
REMARK    5  A    between atoms: N_16  and  C_17
REMARK    6  A    between atoms: C_17  and  C_18
REMARK    7  A    between atoms: C_18  and  C_19
REMARK    8  A    between atoms: C_19  and  C_20
REMARK    9  A    between atoms: C_20  and  C_21
REMARK   10  A    between atoms: C_21  and  N_22
REMARK   11  A    between atoms: N_25  and  C_26
REMARK                            x       y       z     vdW  Elec       q    Type
REMARK                         _______ _______ _______ _____ _____    ______ ____
ROOT
ATOM      1  C   UNL     1       7.553   6.699  17.005  0.00  0.00    +0.000 C 
ENDROOT
BRANCH   1  10
ATOM      2  C   UNL     1       5.503   5.379  14.958  0.00  0.00    +0.000 C 
ATOM      3  C   UNL     1       5.312   5.536  16.457  0.00  0.00    +0.000 C 
ATOM      4  C   UNL     1       4.319   6.657  16.796  0.00  0.00    +0.000 C 
ATOM      5  C   UNL     1       4.739   4.275  17.118  0.00  0.00    +0.000 C 
ATOM      6  O   UNL     1       3.770   3.643  16.717  0.00  0.00    +0.000 OA
ATOM      7  N   UNL     1       5.380   4.102  18.313  0.00  0.00    +0.000 N 
ATOM      8  C   UNL     1       6.490   4.894  18.389  0.00  0.00    +0.000 C 
ATOM      9  O   UNL     1       7.289   4.941  19.311  0.00  0.00    +0.000 OA
ATOM     10  N   UNL     1       6.541   5.671  17.232  0.00  0.00    +0.000 N 
BRANCH   7  11
ATOM     11  C   UNL     1       4.845   3.334  19.407  0.00  0.00    +0.000 C 
BRANCH  11  12
ATOM     12  C   UNL     1       3.447   3.714  19.806  0.00  0.00    +0.000 A 
ATOM     13  C   UNL     1       3.138   5.046  20.111  0.00  0.00    +0.000 A 
ATOM     14  C   UNL     1       1.829   5.418  20.407  0.00  0.00    +0.000 A 
ATOM     15  C   UNL     1       0.818   4.460  20.413  0.00  0.00    +0.000 A 
ATOM     16  C   UNL     1       1.117   3.127  20.136  0.00  0.00    +0.000 A 
ATOM     17  C   UNL     1       2.427   2.753  19.837  0.00  0.00    +0.000 A 
ENDBRANCH  11  12
ENDBRANCH   7  11
ENDBRANCH   1  10
BRANCH   1  18
ATOM     18  C   UNL     1       7.232   7.970  17.786  0.00  0.00    +0.000 C 
BRANCH  18  19
ATOM     19  C   UNL     1       8.481   8.667  18.339  0.00  0.00    +0.000 C 
BRANCH  19  20
ATOM     20  C   UNL     1       8.423  10.161  18.010  0.00  0.00    +0.000 C 
BRANCH  20  21
ATOM     21  C   UNL     1       9.763  10.895  18.147  0.00  0.00    +0.000 C 
BRANCH  21  22
ATOM     22  N   UNL     1       9.886  11.765  19.330  0.00  0.00    +0.000 NA
ATOM     23  C   UNL     1      11.282  12.187  19.601  0.00  0.00    +0.000 C 
ATOM     24  C   UNL     1      11.904  13.081  18.509  0.00  0.00    +0.000 C 
ATOM     25  N   UNL     1      11.052  14.246  18.225  0.00  0.00    +0.000 N 
ATOM     26  C   UNL     1       9.612  13.980  18.054  0.00  0.00    +0.000 C 
ATOM     27  C   UNL     1       9.088  13.007  19.144  0.00  0.00    +0.000 C 
BRANCH  25  28
ATOM     28  C   UNL     1      11.486  15.541  18.444  0.00  0.00    +0.000 A 
ATOM     29  C   UNL     1      11.632  16.032  19.749  0.00  0.00    +0.000 A 
ATOM     30  C   UNL     1      12.038  17.350  19.996  0.00  0.00    +0.000 A 
ATOM     31  C   UNL     1      12.313  18.203  18.937  0.00  0.00    +0.000 A 
ATOM     32  C   UNL     1      12.187  17.737  17.629  0.00  0.00    +0.000 A 
ATOM     33  C   UNL     1      11.777  16.422  17.393  0.00  0.00    +0.000 A 
ENDBRANCH  25  28
ENDBRANCH  21  22
ENDBRANCH  20  21
ENDBRANCH  19  20
ENDBRANCH  18  19
ENDBRANCH   1  18
TORSDOF 9
ENDMDL
MODEL 3
REMARK VINA RESULT:      -8.2      1.144      1.931
REMARK  Name = 
REMARK  11 active torsions:
REMARK  status: ('A' for Active; 'I' for Inactive)
REMARK    1  A    between atoms: C_1  and  C_2
REMARK    2  A    between atoms: C_2  and  C_3
REMARK    3  A    between atoms: N_6  and  C_7
REMARK    4  A    between atoms: C_7  and  C_8
REMARK    5  A    between atoms: N_16  and  C_17
REMARK    6  A    between atoms: C_17  and  C_18
REMARK    7  A    between atoms: C_18  and  C_19
REMARK    8  A    between atoms: C_19  and  C_20
REMARK    9  A    between atoms: C_20  and  C_21
REMARK   10  A    between atoms: C_21  and  N_22
REMARK   11  A    between atoms: N_25  and  C_26
REMARK                            x       y       z     vdW  Elec       q    Type
REMARK                         _______ _______ _______ _____ _____    ______ ____
ROOT
ATOM      1  C   UNL     1       6.615   7.593  16.788  0.00  0.00    +0.000 C 
ENDROOT
BRANCH   1  10
ATOM      2  C   UNL     1       7.385   4.562  17.379  0.00  0.00    +0.000 C 
ATOM      3  C   UNL     1       6.072   5.067  16.806  0.00  0.00    +0.000 C 
ATOM      4  C   UNL     1       5.957   4.790  15.300  0.00  0.00    +0.000 C 
ATOM      5  C   UNL     1       4.848   4.389  17.435  0.00  0.00    +0.000 C 
ATOM      6  O   UNL     1       4.708   3.182  17.590  0.00  0.00    +0.000 OA
ATOM      7  N   UNL     1       3.887   5.344  17.614  0.00  0.00    +0.000 N 
ATOM      8  C   UNL     1       4.414   6.597  17.470  0.00  0.00    +0.000 C 
ATOM      9  O   UNL     1       3.821   7.656  17.604  0.00  0.00    +0.000 OA
ATOM     10  N   UNL     1       5.753   6.459  17.109  0.00  0.00    +0.000 N 
BRANCH   7  11
ATOM     11  C   UNL     1       2.483   5.056  17.747  0.00  0.00    +0.000 C 
BRANCH  11  12
ATOM     12  C   UNL     1       2.124   4.279  18.982  0.00  0.00    +0.000 A 
ATOM     13  C   UNL     1       2.573   4.704  20.238  0.00  0.00    +0.000 A 
ATOM     14  C   UNL     1       2.181   4.033  21.394  0.00  0.00    +0.000 A 
ATOM     15  C   UNL     1       1.346   2.922  21.303  0.00  0.00    +0.000 A 
ATOM     16  C   UNL     1       0.913   2.473  20.056  0.00  0.00    +0.000 A 
ATOM     17  C   UNL     1       1.303   3.146  18.898  0.00  0.00    +0.000 A 
ENDBRANCH  11  12
ENDBRANCH   7  11
ENDBRANCH   1  10
BRANCH   1  18
ATOM     18  C   UNL     1       7.609   7.865  17.913  0.00  0.00    +0.000 C 
BRANCH  18  19
ATOM     19  C   UNL     1       8.201   9.279  17.863  0.00  0.00    +0.000 C 
BRANCH  19  20
ATOM     20  C   UNL     1       8.995   9.549  19.144  0.00  0.00    +0.000 C 
BRANCH  20  21
ATOM     21  C   UNL     1       9.901  10.785  19.082  0.00  0.00    +0.000 C 
BRANCH  21  22
ATOM     22  N   UNL     1       9.359  11.995  19.725  0.00  0.00    +0.000 NA
ATOM     23  C   UNL     1      10.343  12.683  20.597  0.00  0.00    +0.000 C 
ATOM     24  C   UNL     1      11.562  13.263  19.852  0.00  0.00    +0.000 C 
ATOM     25  N   UNL     1      11.144  14.137  18.746  0.00  0.00    +0.000 N 
ATOM     26  C   UNL     1      10.078  13.622  17.869  0.00  0.00    +0.000 C 
ATOM     27  C   UNL     1       8.931  12.981  18.696  0.00  0.00    +0.000 C 
BRANCH  25  28
ATOM     28  C   UNL     1      11.462  15.483  18.717  0.00  0.00    +0.000 A 
ATOM     29  C   UNL     1      11.407  16.202  17.514  0.00  0.00    +0.000 A 
ATOM     30  C   UNL     1      11.756  17.558  17.452  0.00  0.00    +0.000 A 
ATOM     31  C   UNL     1      12.163  18.223  18.600  0.00  0.00    +0.000 A 
ATOM     32  C   UNL     1      12.218  17.535  19.810  0.00  0.00    +0.000 A 
ATOM     33  C   UNL     1      11.871  16.182  19.861  0.00  0.00    +0.000 A 
ENDBRANCH  25  28
ENDBRANCH  21  22
ENDBRANCH  20  21
ENDBRANCH  19  20
ENDBRANCH  18  19
ENDBRANCH   1  18
TORSDOF 9
ENDMDL
MODEL 4
REMARK VINA RESULT:      -8.2      2.674      3.569
REMARK  Name = 
REMARK  11 active torsions:
REMARK  status: ('A' for Active; 'I' for Inactive)
REMARK    1  A    between atoms: C_1  and  C_2
REMARK    2  A    between atoms: C_2  and  C_3
REMARK    3  A    between atoms: N_6  and  C_7
REMARK    4  A    between atoms: C_7  and  C_8
REMARK    5  A    between atoms: N_16  and  C_17
REMARK    6  A    between atoms: C_17  and  C_18
REMARK    7  A    between atoms: C_18  and  C_19
REMARK    8  A    between atoms: C_19  and  C_20
REMARK    9  A    between atoms: C_20  and  C_21
REMARK   10  A    between atoms: C_21  and  N_22
REMARK   11  A    between atoms: N_25  and  C_26
REMARK                            x       y       z     vdW  Elec       q    Type
REMARK                         _______ _______ _______ _____ _____    ______ ____
ROOT
ATOM      1  C   UNL     1       7.676   7.601  17.032  0.00  0.00    +0.000 C 
ENDROOT
BRANCH   1  10
ATOM      2  C   UNL     1       7.892   5.744  19.607  0.00  0.00    +0.000 C 
ATOM      3  C   UNL     1       7.138   5.431  18.326  0.00  0.00    +0.000 C 
ATOM      4  C   UNL     1       7.875   4.395  17.464  0.00  0.00    +0.000 C 
ATOM      5  C   UNL     1       5.751   4.827  18.584  0.00  0.00    +0.000 C 
ATOM      6  O   UNL     1       5.512   3.904  19.352  0.00  0.00    +0.000 OA
ATOM      7  N   UNL     1       4.884   5.373  17.680  0.00  0.00    +0.000 N 
ATOM      8  C   UNL     1       5.439   6.461  17.068  0.00  0.00    +0.000 C 
ATOM      9  O   UNL     1       4.905   7.183  16.241  0.00  0.00    +0.000 OA
ATOM     10  N   UNL     1       6.747   6.592  17.533  0.00  0.00    +0.000 N 
BRANCH   7  11
ATOM     11  C   UNL     1       3.636   4.765  17.296  0.00  0.00    +0.000 C 
BRANCH  11  12
ATOM     12  C   UNL     1       2.666   4.575  18.427  0.00  0.00    +0.000 A 
ATOM     13  C   UNL     1       1.989   3.358  18.579  0.00  0.00    +0.000 A 
ATOM     14  C   UNL     1       1.147   3.148  19.668  0.00  0.00    +0.000 A 
ATOM     15  C   UNL     1       0.962   4.158  20.609  0.00  0.00    +0.000 A 
ATOM     16  C   UNL     1       1.609   5.383  20.456  0.00  0.00    +0.000 A 
ATOM     17  C   UNL     1       2.456   5.594  19.366  0.00  0.00    +0.000 A 
ENDBRANCH  11  12
ENDBRANCH   7  11
ENDBRANCH   1  10
BRANCH   1  18
ATOM     18  C   UNL     1       7.500   8.925  17.770  0.00  0.00    +0.000 C 
BRANCH  18  19
ATOM     19  C   UNL     1       8.718   9.304  18.622  0.00  0.00    +0.000 C 
BRANCH  19  20
ATOM     20  C   UNL     1       9.438  10.496  17.985  0.00  0.00    +0.000 C 
BRANCH  20  21
ATOM     21  C   UNL     1       8.976  11.866  18.498  0.00  0.00    +0.000 C 
BRANCH  21  22
ATOM     22  N   UNL     1       9.960  12.595  19.317  0.00  0.00    +0.000 NA
ATOM     23  C   UNL     1       9.467  13.914  19.785  0.00  0.00    +0.000 C 
ATOM     24  C   UNL     1       8.268  13.842  20.753  0.00  0.00    +0.000 C 
ATOM     25  N   UNL     1       8.555  12.958  21.892  0.00  0.00    +0.000 N 
ATOM     26  C   UNL     1       9.166  11.655  21.575  0.00  0.00    +0.000 C 
ATOM     27  C   UNL     1      10.305  11.808  20.532  0.00  0.00    +0.000 C 
BRANCH  25  28
ATOM     28  C   UNL     1       8.585  13.428  23.193  0.00  0.00    +0.000 A 
ATOM     29  C   UNL     1       8.866  14.777  23.456  0.00  0.00    +0.000 A 
ATOM     30  C   UNL     1       8.935  15.270  24.766  0.00  0.00    +0.000 A 
ATOM     31  C   UNL     1       8.717  14.420  25.842  0.00  0.00    +0.000 A 
ATOM     32  C   UNL     1       8.425  13.078  25.608  0.00  0.00    +0.000 A 
ATOM     33  C   UNL     1       8.362  12.594  24.297  0.00  0.00    +0.000 A 
ENDBRANCH  25  28
ENDBRANCH  21  22
ENDBRANCH  20  21
ENDBRANCH  19  20
ENDBRANCH  18  19
ENDBRANCH   1  18
TORSDOF 9
ENDMDL
MODEL 5
REMARK VINA RESULT:      -7.9      1.267      1.644
REMARK  Name = 
REMARK  11 active torsions:
REMARK  status: ('A' for Active; 'I' for Inactive)
REMARK    1  A    between atoms: C_1  and  C_2
REMARK    2  A    between atoms: C_2  and  C_3
REMARK    3  A    between atoms: N_6  and  C_7
REMARK    4  A    between atoms: C_7  and  C_8
REMARK    5  A    between atoms: N_16  and  C_17
REMARK    6  A    between atoms: C_17  and  C_18
REMARK    7  A    between atoms: C_18  and  C_19
REMARK    8  A    between atoms: C_19  and  C_20
REMARK    9  A    between atoms: C_20  and  C_21
REMARK   10  A    between atoms: C_21  and  N_22
REMARK   11  A    between atoms: N_25  and  C_26
REMARK                            x       y       z     vdW  Elec       q    Type
REMARK                         _______ _______ _______ _____ _____    ______ ____
ROOT
ATOM      1  C   UNL     1       7.535   7.611  17.147  0.00  0.00    +0.000 C 
ENDROOT
BRANCH   1  10
ATOM      2  C   UNL     1       7.829   5.617  19.609  0.00  0.00    +0.000 C 
ATOM      3  C   UNL     1       7.067   5.358  18.321  0.00  0.00    +0.000 C 
ATOM      4  C   UNL     1       7.818   4.392  17.392  0.00  0.00    +0.000 C 
ATOM      5  C   UNL     1       5.699   4.707  18.560  0.00  0.00    +0.000 C 
ATOM      6  O   UNL     1       5.493   3.736  19.277  0.00  0.00    +0.000 OA
ATOM      7  N   UNL     1       4.807   5.281  17.699  0.00  0.00    +0.000 N 
ATOM      8  C   UNL     1       5.327   6.416  17.144  0.00  0.00    +0.000 C 
ATOM      9  O   UNL     1       4.765   7.170  16.365  0.00  0.00    +0.000 OA
ATOM     10  N   UNL     1       6.638   6.552  17.600  0.00  0.00    +0.000 N 
BRANCH   7  11
ATOM     11  C   UNL     1       3.570   4.665  17.296  0.00  0.00    +0.000 C 
BRANCH  11  12
ATOM     12  C   UNL     1       2.620   4.385  18.426  0.00  0.00    +0.000 A 
ATOM     13  C   UNL     1       2.396   5.351  19.415  0.00  0.00    +0.000 A 
ATOM     14  C   UNL     1       1.461   5.128  20.422  0.00  0.00    +0.000 A 
ATOM     15  C   UNL     1       0.748   3.932  20.457  0.00  0.00    +0.000 A 
ATOM     16  C   UNL     1       0.980   2.952  19.494  0.00  0.00    +0.000 A 
ATOM     17  C   UNL     1       1.915   3.175  18.482  0.00  0.00    +0.000 A 
ENDBRANCH  11  12
ENDBRANCH   7  11
ENDBRANCH   1  10
BRANCH   1  18
ATOM     18  C   UNL     1       7.515   8.798  18.106  0.00  0.00    +0.000 C 
BRANCH  18  19
ATOM     19  C   UNL     1       8.706   9.745  17.915  0.00  0.00    +0.000 C 
BRANCH  19  20
ATOM     20  C   UNL     1       9.192  10.239  19.281  0.00  0.00    +0.000 C 
BRANCH  20  21
ATOM     21  C   UNL     1      10.552  10.948  19.252  0.00  0.00    +0.000 C 
BRANCH  21  22
ATOM     22  N   UNL     1      10.761  11.950  20.311  0.00  0.00    +0.000 NA
ATOM     23  C   UNL     1      11.733  13.006  19.932  0.00  0.00    +0.000 C 
ATOM     24  C   UNL     1      11.280  13.901  18.760  0.00  0.00    +0.000 C 
ATOM     25  N   UNL     1       9.952  14.480  19.014  0.00  0.00    +0.000 N 
ATOM     26  C   UNL     1       8.919  13.557  19.516  0.00  0.00    +0.000 C 
ATOM     27  C   UNL     1       9.481  12.638  20.633  0.00  0.00    +0.000 C 
BRANCH  25  28
ATOM     28  C   UNL     1       9.758  15.846  19.117  0.00  0.00    +0.000 A 
ATOM     29  C   UNL     1      10.295  16.562  20.197  0.00  0.00    +0.000 A 
ATOM     30  C   UNL     1      10.083  17.940  20.342  0.00  0.00    +0.000 A 
ATOM     31  C   UNL     1       9.332  18.630  19.402  0.00  0.00    +0.000 A 
ATOM     32  C   UNL     1       8.795  17.945  18.313  0.00  0.00    +0.000 A 
ATOM     33  C   UNL     1       9.009  16.570  18.179  0.00  0.00    +0.000 A 
ENDBRANCH  25  28
ENDBRANCH  21  22
ENDBRANCH  20  21
ENDBRANCH  19  20
ENDBRANCH  18  19
ENDBRANCH   1  18
TORSDOF 9
ENDMDL
MODEL 6
REMARK VINA RESULT:      -7.9      3.307     11.201
REMARK  Name = 
REMARK  11 active torsions:
REMARK  status: ('A' for Active; 'I' for Inactive)
REMARK    1  A    between atoms: C_1  and  C_2
REMARK    2  A    between atoms: C_2  and  C_3
REMARK    3  A    between atoms: N_6  and  C_7
REMARK    4  A    between atoms: C_7  and  C_8
REMARK    5  A    between atoms: N_16  and  C_17
REMARK    6  A    between atoms: C_17  and  C_18
REMARK    7  A    between atoms: C_18  and  C_19
REMARK    8  A    between atoms: C_19  and  C_20
REMARK    9  A    between atoms: C_20  and  C_21
REMARK   10  A    between atoms: C_21  and  N_22
REMARK   11  A    between atoms: N_25  and  C_26
REMARK                            x       y       z     vdW  Elec       q    Type
REMARK                         _______ _______ _______ _____ _____    ______ ____
ROOT
ATOM      1  C   UNL     1       9.832  10.819  18.063  0.00  0.00    +0.000 C 
ENDROOT
BRANCH   1  10
ATOM      2  C   UNL     1      12.157  12.859  18.812  0.00  0.00    +0.000 C 
ATOM      3  C   UNL     1      10.669  13.056  19.047  0.00  0.00    +0.000 C 
ATOM      4  C   UNL     1      10.291  12.876  20.525  0.00  0.00    +0.000 C 
ATOM      5  C   UNL     1      10.190  14.466  18.676  0.00  0.00    +0.000 C 
ATOM      6  O   UNL     1      10.729  15.510  19.021  0.00  0.00    +0.000 OA
ATOM      7  N   UNL     1       8.975  14.346  18.064  0.00  0.00    +0.000 N 
ATOM      8  C   UNL     1       8.731  13.047  17.715  0.00  0.00    +0.000 C 
ATOM      9  O   UNL     1       7.750  12.624  17.123  0.00  0.00    +0.000 OA
ATOM     10  N   UNL     1       9.792  12.273  18.182  0.00  0.00    +0.000 N 
BRANCH   7  11
ATOM     11  C   UNL     1       8.012  15.412  17.975  0.00  0.00    +0.000 C 
BRANCH  11  12
ATOM     12  C   UNL     1       6.827  15.256  18.887  0.00  0.00    +0.000 A 
ATOM     13  C   UNL     1       5.555  15.014  18.354  0.00  0.00    +0.000 A 
ATOM     14  C   UNL     1       4.467  14.792  19.195  0.00  0.00    +0.000 A 
ATOM     15  C   UNL     1       4.639  14.821  20.577  0.00  0.00    +0.000 A 
ATOM     16  C   UNL     1       5.895  15.086  21.119  0.00  0.00    +0.000 A 
ATOM     17  C   UNL     1       6.986  15.307  20.278  0.00  0.00    +0.000 A 
ENDBRANCH  11  12
ENDBRANCH   7  11
ENDBRANCH   1  10
BRANCH   1  18
ATOM     18  C   UNL     1       8.951  10.155  19.118  0.00  0.00    +0.000 C 
BRANCH  18  19
ATOM     19  C   UNL     1       8.744   8.656  18.872  0.00  0.00    +0.000 C 
BRANCH  19  20
ATOM     20  C   UNL     1       8.085   8.446  17.506  0.00  0.00    +0.000 C 
BRANCH  20  21
ATOM     21  C   UNL     1       6.782   7.638  17.547  0.00  0.00    +0.000 C 
BRANCH  21  22
ATOM     22  N   UNL     1       6.948   6.175  17.537  0.00  0.00    +0.000 NA
ATOM     23  C   UNL     1       6.589   5.537  18.828  0.00  0.00    +0.000 C 
ATOM     24  C   UNL     1       5.101   5.664  19.212  0.00  0.00    +0.000 C 
ATOM     25  N   UNL     1       4.229   5.181  18.131  0.00  0.00    +0.000 N 
ATOM     26  C   UNL     1       4.553   5.644  16.770  0.00  0.00    +0.000 C 
ATOM     27  C   UNL     1       6.079   5.562  16.497  0.00  0.00    +0.000 C 
BRANCH  25  28
ATOM     28  C   UNL     1       3.382   4.101  18.302  0.00  0.00    +0.000 A 
ATOM     29  C   UNL     1       3.901   2.815  18.512  0.00  0.00    +0.000 A 
ATOM     30  C   UNL     1       3.064   1.700  18.655  0.00  0.00    +0.000 A 
ATOM     31  C   UNL     1       1.686   1.853  18.595  0.00  0.00    +0.000 A 
ATOM     32  C   UNL     1       1.144   3.121  18.398  0.00  0.00    +0.000 A 
ATOM     33  C   UNL     1       1.986   4.227  18.253  0.00  0.00    +0.000 A 
ENDBRANCH  25  28
ENDBRANCH  21  22
ENDBRANCH  20  21
ENDBRANCH  19  20
ENDBRANCH  18  19
ENDBRANCH   1  18
TORSDOF 9
ENDMDL
MODEL 7
REMARK VINA RESULT:      -7.8      6.995     10.198
REMARK  Name = 
REMARK  11 active torsions:
REMARK  status: ('A' for Active; 'I' for Inactive)
REMARK    1  A    between atoms: C_1  and  C_2
REMARK    2  A    between atoms: C_2  and  C_3
REMARK    3  A    between atoms: N_6  and  C_7
REMARK    4  A    between atoms: C_7  and  C_8
REMARK    5  A    between atoms: N_16  and  C_17
REMARK    6  A    between atoms: C_17  and  C_18
REMARK    7  A    between atoms: C_18  and  C_19
REMARK    8  A    between atoms: C_19  and  C_20
REMARK    9  A    between atoms: C_20  and  C_21
REMARK   10  A    between atoms: C_21  and  N_22
REMARK   11  A    between atoms: N_25  and  C_26
REMARK                            x       y       z     vdW  Elec       q    Type
REMARK                         _______ _______ _______ _____ _____    ______ ____
ROOT
ATOM      1  C   UNL     1       3.670   7.774  18.069  0.00  0.00    +0.000 C 
ENDROOT
BRANCH   1  10
ATOM      2  C   UNL     1       2.021   5.056  17.924  0.00  0.00    +0.000 C 
ATOM      3  C   UNL     1       3.529   5.194  18.047  0.00  0.00    +0.000 C 
ATOM      4  C   UNL     1       4.022   4.870  19.465  0.00  0.00    +0.000 C 
ATOM      5  C   UNL     1       4.292   4.234  17.125  0.00  0.00    +0.000 C 
ATOM      6  O   UNL     1       4.070   3.035  17.012  0.00  0.00    +0.000 OA
ATOM      7  N   UNL     1       5.360   4.912  16.609  0.00  0.00    +0.000 N 
ATOM      8  C   UNL     1       5.236   6.255  16.825  0.00  0.00    +0.000 C 
ATOM      9  O   UNL     1       6.006   7.127  16.455  0.00  0.00    +0.000 OA
ATOM     10  N   UNL     1       4.079   6.462  17.577  0.00  0.00    +0.000 N 
BRANCH   7  11
ATOM     11  C   UNL     1       6.538   4.273  16.083  0.00  0.00    +0.000 C 
BRANCH  11  12
ATOM     12  C   UNL     1       6.645   4.308  14.584  0.00  0.00    +0.000 A 
ATOM     13  C   UNL     1       7.554   5.173  13.962  0.00  0.00    +0.000 A 
ATOM     14  C   UNL     1       7.712   5.156  12.578  0.00  0.00    +0.000 A 
ATOM     15  C   UNL     1       6.954   4.282  11.802  0.00  0.00    +0.000 A 
ATOM     16  C   UNL     1       6.028   3.435  12.407  0.00  0.00    +0.000 A 
ATOM     17  C   UNL     1       5.869   3.449  13.793  0.00  0.00    +0.000 A 
ENDBRANCH  11  12
ENDBRANCH   7  11
ENDBRANCH   1  10
BRANCH   1  18
ATOM     18  C   UNL     1       2.162   7.832  18.292  0.00  0.00    +0.000 C 
BRANCH  18  19
ATOM     19  C   UNL     1       1.493   9.008  17.569  0.00  0.00    +0.000 C 
BRANCH  19  20
ATOM     20  C   UNL     1       1.955  10.326  18.197  0.00  0.00    +0.000 C 
BRANCH  20  21
ATOM     21  C   UNL     1       0.833  11.151  18.841  0.00  0.00    +0.000 C 
BRANCH  21  22
ATOM     22  N   UNL     1      -0.322  10.373  19.322  0.00  0.00    +0.000 NA
ATOM     23  C   UNL     1      -0.344  10.212  20.797  0.00  0.00    +0.000 C 
ATOM     24  C   UNL     1      -0.524  11.528  21.582  0.00  0.00    +0.000 C 
ATOM     25  N   UNL     1      -1.708  12.266  21.119  0.00  0.00    +0.000 N 
ATOM     26  C   UNL     1      -1.874  12.394  19.661  0.00  0.00    +0.000 C 
ATOM     27  C   UNL     1      -1.593  11.047  18.943  0.00  0.00    +0.000 C 
BRANCH  25  28
ATOM     28  C   UNL     1      -2.780  12.526  21.955  0.00  0.00    +0.000 A 
ATOM     29  C   UNL     1      -3.906  13.212  21.476  0.00  0.00    +0.000 A 
ATOM     30  C   UNL     1      -4.990  13.516  22.310  0.00  0.00    +0.000 A 
ATOM     31  C   UNL     1      -4.969  13.134  23.644  0.00  0.00    +0.000 A 
ATOM     32  C   UNL     1      -3.867  12.442  24.143  0.00  0.00    +0.000 A 
ATOM     33  C   UNL     1      -2.790  12.146  23.304  0.00  0.00    +0.000 A 
ENDBRANCH  25  28
ENDBRANCH  21  22
ENDBRANCH  20  21
ENDBRANCH  19  20
ENDBRANCH  18  19
ENDBRANCH   1  18
TORSDOF 9
ENDMDL
MODEL 8
REMARK VINA RESULT:      -7.8      3.730     11.094
REMARK  Name = 
REMARK  11 active torsions:
REMARK  status: ('A' for Active; 'I' for Inactive)
REMARK    1  A    between atoms: C_1  and  C_2
REMARK    2  A    between atoms: C_2  and  C_3
REMARK    3  A    between atoms: N_6  and  C_7
REMARK    4  A    between atoms: C_7  and  C_8
REMARK    5  A    between atoms: N_16  and  C_17
REMARK    6  A    between atoms: C_17  and  C_18
REMARK    7  A    between atoms: C_18  and  C_19
REMARK    8  A    between atoms: C_19  and  C_20
REMARK    9  A    between atoms: C_20  and  C_21
REMARK   10  A    between atoms: C_21  and  N_22
REMARK   11  A    between atoms: N_25  and  C_26
REMARK                            x       y       z     vdW  Elec       q    Type
REMARK                         _______ _______ _______ _____ _____    ______ ____
ROOT
ATOM      1  C   UNL     1       9.405  11.004  17.989  0.00  0.00    +0.000 C 
ENDROOT
BRANCH   1  10
ATOM      2  C   UNL     1       7.553  13.543  17.486  0.00  0.00    +0.000 C 
ATOM      3  C   UNL     1       8.675  13.429  18.503  0.00  0.00    +0.000 C 
ATOM      4  C   UNL     1       9.929  14.202  18.067  0.00  0.00    +0.000 C 
ATOM      5  C   UNL     1       8.298  14.011  19.872  0.00  0.00    +0.000 C 
ATOM      6  O   UNL     1       7.782  15.105  20.058  0.00  0.00    +0.000 OA
ATOM      7  N   UNL     1       8.806  13.181  20.832  0.00  0.00    +0.000 N 
ATOM      8  C   UNL     1       9.199  11.991  20.289  0.00  0.00    +0.000 C 
ATOM      9  O   UNL     1       9.658  11.032  20.890  0.00  0.00    +0.000 OA
ATOM     10  N   UNL     1       9.013  12.068  18.909  0.00  0.00    +0.000 N 
BRANCH   7  11
ATOM     11  C   UNL     1       9.061  13.586  22.190  0.00  0.00    +0.000 C 
BRANCH  11  12
ATOM     12  C   UNL     1       7.956  13.258  23.153  0.00  0.00    +0.000 A 
ATOM     13  C   UNL     1       7.840  11.965  23.680  0.00  0.00    +0.000 A 
ATOM     14  C   UNL     1       6.866  11.673  24.631  0.00  0.00    +0.000 A 
ATOM     15  C   UNL     1       5.988  12.668  25.055  0.00  0.00    +0.000 A 
ATOM     16  C   UNL     1       6.076  13.952  24.519  0.00  0.00    +0.000 A 
ATOM     17  C   UNL     1       7.054  14.247  23.568  0.00  0.00    +0.000 A 
ENDBRANCH  11  12
ENDBRANCH   7  11
ENDBRANCH   1  10
BRANCH   1  18
ATOM     18  C   UNL     1       8.929   9.643  18.487  0.00  0.00    +0.000 C 
BRANCH  18  19
ATOM     19  C   UNL     1       7.881   9.000  17.569  0.00  0.00    +0.000 C 
BRANCH  19  20
ATOM     20  C   UNL     1       7.742   7.515  17.911  0.00  0.00    +0.000 C 
BRANCH  20  21
ATOM     21  C   UNL     1       7.347   6.624  16.726  0.00  0.00    +0.000 C 
BRANCH  21  22
ATOM     22  N   UNL     1       5.934   6.710  16.318  0.00  0.00    +0.000 NA
ATOM     23  C   UNL     1       5.442   5.478  15.654  0.00  0.00    +0.000 C 
ATOM     24  C   UNL     1       5.414   4.230  16.560  0.00  0.00    +0.000 C 
ATOM     25  N   UNL     1       4.667   4.489  17.800  0.00  0.00    +0.000 N 
ATOM     26  C   UNL     1       4.973   5.749  18.500  0.00  0.00    +0.000 C 
ATOM     27  C   UNL     1       5.066   6.936  17.505  0.00  0.00    +0.000 C 
BRANCH  25  28
ATOM     28  C   UNL     1       3.516   3.792  18.119  0.00  0.00    +0.000 A 
ATOM     29  C   UNL     1       3.511   2.390  18.128  0.00  0.00    +0.000 A 
ATOM     30  C   UNL     1       2.349   1.661  18.414  0.00  0.00    +0.000 A 
ATOM     31  C   UNL     1       1.166   2.325  18.704  0.00  0.00    +0.000 A 
ATOM     32  C   UNL     1       1.144   3.719  18.712  0.00  0.00    +0.000 A 
ATOM     33  C   UNL     1       2.308   4.437  18.421  0.00  0.00    +0.000 A 
ENDBRANCH  25  28
ENDBRANCH  21  22
ENDBRANCH  20  21
ENDBRANCH  19  20
ENDBRANCH  18  19
ENDBRANCH   1  18
TORSDOF 9
ENDMDL
MODEL 9
REMARK VINA RESULT:      -7.7      1.378      1.789
REMARK  Name = 
REMARK  11 active torsions:
REMARK  status: ('A' for Active; 'I' for Inactive)
REMARK    1  A    between atoms: C_1  and  C_2
REMARK    2  A    between atoms: C_2  and  C_3
REMARK    3  A    between atoms: N_6  and  C_7
REMARK    4  A    between atoms: C_7  and  C_8
REMARK    5  A    between atoms: N_16  and  C_17
REMARK    6  A    between atoms: C_17  and  C_18
REMARK    7  A    between atoms: C_18  and  C_19
REMARK    8  A    between atoms: C_19  and  C_20
REMARK    9  A    between atoms: C_20  and  C_21
REMARK   10  A    between atoms: C_21  and  N_22
REMARK   11  A    between atoms: N_25  and  C_26
REMARK                            x       y       z     vdW  Elec       q    Type
REMARK                         _______ _______ _______ _____ _____    ______ ____
ROOT
ATOM      1  C   UNL     1       5.951   7.493  17.205  0.00  0.00    +0.000 C 
ENDROOT
BRANCH   1  10
ATOM      2  C   UNL     1       7.395   4.753  16.474  0.00  0.00    +0.000 C 
ATOM      3  C   UNL     1       5.923   5.079  16.287  0.00  0.00    +0.000 C 
ATOM      4  C   UNL     1       5.574   5.338  14.814  0.00  0.00    +0.000 C 
ATOM      5  C   UNL     1       5.001   3.933  16.724  0.00  0.00    +0.000 C 
ATOM      6  O   UNL     1       5.131   2.758  16.406  0.00  0.00    +0.000 OA
ATOM      7  N   UNL     1       3.926   4.484  17.364  0.00  0.00    +0.000 N 
ATOM      8  C   UNL     1       4.160   5.796  17.669  0.00  0.00    +0.000 C 
ATOM      9  O   UNL     1       3.410   6.549  18.270  0.00  0.00    +0.000 OA
ATOM     10  N   UNL     1       5.405   6.141  17.144  0.00  0.00    +0.000 N 
BRANCH   7  11
ATOM     11  C   UNL     1       2.658   3.821  17.520  0.00  0.00    +0.000 C 
BRANCH  11  12
ATOM     12  C   UNL     1       2.351   3.393  18.928  0.00  0.00    +0.000 A 
ATOM     13  C   UNL     1       3.353   2.826  19.726  0.00  0.00    +0.000 A 
ATOM     14  C   UNL     1       3.096   2.497  21.055  0.00  0.00    +0.000 A 
ATOM     15  C   UNL     1       1.832   2.720  21.594  0.00  0.00    +0.000 A 
ATOM     16  C   UNL     1       0.819   3.260  20.803  0.00  0.00    +0.000 A 
ATOM     17  C   UNL     1       1.075   3.592  19.472  0.00  0.00    +0.000 A 
ENDBRANCH  11  12
ENDBRANCH   7  11
ENDBRANCH   1  10
BRANCH   1  18
ATOM     18  C   UNL     1       7.316   7.506  17.887  0.00  0.00    +0.000 C 
BRANCH  18  19
ATOM     19  C   UNL     1       8.217   8.651  17.406  0.00  0.00    +0.000 C 
BRANCH  19  20
ATOM     20  C   UNL     1       8.667   9.488  18.606  0.00  0.00    +0.000 C 
BRANCH  20  21
ATOM     21  C   UNL     1       9.634  10.627  18.259  0.00  0.00    +0.000 C 
BRANCH  21  22
ATOM     22  N   UNL     1      10.181  11.361  19.413  0.00  0.00    +0.000 NA
ATOM     23  C   UNL     1      11.582  11.807  19.211  0.00  0.00    +0.000 C 
ATOM     24  C   UNL     1      11.767  12.844  18.084  0.00  0.00    +0.000 C 
ATOM     25  N   UNL     1      10.874  13.997  18.270  0.00  0.00    +0.000 N 
ATOM     26  C   UNL     1       9.470  13.694  18.600  0.00  0.00    +0.000 C 
ATOM     27  C   UNL     1       9.375  12.583  19.680  0.00  0.00    +0.000 C 
BRANCH  25  28
ATOM     28  C   UNL     1      11.363  15.275  18.471  0.00  0.00    +0.000 A 
ATOM     29  C   UNL     1      11.579  15.759  19.770  0.00  0.00    +0.000 A 
ATOM     30  C   UNL     1      12.041  17.062  20.000  0.00  0.00    +0.000 A 
ATOM     31  C   UNL     1      12.302  17.906  18.931  0.00  0.00    +0.000 A 
ATOM     32  C   UNL     1      12.106  17.448  17.630  0.00  0.00    +0.000 A 
ATOM     33  C   UNL     1      11.641  16.148  17.410  0.00  0.00    +0.000 A 
ENDBRANCH  25  28
ENDBRANCH  21  22
ENDBRANCH  20  21
ENDBRANCH  19  20
ENDBRANCH  18  19
ENDBRANCH   1  18
TORSDOF 9
ENDMDL
