MODEL 1
REMARK VINA RESULT:      -8.2      0.000      0.000
REMARK  Name = 
REMARK  2 active torsions:
REMARK  status: ('A' for Active; 'I' for Inactive)
REMARK    1  A    between atoms: N_3  and  C_4
REMARK    2  A    between atoms: C_20  and  C_21
REMARK                            x       y       z     vdW  Elec       q    Type
REMARK                         _______ _______ _______ _____ _____    ______ ____
ROOT
ATOM      1  O   UNL     1       1.902   8.535  20.677  0.00  0.00    +0.000 OA
ATOM      2  C   UNL     1       1.961   7.914  19.617  0.00  0.00    +0.000 C 
ATOM      3  N   UNL     1       1.440   8.394  18.428  0.00  0.00    +0.000 N 
ATOM      4  N   UNL     1       2.421   6.607  19.552  0.00  0.00    +0.000 N 
ATOM      5  C   UNL     1       2.483   5.850  20.814  0.00  0.00    +0.000 C 
ATOM      6  C   UNL     1       1.869   4.441  20.702  0.00  0.00    +0.000 C 
ATOM      7  C   UNL     1       2.069   3.858  19.338  0.00  0.00    +0.000 A 
ATOM      8  S   UNL     1       1.657   2.251  18.964  0.00  0.00    +0.000 S 
ATOM      9  C   UNL     1       2.127   2.453  17.331  0.00  0.00    +0.000 A 
ATOM     10  C   UNL     1       2.589   3.724  17.078  0.00  0.00    +0.000 A 
ATOM     11  C   UNL     1       2.578   4.548  18.252  0.00  0.00    +0.000 A 
ATOM     12  C   UNL     1       3.011   5.985  18.348  0.00  0.00    +0.000 C 
ATOM     13  H   UNL     1       1.007   7.664  17.882  0.00  0.00    +0.000 HD
ENDROOT
BRANCH   3  14
ATOM     14  C   UNL     1       0.788   9.649  18.358  0.00  0.00    +0.000 A 
ATOM     15  C   UNL     1       1.458  10.854  18.588  0.00  0.00    +0.000 A 
ATOM     16  C   UNL     1       0.750  12.058  18.558  0.00  0.00    +0.000 A 
ATOM     17 CL   UNL     1       1.577  13.544  18.822  0.00  0.00    +0.000 Cl
ATOM     18  C   UNL     1      -0.621  12.071  18.316  0.00  0.00    +0.000 A 
ATOM     19  C   UNL     1      -1.279  10.869  18.073  0.00  0.00    +0.000 A 
ATOM     20 CL   UNL     1      -2.980  10.861  17.816  0.00  0.00    +0.000 Cl
ATOM     21  C   UNL     1      -0.578   9.662  18.064  0.00  0.00    +0.000 A 
ENDBRANCH   3  14
BRANCH  12  22
ATOM     22  C   UNL     1       4.532   5.995  18.278  0.00  0.00    +0.000 A 
ATOM     23  C   UNL     1       5.265   5.424  19.338  0.00  0.00    +0.000 A 
ATOM     24  C   UNL     1       6.665   5.434  19.343  0.00  0.00    +0.000 A 
ATOM     25  C   UNL     1       7.367   5.993  18.281  0.00  0.00    +0.000 A 
ATOM     26  C   UNL     1       6.668   6.563  17.224  0.00  0.00    +0.000 A 
ATOM     27  C   UNL     1       5.273   6.573  17.234  0.00  0.00    +0.000 A 
ATOM     28  F   UNL     1       4.671   7.191  16.210  0.00  0.00    +0.000 F 
ENDBRANCH  12  22
TORSDOF 2
ENDMDL
MODEL 2
REMARK VINA RESULT:      -8.1      0.233      1.739
REMARK  Name = 
REMARK  2 active torsions:
REMARK  status: ('A' for Active; 'I' for Inactive)
REMARK    1  A    between atoms: N_3  and  C_4
REMARK    2  A    between atoms: C_20  and  C_21
REMARK                            x       y       z     vdW  Elec       q    Type
REMARK                         _______ _______ _______ _____ _____    ______ ____
ROOT
ATOM      1  O   UNL     1       1.889   8.548  20.830  0.00  0.00    +0.000 OA
ATOM      2  C   UNL     1       1.926   7.954  19.754  0.00  0.00    +0.000 C 
ATOM      3  N   UNL     1       1.396   8.470  18.585  0.00  0.00    +0.000 N 
ATOM      4  N   UNL     1       2.365   6.642  19.651  0.00  0.00    +0.000 N 
ATOM      5  C   UNL     1       2.433   5.852  20.893  0.00  0.00    +0.000 C 
ATOM      6  C   UNL     1       1.796   4.456  20.754  0.00  0.00    +0.000 C 
ATOM      7  C   UNL     1       1.970   3.904  19.373  0.00  0.00    +0.000 A 
ATOM      8  S   UNL     1       1.530   2.313  18.965  0.00  0.00    +0.000 S 
ATOM      9  C   UNL     1       1.982   2.550  17.331  0.00  0.00    +0.000 A 
ATOM     10  C   UNL     1       2.459   3.820  17.104  0.00  0.00    +0.000 A 
ATOM     11  C   UNL     1       2.475   4.615  18.299  0.00  0.00    +0.000 A 
ATOM     12  C   UNL     1       2.930   6.042  18.424  0.00  0.00    +0.000 C 
ATOM     13  H   UNL     1       0.946   7.760  18.026  0.00  0.00    +0.000 HD
ENDROOT
BRANCH   3  14
ATOM     14  C   UNL     1       0.762   9.736  18.554  0.00  0.00    +0.000 A 
ATOM     15  C   UNL     1      -0.621   9.876  18.406  0.00  0.00    +0.000 A 
ATOM     16  C   UNL     1      -1.184  11.153  18.328  0.00  0.00    +0.000 A 
ATOM     17 CL   UNL     1      -2.888  11.329  18.165  0.00  0.00    +0.000 Cl
ATOM     18  C   UNL     1      -0.381  12.289  18.380  0.00  0.00    +0.000 A 
ATOM     19  C   UNL     1       0.994  12.142  18.543  0.00  0.00    +0.000 A 
ATOM     20 CL   UNL     1       2.006  13.532  18.566  0.00  0.00    +0.000 Cl
ATOM     21  C   UNL     1       1.566  10.874  18.659  0.00  0.00    +0.000 A 
ENDBRANCH   3  14
BRANCH  12  22
ATOM     22  C   UNL     1       4.451   6.032  18.334  0.00  0.00    +0.000 A 
ATOM     23  C   UNL     1       5.189   5.439  19.379  0.00  0.00    +0.000 A 
ATOM     24  C   UNL     1       6.589   5.429  19.365  0.00  0.00    +0.000 A 
ATOM     25  C   UNL     1       7.285   5.991  18.300  0.00  0.00    +0.000 A 
ATOM     26  C   UNL     1       6.580   6.582  17.259  0.00  0.00    +0.000 A 
ATOM     27  C   UNL     1       5.186   6.611  17.287  0.00  0.00    +0.000 A 
ATOM     28  F   UNL     1       4.579   7.249  16.278  0.00  0.00    +0.000 F 
ENDBRANCH  12  22
TORSDOF 2
ENDMDL
MODEL 3
REMARK VINA RESULT:      -7.8      0.922      1.291
REMARK  Name = 
REMARK  2 active torsions:
REMARK  status: ('A' for Active; 'I' for Inactive)
REMARK    1  A    between atoms: N_3  and  C_4
REMARK    2  A    between atoms: C_20  and  C_21
REMARK                            x       y       z     vdW  Elec       q    Type
REMARK                         _______ _______ _______ _____ _____    ______ ____
ROOT
ATOM      1  O   UNL     1       1.832   8.584  20.720  0.00  0.00    +0.000 OA
ATOM      2  C   UNL     1       1.920   7.983  19.651  0.00  0.00    +0.000 C 
ATOM      3  N   UNL     1       1.424   8.481  18.459  0.00  0.00    +0.000 N 
ATOM      4  N   UNL     1       2.388   6.680  19.574  0.00  0.00    +0.000 N 
ATOM      5  C   UNL     1       2.424   5.900  20.823  0.00  0.00    +0.000 C 
ATOM      6  C   UNL     1       1.820   4.490  20.671  0.00  0.00    +0.000 C 
ATOM      7  C   UNL     1       2.056   3.933  19.302  0.00  0.00    +0.000 A 
ATOM      8  S   UNL     1       1.662   2.331  18.889  0.00  0.00    +0.000 S 
ATOM      9  C   UNL     1       2.169   2.566  17.271  0.00  0.00    +0.000 A 
ATOM     10  C   UNL     1       2.631   3.843  17.053  0.00  0.00    +0.000 A 
ATOM     11  C   UNL     1       2.587   4.646  18.241  0.00  0.00    +0.000 A 
ATOM     12  C   UNL     1       3.009   6.083  18.373  0.00  0.00    +0.000 C 
ATOM     13  H   UNL     1       1.009   7.759  17.889  0.00  0.00    +0.000 HD
ENDROOT
BRANCH   3  14
ATOM     14  C   UNL     1       0.768   9.735  18.396  0.00  0.00    +0.000 A 
ATOM     15  C   UNL     1       1.436  10.941  18.624  0.00  0.00    +0.000 A 
ATOM     16  C   UNL     1       0.724  12.143  18.601  0.00  0.00    +0.000 A 
ATOM     17 CL   UNL     1       1.547  13.632  18.862  0.00  0.00    +0.000 Cl
ATOM     18  C   UNL     1      -0.650  12.152  18.369  0.00  0.00    +0.000 A 
ATOM     19  C   UNL     1      -1.305  10.948  18.128  0.00  0.00    +0.000 A 
ATOM     20 CL   UNL     1      -3.008  10.935  17.884  0.00  0.00    +0.000 Cl
ATOM     21  C   UNL     1      -0.600   9.744  18.112  0.00  0.00    +0.000 A 
ENDBRANCH   3  14
BRANCH  12  22
ATOM     22  C   UNL     1       4.532   6.101  18.339  0.00  0.00    +0.000 A 
ATOM     23  C   UNL     1       5.181   6.964  17.433  0.00  0.00    +0.000 A 
ATOM     24  C   UNL     1       6.577   7.000  17.335  0.00  0.00    +0.000 A 
ATOM     25  C   UNL     1       7.359   6.191  18.152  0.00  0.00    +0.000 A 
ATOM     26  C   UNL     1       6.744   5.331  19.053  0.00  0.00    +0.000 A 
ATOM     27  C   UNL     1       5.352   5.281  19.131  0.00  0.00    +0.000 A 
ATOM     28  F   UNL     1       4.831   4.386  19.981  0.00  0.00    +0.000 F 
ENDBRANCH  12  22
TORSDOF 2
ENDMDL
MODEL 4
REMARK VINA RESULT:      -7.7      0.947      2.165
REMARK  Name = 
REMARK  2 active torsions:
REMARK  status: ('A' for Active; 'I' for Inactive)
REMARK    1  A    between atoms: N_3  and  C_4
REMARK    2  A    between atoms: C_20  and  C_21
REMARK                            x       y       z     vdW  Elec       q    Type
REMARK                         _______ _______ _______ _____ _____    ______ ____
ROOT
ATOM      1  O   UNL     1       1.834   8.586  20.826  0.00  0.00    +0.000 OA
ATOM      2  C   UNL     1       1.893   8.000  19.747  0.00  0.00    +0.000 C 
ATOM      3  N   UNL     1       1.376   8.519  18.574  0.00  0.00    +0.000 N 
ATOM      4  N   UNL     1       2.348   6.693  19.642  0.00  0.00    +0.000 N 
ATOM      5  C   UNL     1       2.405   5.896  20.879  0.00  0.00    +0.000 C 
ATOM      6  C   UNL     1       1.785   4.494  20.721  0.00  0.00    +0.000 C 
ATOM      7  C   UNL     1       1.986   3.954  19.340  0.00  0.00    +0.000 A 
ATOM      8  S   UNL     1       1.568   2.361  18.914  0.00  0.00    +0.000 S 
ATOM      9  C   UNL     1       2.042   2.614  17.289  0.00  0.00    +0.000 A 
ATOM     10  C   UNL     1       2.510   3.890  17.078  0.00  0.00    +0.000 A 
ATOM     11  C   UNL     1       2.499   4.677  18.277  0.00  0.00    +0.000 A 
ATOM     12  C   UNL     1       2.938   6.108  18.420  0.00  0.00    +0.000 C 
ATOM     13  H   UNL     1       0.942   7.808  18.003  0.00  0.00    +0.000 HD
ENDROOT
BRANCH   3  14
ATOM     14  C   UNL     1       0.729   9.778  18.542  0.00  0.00    +0.000 A 
ATOM     15  C   UNL     1      -0.654   9.905  18.390  0.00  0.00    +0.000 A 
ATOM     16  C   UNL     1      -1.230  11.175  18.311  0.00  0.00    +0.000 A 
ATOM     17 CL   UNL     1      -2.935  11.334  18.145  0.00  0.00    +0.000 Cl
ATOM     18  C   UNL     1      -0.438  12.320  18.365  0.00  0.00    +0.000 A 
ATOM     19  C   UNL     1       0.937  12.186  18.531  0.00  0.00    +0.000 A 
ATOM     20 CL   UNL     1       1.936  13.587  18.556  0.00  0.00    +0.000 Cl
ATOM     21  C   UNL     1       1.522  10.924  18.649  0.00  0.00    +0.000 A 
ENDBRANCH   3  14
BRANCH  12  22
ATOM     22  C   UNL     1       4.459   6.114  18.353  0.00  0.00    +0.000 A 
ATOM     23  C   UNL     1       5.095   6.964  17.425  0.00  0.00    +0.000 A 
ATOM     24  C   UNL     1       6.489   6.988  17.296  0.00  0.00    +0.000 A 
ATOM     25  C   UNL     1       7.283   6.179  18.103  0.00  0.00    +0.000 A 
ATOM     26  C   UNL     1       6.680   5.332  19.024  0.00  0.00    +0.000 A 
ATOM     27  C   UNL     1       5.290   5.294  19.133  0.00  0.00    +0.000 A 
ATOM     28  F   UNL     1       4.781   4.410  20.001  0.00  0.00    +0.000 F 
ENDBRANCH  12  22
TORSDOF 2
ENDMDL
MODEL 5
REMARK VINA RESULT:      -7.5      4.169      8.347
REMARK  Name = 
REMARK  2 active torsions:
REMARK  status: ('A' for Active; 'I' for Inactive)
REMARK    1  A    between atoms: N_3  and  C_4
REMARK    2  A    between atoms: C_20  and  C_21
REMARK                            x       y       z     vdW  Elec       q    Type
REMARK                         _______ _______ _______ _____ _____    ______ ____
ROOT
ATOM      1  O   UNL     1       0.418   8.517  21.017  0.00  0.00    +0.000 OA
ATOM      2  C   UNL     1       0.500   9.355  20.122  0.00  0.00    +0.000 C 
ATOM      3  N   UNL     1       1.339   9.217  19.030  0.00  0.00    +0.000 N 
ATOM      4  N   UNL     1      -0.128  10.589  20.207  0.00  0.00    +0.000 N 
ATOM      5  C   UNL     1      -0.583  11.025  21.538  0.00  0.00    +0.000 C 
ATOM      6  C   UNL     1      -0.182  12.476  21.867  0.00  0.00    +0.000 C 
ATOM      7  C   UNL     1      -0.163  13.335  20.640  0.00  0.00    +0.000 A 
ATOM      8  S   UNL     1       0.071  15.018  20.709  0.00  0.00    +0.000 S 
ATOM      9  C   UNL     1       0.010  15.150  19.004  0.00  0.00    +0.000 A 
ATOM     10  C   UNL     1      -0.185  13.932  18.396  0.00  0.00    +0.000 A 
ATOM     11  C   UNL     1      -0.307  12.865  19.347  0.00  0.00    +0.000 A 
ATOM     12  C   UNL     1      -0.525  11.408  19.043  0.00  0.00    +0.000 C 
ATOM     13  H   UNL     1       1.764  10.093  18.765  0.00  0.00    +0.000 HD
ENDROOT
BRANCH   3  14
ATOM     14  C   UNL     1       2.174   8.084  18.875  0.00  0.00    +0.000 A 
ATOM     15  C   UNL     1       3.057   7.948  17.800  0.00  0.00    +0.000 A 
ATOM     16  C   UNL     1       3.817   6.783  17.671  0.00  0.00    +0.000 A 
ATOM     17 CL   UNL     1       4.920   6.620  16.359  0.00  0.00    +0.000 Cl
ATOM     18  C   UNL     1       3.694   5.747  18.593  0.00  0.00    +0.000 A 
ATOM     19  C   UNL     1       2.823   5.896  19.669  0.00  0.00    +0.000 A 
ATOM     20 CL   UNL     1       2.625   4.610  20.794  0.00  0.00    +0.000 Cl
ATOM     21  C   UNL     1       2.085   7.069  19.831  0.00  0.00    +0.000 A 
ENDBRANCH   3  14
BRANCH  12  22
ATOM     22  C   UNL     1      -1.974  11.262  18.595  0.00  0.00    +0.000 A 
ATOM     23  C   UNL     1      -2.961  12.047  19.224  0.00  0.00    +0.000 A 
ATOM     24  C   UNL     1      -4.313  11.931  18.877  0.00  0.00    +0.000 A 
ATOM     25  C   UNL     1      -4.708  11.045  17.880  0.00  0.00    +0.000 A 
ATOM     26  C   UNL     1      -3.753  10.259  17.246  0.00  0.00    +0.000 A 
ATOM     27  C   UNL     1      -2.411  10.360  17.611  0.00  0.00    +0.000 A 
ATOM     28  F   UNL     1      -1.558   9.530  16.998  0.00  0.00    +0.000 F 
ENDBRANCH  12  22
TORSDOF 2
ENDMDL
MODEL 6
REMARK VINA RESULT:      -7.5      4.143      8.360
REMARK  Name = 
REMARK  2 active torsions:
REMARK  status: ('A' for Active; 'I' for Inactive)
REMARK    1  A    between atoms: N_3  and  C_4
REMARK    2  A    between atoms: C_20  and  C_21
REMARK                            x       y       z     vdW  Elec       q    Type
REMARK                         _______ _______ _______ _____ _____    ______ ____
ROOT
ATOM      1  O   UNL     1       0.447   8.399  20.980  0.00  0.00    +0.000 OA
ATOM      2  C   UNL     1       0.553   9.238  20.088  0.00  0.00    +0.000 C 
ATOM      3  N   UNL     1       1.391   9.084  18.998  0.00  0.00    +0.000 N 
ATOM      4  N   UNL     1      -0.046  10.487  20.176  0.00  0.00    +0.000 N 
ATOM      5  C   UNL     1      -0.494  10.929  21.508  0.00  0.00    +0.000 C 
ATOM      6  C   UNL     1      -0.059  12.369  21.842  0.00  0.00    +0.000 C 
ATOM      7  C   UNL     1      -0.015  13.231  20.620  0.00  0.00    +0.000 A 
ATOM      8  S   UNL     1       0.259  14.908  20.696  0.00  0.00    +0.000 S 
ATOM      9  C   UNL     1       0.207  15.048  18.990  0.00  0.00    +0.000 A 
ATOM     10  C   UNL     1      -0.016  13.837  18.377  0.00  0.00    +0.000 A 
ATOM     11  C   UNL     1      -0.167  12.770  19.324  0.00  0.00    +0.000 A 
ATOM     12  C   UNL     1      -0.419  11.320  19.014  0.00  0.00    +0.000 C 
ATOM     13  H   UNL     1       1.838   9.951  18.738  0.00  0.00    +0.000 HD
ENDROOT
BRANCH   3  14
ATOM     14  C   UNL     1       2.199   7.932  18.842  0.00  0.00    +0.000 A 
ATOM     15  C   UNL     1       2.181   6.876  19.757  0.00  0.00    +0.000 A 
ATOM     16  C   UNL     1       3.040   5.789  19.578  0.00  0.00    +0.000 A 
ATOM     17 CL   UNL     1       3.006   4.478  20.692  0.00  0.00    +0.000 Cl
ATOM     18  C   UNL     1       3.928   5.752  18.506  0.00  0.00    +0.000 A 
ATOM     19  C   UNL     1       3.930   6.801  17.591  0.00  0.00    +0.000 A 
ATOM     20 CL   UNL     1       5.050   6.794  16.285  0.00  0.00    +0.000 Cl
ATOM     21  C   UNL     1       3.051   7.875  17.736  0.00  0.00    +0.000 A 
ENDBRANCH   3  14
BRANCH  12  22
ATOM     22  C   UNL     1      -1.870  11.210  18.562  0.00  0.00    +0.000 A 
ATOM     23  C   UNL     1      -2.842  12.010  19.197  0.00  0.00    +0.000 A 
ATOM     24  C   UNL     1      -4.194  11.927  18.846  0.00  0.00    +0.000 A 
ATOM     25  C   UNL     1      -4.607  11.062  17.838  0.00  0.00    +0.000 A 
ATOM     26  C   UNL     1      -3.668  10.263  17.197  0.00  0.00    +0.000 A 
ATOM     27  C   UNL     1      -2.325  10.331  17.566  0.00  0.00    +0.000 A 
ATOM     28  F   UNL     1      -1.489   9.489  16.944  0.00  0.00    +0.000 F 
ENDBRANCH  12  22
TORSDOF 2
ENDMDL
MODEL 7
REMARK VINA RESULT:      -7.4      2.593      4.200
REMARK  Name = 
REMARK  2 active torsions:
REMARK  status: ('A' for Active; 'I' for Inactive)
REMARK    1  A    between atoms: N_3  and  C_4
REMARK    2  A    between atoms: C_20  and  C_21
REMARK                            x       y       z     vdW  Elec       q    Type
REMARK                         _______ _______ _______ _____ _____    ______ ____
ROOT
ATOM      1  O   UNL     1       1.353   8.596  17.387  0.00  0.00    +0.000 OA
ATOM      2  C   UNL     1       2.035   8.056  18.255  0.00  0.00    +0.000 C 
ATOM      3  N   UNL     1       2.014   8.441  19.584  0.00  0.00    +0.000 N 
ATOM      4  N   UNL     1       3.004   7.111  17.950  0.00  0.00    +0.000 N 
ATOM      5  C   UNL     1       3.461   7.039  16.552  0.00  0.00    +0.000 C 
ATOM      6  C   UNL     1       4.996   6.998  16.421  0.00  0.00    +0.000 C 
ATOM      7  C   UNL     1       5.629   6.278  17.571  0.00  0.00    +0.000 A 
ATOM      8  S   UNL     1       7.290   5.918  17.617  0.00  0.00    +0.000 S 
ATOM      9  C   UNL     1       7.148   5.211  19.170  0.00  0.00    +0.000 A 
ATOM     10  C   UNL     1       5.856   5.250  19.641  0.00  0.00    +0.000 A 
ATOM     11  C   UNL     1       4.955   5.856  18.703  0.00  0.00    +0.000 A 
ATOM     12  C   UNL     1       3.477   6.066  18.881  0.00  0.00    +0.000 C 
ATOM     13  H   UNL     1       2.931   8.410  20.003  0.00  0.00    +0.000 HD
ENDROOT
BRANCH   3  14
ATOM     14  C   UNL     1       1.195   9.505  20.034  0.00  0.00    +0.000 A 
ATOM     15  C   UNL     1       1.067  10.702  19.325  0.00  0.00    +0.000 A 
ATOM     16  C   UNL     1       0.287  11.737  19.847  0.00  0.00    +0.000 A 
ATOM     17 CL   UNL     1       0.111  13.206  18.966  0.00  0.00    +0.000 Cl
ATOM     18  C   UNL     1      -0.353  11.596  21.075  0.00  0.00    +0.000 A 
ATOM     19  C   UNL     1      -0.233  10.396  21.769  0.00  0.00    +0.000 A 
ATOM     20 CL   UNL     1      -0.980  10.219  23.308  0.00  0.00    +0.000 Cl
ATOM     21  C   UNL     1       0.513   9.340  21.243  0.00  0.00    +0.000 A 
ENDBRANCH   3  14
BRANCH  12  22
ATOM     22  C   UNL     1       2.815   4.702  18.736  0.00  0.00    +0.000 A 
ATOM     23  C   UNL     1       3.286   3.821  17.741  0.00  0.00    +0.000 A 
ATOM     24  C   UNL     1       2.695   2.569  17.539  0.00  0.00    +0.000 A 
ATOM     25  C   UNL     1       1.634   2.156  18.338  0.00  0.00    +0.000 A 
ATOM     26  C   UNL     1       1.151   3.006  19.325  0.00  0.00    +0.000 A 
ATOM     27  C   UNL     1       1.727   4.263  19.507  0.00  0.00    +0.000 A 
ATOM     28  F   UNL     1       1.170   5.049  20.438  0.00  0.00    +0.000 F 
ENDBRANCH  12  22
TORSDOF 2
ENDMDL
MODEL 8
REMARK VINA RESULT:      -7.4      2.597      4.304
REMARK  Name = 
REMARK  2 active torsions:
REMARK  status: ('A' for Active; 'I' for Inactive)
REMARK    1  A    between atoms: N_3  and  C_4
REMARK    2  A    between atoms: C_20  and  C_21
REMARK                            x       y       z     vdW  Elec       q    Type
REMARK                         _______ _______ _______ _____ _____    ______ ____
ROOT
ATOM      1  O   UNL     1       1.259   8.626  17.555  0.00  0.00    +0.000 OA
ATOM      2  C   UNL     1       1.964   8.066  18.391  0.00  0.00    +0.000 C 
ATOM      3  N   UNL     1       1.994   8.433  19.725  0.00  0.00    +0.000 N 
ATOM      4  N   UNL     1       2.910   7.114  18.040  0.00  0.00    +0.000 N 
ATOM      5  C   UNL     1       3.318   7.056  16.626  0.00  0.00    +0.000 C 
ATOM      6  C   UNL     1       4.847   6.999  16.441  0.00  0.00    +0.000 C 
ATOM      7  C   UNL     1       5.510   6.256  17.558  0.00  0.00    +0.000 A 
ATOM      8  S   UNL     1       7.168   5.876  17.542  0.00  0.00    +0.000 S 
ATOM      9  C   UNL     1       7.072   5.150  19.089  0.00  0.00    +0.000 A 
ATOM     10  C   UNL     1       5.798   5.198  19.605  0.00  0.00    +0.000 A 
ATOM     11  C   UNL     1       4.872   5.826  18.708  0.00  0.00    +0.000 A 
ATOM     12  C   UNL     1       3.403   6.051  18.941  0.00  0.00    +0.000 C 
ATOM     13  H   UNL     1       2.925   8.385  20.111  0.00  0.00    +0.000 HD
ENDROOT
BRANCH   3  14
ATOM     14  C   UNL     1       1.204   9.500  20.218  0.00  0.00    +0.000 A 
ATOM     15  C   UNL     1       0.505   9.417  21.425  0.00  0.00    +0.000 A 
ATOM     16  C   UNL     1      -0.302  10.482  21.834  0.00  0.00    +0.000 A 
ATOM     17 CL   UNL     1      -1.148  10.391  23.330  0.00  0.00    +0.000 Cl
ATOM     18  C   UNL     1      -0.431  11.621  21.044  0.00  0.00    +0.000 A 
ATOM     19  C   UNL     1       0.280  11.702  19.850  0.00  0.00    +0.000 A 
ATOM     20 CL   UNL     1       0.099  13.083  18.839  0.00  0.00    +0.000 Cl
ATOM     21  C   UNL     1       1.118  10.662  19.447  0.00  0.00    +0.000 A 
ENDBRANCH   3  14
BRANCH  12  22
ATOM     22  C   UNL     1       2.720   4.697  18.800  0.00  0.00    +0.000 A 
ATOM     23  C   UNL     1       3.151   3.822  17.782  0.00  0.00    +0.000 A 
ATOM     24  C   UNL     1       2.539   2.578  17.585  0.00  0.00    +0.000 A 
ATOM     25  C   UNL     1       1.496   2.170  18.411  0.00  0.00    +0.000 A 
ATOM     26  C   UNL     1       1.053   3.015  19.421  0.00  0.00    +0.000 A 
ATOM     27  C   UNL     1       1.650   4.263  19.599  0.00  0.00    +0.000 A 
ATOM     28  F   UNL     1       1.131   5.045  20.554  0.00  0.00    +0.000 F 
ENDBRANCH  12  22
TORSDOF 2
ENDMDL
MODEL 9
REMARK VINA RESULT:      -7.3      3.915      7.895
REMARK  Name = 
REMARK  2 active torsions:
REMARK  status: ('A' for Active; 'I' for Inactive)
REMARK    1  A    between atoms: N_3  and  C_4
REMARK    2  A    between atoms: C_20  and  C_21
REMARK                            x       y       z     vdW  Elec       q    Type
REMARK                         _______ _______ _______ _____ _____    ______ ____
ROOT
ATOM      1  O   UNL     1       1.319   7.759  20.388  0.00  0.00    +0.000 OA
ATOM      2  C   UNL     1       1.392   8.653  19.547  0.00  0.00    +0.000 C 
ATOM      3  N   UNL     1       2.114   8.532  18.373  0.00  0.00    +0.000 N 
ATOM      4  N   UNL     1       0.884   9.924  19.775  0.00  0.00    +0.000 N 
ATOM      5  C   UNL     1       0.590  10.294  21.170  0.00  0.00    +0.000 C 
ATOM      6  C   UNL     1       1.143  11.679  21.556  0.00  0.00    +0.000 C 
ATOM      7  C   UNL     1       1.126  12.623  20.394  0.00  0.00    +0.000 A 
ATOM      8  S   UNL     1       1.510  14.272  20.553  0.00  0.00    +0.000 S 
ATOM      9  C   UNL     1       1.308  14.537  18.874  0.00  0.00    +0.000 A 
ATOM     10  C   UNL     1       0.954  13.387  18.207  0.00  0.00    +0.000 A 
ATOM     11  C   UNL     1       0.826  12.265  19.092  0.00  0.00    +0.000 A 
ATOM     12  C   UNL     1       0.456  10.857  18.713  0.00  0.00    +0.000 C 
ATOM     13  H   UNL     1       2.588   9.388  18.128  0.00  0.00    +0.000 HD
ENDROOT
BRANCH   3  14
ATOM     14  C   UNL     1       2.831   7.350  18.063  0.00  0.00    +0.000 A 
ATOM     15  C   UNL     1       4.163   7.373  17.640  0.00  0.00    +0.000 A 
ATOM     16  C   UNL     1       4.802   6.180  17.296  0.00  0.00    +0.000 A 
ATOM     17 CL   UNL     1       6.448   6.202  16.795  0.00  0.00    +0.000 Cl
ATOM     18  C   UNL     1       4.121   4.966  17.353  0.00  0.00    +0.000 A 
ATOM     19  C   UNL     1       2.799   4.950  17.788  0.00  0.00    +0.000 A 
ATOM     20 CL   UNL     1       1.928   3.466  17.823  0.00  0.00    +0.000 Cl
ATOM     21  C   UNL     1       2.160   6.129  18.170  0.00  0.00    +0.000 A 
ENDBRANCH   3  14
BRANCH  12  22
ATOM     22  C   UNL     1      -1.034  10.861  18.397  0.00  0.00    +0.000 A 
ATOM     23  C   UNL     1      -1.877  11.739  19.109  0.00  0.00    +0.000 A 
ATOM     24  C   UNL     1      -3.259  11.763  18.885  0.00  0.00    +0.000 A 
ATOM     25  C   UNL     1      -3.830  10.927  17.931  0.00  0.00    +0.000 A 
ATOM     26  C   UNL     1      -3.021  10.052  17.217  0.00  0.00    +0.000 A 
ATOM     27  C   UNL     1      -1.648  10.015  17.460  0.00  0.00    +0.000 A 
ATOM     28  F   UNL     1      -0.942   9.105  16.775  0.00  0.00    +0.000 F 
ENDBRANCH  12  22
TORSDOF 2
ENDMDL
