MODEL 1
REMARK VINA RESULT:      -7.8      0.000      0.000
REMARK  Name = 
REMARK  7 active torsions:
REMARK  status: ('A' for Active; 'I' for Inactive)
REMARK    1  A    between atoms: C_1  and  O_2
REMARK    2  A    between atoms: O_2  and  C_3
REMARK    3  A    between atoms: C_3  and  C_5
REMARK    4  A    between atoms: C_8  and  C_9
REMARK    5  A    between atoms: N_12  and  C_13
REMARK    6  A    between atoms: C_13  and  C_14
REMARK    7  A    between atoms: C_14  and  C_15
REMARK                            x       y       z     vdW  Elec       q    Type
REMARK                         _______ _______ _______ _____ _____    ______ ____
ROOT
ATOM      1  C   UNL     1       3.961   3.509  18.856  0.00  0.00    +0.000 C 
ATOM      2  C   UNL     1       5.214   3.710  19.298  0.00  0.00    +0.000 C 
ATOM      3  O   UNL     1       6.201   4.406  18.657  0.00  0.00    +0.000 OA
ATOM      4  C   UNL     1       5.883   5.025  17.402  0.00  0.00    +0.000 C 
ATOM      5  C   UNL     1       6.505   4.214  16.269  0.00  0.00    +0.000 C 
ATOM      6  C   UNL     1       4.382   5.283  17.177  0.00  0.00    +0.000 C 
ATOM      7  C   UNL     1       3.925   6.483  18.034  0.00  0.00    +0.000 C 
ATOM      8  N   UNL     1       2.496   6.782  17.852  0.00  0.00    +0.000 NA
ATOM      9  C   UNL     1       1.660   5.613  18.166  0.00  0.00    +0.000 C 
ATOM     10  C   UNL     1       2.063   4.416  17.310  0.00  0.00    +0.000 C 
ATOM     11  C   UNL     1       3.539   4.034  17.502  0.00  0.00    +0.000 C 
ENDROOT
BRANCH   1  12
ATOM     12  C   UNL     1       2.996   2.793  19.729  0.00  0.00    +0.000 C 
ATOM     13  O   UNL     1       2.453   1.741  19.430  0.00  0.00    +0.000 OA
BRANCH  12  15
ATOM     14  C   UNL     1       1.905   2.861  21.802  0.00  0.00    +0.000 C 
ATOM     15  O   UNL     1       2.728   3.526  20.842  0.00  0.00    +0.000 OA
ENDBRANCH  12  15
ENDBRANCH   1  12
BRANCH   8  16
ATOM     16  C   UNL     1       2.075   7.927  18.690  0.00  0.00    +0.000 C 
BRANCH  16  17
ATOM     17  C   UNL     1       1.711   9.181  17.877  0.00  0.00    +0.000 C 
BRANCH  17  18
ATOM     18  C   UNL     1       0.764  10.073  18.609  0.00  0.00    +0.000 A 
ATOM     19  C   UNL     1       1.039  10.803  19.747  0.00  0.00    +0.000 A 
ATOM     20  N   UNL     1      -0.093  11.475  20.106  0.00  0.00    +0.000 N 
ATOM     21  C   UNL     1      -1.113  11.202  19.225  0.00  0.00    +0.000 A 
ATOM     22  C   UNL     1      -2.436  11.659  19.202  0.00  0.00    +0.000 A 
ATOM     23  C   UNL     1      -3.262  11.205  18.170  0.00  0.00    +0.000 A 
ATOM     24  C   UNL     1      -2.784  10.328  17.200  0.00  0.00    +0.000 A 
ATOM     25  C   UNL     1      -1.459   9.880  17.238  0.00  0.00    +0.000 A 
ATOM     26  C   UNL     1      -0.603  10.323  18.270  0.00  0.00    +0.000 A 
ATOM     27  H   UNL     1      -0.181  12.085  20.909  0.00  0.00    +0.000 HD
ENDBRANCH  17  18
ENDBRANCH  16  17
ENDBRANCH   8  16
TORSDOF 5
ENDMDL
MODEL 2
REMARK VINA RESULT:      -7.7      1.640      2.067
REMARK  Name = 
REMARK  7 active torsions:
REMARK  status: ('A' for Active; 'I' for Inactive)
REMARK    1  A    between atoms: C_1  and  O_2
REMARK    2  A    between atoms: O_2  and  C_3
REMARK    3  A    between atoms: C_3  and  C_5
REMARK    4  A    between atoms: C_8  and  C_9
REMARK    5  A    between atoms: N_12  and  C_13
REMARK    6  A    between atoms: C_13  and  C_14
REMARK    7  A    between atoms: C_14  and  C_15
REMARK                            x       y       z     vdW  Elec       q    Type
REMARK                         _______ _______ _______ _____ _____    ______ ____
ROOT
ATOM      1  C   UNL     1       4.242   3.520  18.779  0.00  0.00    +0.000 C 
ATOM      2  C   UNL     1       5.507   3.752  19.169  0.00  0.00    +0.000 C 
ATOM      3  O   UNL     1       6.435   4.508  18.509  0.00  0.00    +0.000 OA
ATOM      4  C   UNL     1       6.034   5.160  17.295  0.00  0.00    +0.000 C 
ATOM      5  C   UNL     1       6.629   4.415  16.103  0.00  0.00    +0.000 C 
ATOM      6  C   UNL     1       4.515   5.369  17.152  0.00  0.00    +0.000 C 
ATOM      7  C   UNL     1       4.057   6.518  18.074  0.00  0.00    +0.000 C 
ATOM      8  N   UNL     1       2.611   6.769  17.972  0.00  0.00    +0.000 NA
ATOM      9  C   UNL     1       1.834   5.558  18.281  0.00  0.00    +0.000 C 
ATOM     10  C   UNL     1       2.239   4.410  17.362  0.00  0.00    +0.000 C 
ATOM     11  C   UNL     1       3.735   4.077  17.468  0.00  0.00    +0.000 C 
ENDROOT
BRANCH   1  12
ATOM     12  C   UNL     1       3.347   2.736  19.669  0.00  0.00    +0.000 C 
ATOM     13  O   UNL     1       2.831   1.674  19.358  0.00  0.00    +0.000 OA
BRANCH  12  15
ATOM     14  C   UNL     1       1.795   3.222  21.356  0.00  0.00    +0.000 C 
ATOM     15  O   UNL     1       3.103   3.419  20.819  0.00  0.00    +0.000 OA
ENDBRANCH  12  15
ENDBRANCH   1  12
BRANCH   8  16
ATOM     16  C   UNL     1       2.191   7.866  18.873  0.00  0.00    +0.000 C 
BRANCH  16  17
ATOM     17  C   UNL     1       1.391   8.971  18.161  0.00  0.00    +0.000 C 
BRANCH  17  18
ATOM     18  C   UNL     1       1.017  10.081  19.087  0.00  0.00    +0.000 A 
ATOM     19  C   UNL     1       1.180  11.431  18.854  0.00  0.00    +0.000 A 
ATOM     20  N   UNL     1       0.723  12.109  19.948  0.00  0.00    +0.000 N 
ATOM     21  C   UNL     1       0.262  11.230  20.899  0.00  0.00    +0.000 A 
ATOM     22  C   UNL     1      -0.286  11.472  22.165  0.00  0.00    +0.000 A 
ATOM     23  C   UNL     1      -0.672  10.365  22.927  0.00  0.00    +0.000 A 
ATOM     24  C   UNL     1      -0.517   9.068  22.442  0.00  0.00    +0.000 A 
ATOM     25  C   UNL     1       0.033   8.845  21.175  0.00  0.00    +0.000 A 
ATOM     26  C   UNL     1       0.432   9.945  20.385  0.00  0.00    +0.000 A 
ATOM     27  H   UNL     1       0.726  13.116  20.055  0.00  0.00    +0.000 HD
ENDBRANCH  17  18
ENDBRANCH  16  17
ENDBRANCH   8  16
TORSDOF 5
ENDMDL
MODEL 3
REMARK VINA RESULT:      -7.5      0.927      1.209
REMARK  Name = 
REMARK  7 active torsions:
REMARK  status: ('A' for Active; 'I' for Inactive)
REMARK    1  A    between atoms: C_1  and  O_2
REMARK    2  A    between atoms: O_2  and  C_3
REMARK    3  A    between atoms: C_3  and  C_5
REMARK    4  A    between atoms: C_8  and  C_9
REMARK    5  A    between atoms: N_12  and  C_13
REMARK    6  A    between atoms: C_13  and  C_14
REMARK    7  A    between atoms: C_14  and  C_15
REMARK                            x       y       z     vdW  Elec       q    Type
REMARK                         _______ _______ _______ _____ _____    ______ ____
ROOT
ATOM      1  C   UNL     1       4.714   4.146  18.689  0.00  0.00    +0.000 C 
ATOM      2  C   UNL     1       5.960   4.593  18.920  0.00  0.00    +0.000 C 
ATOM      3  O   UNL     1       6.695   5.408  18.105  0.00  0.00    +0.000 OA
ATOM      4  C   UNL     1       6.086   5.876  16.892  0.00  0.00    +0.000 C 
ATOM      5  C   UNL     1       6.672   5.113  15.708  0.00  0.00    +0.000 C 
ATOM      6  C   UNL     1       4.547   5.850  16.898  0.00  0.00    +0.000 C 
ATOM      7  C   UNL     1       4.008   7.005  17.769  0.00  0.00    +0.000 C 
ATOM      8  N   UNL     1       2.537   7.035  17.804  0.00  0.00    +0.000 NA
ATOM      9  C   UNL     1       1.987   5.760  18.291  0.00  0.00    +0.000 C 
ATOM     10  C   UNL     1       2.473   4.598  17.429  0.00  0.00    +0.000 C 
ATOM     11  C   UNL     1       4.006   4.496  17.400  0.00  0.00    +0.000 C 
ENDROOT
BRANCH   1  12
ATOM     12  C   UNL     1       4.038   3.330  19.731  0.00  0.00    +0.000 C 
ATOM     13  O   UNL     1       3.337   3.796  20.616  0.00  0.00    +0.000 OA
BRANCH  12  15
ATOM     14  C   UNL     1       3.637   1.280  18.669  0.00  0.00    +0.000 C 
ATOM     15  O   UNL     1       4.398   2.024  19.621  0.00  0.00    +0.000 OA
ENDBRANCH  12  15
ENDBRANCH   1  12
BRANCH   8  16
ATOM     16  C   UNL     1       2.042   8.141  18.653  0.00  0.00    +0.000 C 
BRANCH  16  17
ATOM     17  C   UNL     1       1.773   9.439  17.872  0.00  0.00    +0.000 C 
BRANCH  17  18
ATOM     18  C   UNL     1       0.773  10.312  18.557  0.00  0.00    +0.000 A 
ATOM     19  C   UNL     1       1.015  11.155  19.622  0.00  0.00    +0.000 A 
ATOM     20  N   UNL     1      -0.160  11.763  19.958  0.00  0.00    +0.000 N 
ATOM     21  C   UNL     1      -1.174  11.336  19.133  0.00  0.00    +0.000 A 
ATOM     22  C   UNL     1      -2.531  11.683  19.113  0.00  0.00    +0.000 A 
ATOM     23  C   UNL     1      -3.341  11.078  18.147  0.00  0.00    +0.000 A 
ATOM     24  C   UNL     1      -2.815  10.163  17.238  0.00  0.00    +0.000 A 
ATOM     25  C   UNL     1      -1.458   9.827  17.274  0.00  0.00    +0.000 A 
ATOM     26  C   UNL     1      -0.617  10.422  18.240  0.00  0.00    +0.000 A 
ATOM     27  H   UNL     1      -0.279  12.430  20.710  0.00  0.00    +0.000 HD
ENDBRANCH  17  18
ENDBRANCH  16  17
ENDBRANCH   8  16
TORSDOF 5
ENDMDL
MODEL 4
REMARK VINA RESULT:      -7.4      1.620      2.288
REMARK  Name = 
REMARK  7 active torsions:
REMARK  status: ('A' for Active; 'I' for Inactive)
REMARK    1  A    between atoms: C_1  and  O_2
REMARK    2  A    between atoms: O_2  and  C_3
REMARK    3  A    between atoms: C_3  and  C_5
REMARK    4  A    between atoms: C_8  and  C_9
REMARK    5  A    between atoms: N_12  and  C_13
REMARK    6  A    between atoms: C_13  and  C_14
REMARK    7  A    between atoms: C_14  and  C_15
REMARK                            x       y       z     vdW  Elec       q    Type
REMARK                         _______ _______ _______ _____ _____    ______ ____
ROOT
ATOM      1  C   UNL     1       3.926   4.491  19.233  0.00  0.00    +0.000 C 
ATOM      2  C   UNL     1       5.241   4.645  19.463  0.00  0.00    +0.000 C 
ATOM      3  O   UNL     1       6.188   5.018  18.550  0.00  0.00    +0.000 OA
ATOM      4  C   UNL     1       5.756   5.317  17.214  0.00  0.00    +0.000 C 
ATOM      5  C   UNL     1       6.139   4.164  16.291  0.00  0.00    +0.000 C 
ATOM      6  C   UNL     1       4.267   5.691  17.092  0.00  0.00    +0.000 C 
ATOM      7  C   UNL     1       4.043   7.122  17.625  0.00  0.00    +0.000 C 
ATOM      8  N   UNL     1       2.635   7.538  17.524  0.00  0.00    +0.000 NA
ATOM      9  C   UNL     1       1.749   6.606  18.241  0.00  0.00    +0.000 C 
ATOM     10  C   UNL     1       1.921   5.185  17.713  0.00  0.00    +0.000 C 
ATOM     11  C   UNL     1       3.369   4.687  17.841  0.00  0.00    +0.000 C 
ENDROOT
BRANCH   1  12
ATOM     12  C   UNL     1       3.031   4.157  20.371  0.00  0.00    +0.000 C 
ATOM     13  O   UNL     1       2.522   4.987  21.108  0.00  0.00    +0.000 OA
BRANCH  12  15
ATOM     14  C   UNL     1       2.058   2.392  21.566  0.00  0.00    +0.000 C 
ATOM     15  O   UNL     1       2.954   2.810  20.536  0.00  0.00    +0.000 OA
ENDBRANCH  12  15
ENDBRANCH   1  12
BRANCH   8  16
ATOM     16  C   UNL     1       2.439   8.907  18.052  0.00  0.00    +0.000 C 
BRANCH  16  17
ATOM     17  C   UNL     1       0.993   9.413  17.920  0.00  0.00    +0.000 C 
BRANCH  17  18
ATOM     18  C   UNL     1       0.628  10.369  19.007  0.00  0.00    +0.000 A 
ATOM     19  C   UNL     1       0.626  11.746  18.921  0.00  0.00    +0.000 A 
ATOM     20  N   UNL     1       0.245  12.247  20.133  0.00  0.00    +0.000 N 
ATOM     21  C   UNL     1      -0.004  11.225  21.018  0.00  0.00    +0.000 A 
ATOM     22  C   UNL     1      -0.410  11.267  22.357  0.00  0.00    +0.000 A 
ATOM     23  C   UNL     1      -0.586  10.048  23.020  0.00  0.00    +0.000 A 
ATOM     24  C   UNL     1      -0.365   8.837  22.369  0.00  0.00    +0.000 A 
ATOM     25  C   UNL     1       0.041   8.814  21.031  0.00  0.00    +0.000 A 
ATOM     26  C   UNL     1       0.227  10.030  20.338  0.00  0.00    +0.000 A 
ATOM     27  H   UNL     1       0.161  13.230  20.358  0.00  0.00    +0.000 HD
ENDBRANCH  17  18
ENDBRANCH  16  17
ENDBRANCH   8  16
TORSDOF 5
ENDMDL
MODEL 5
REMARK VINA RESULT:      -7.3      1.553      2.356
REMARK  Name = 
REMARK  7 active torsions:
REMARK  status: ('A' for Active; 'I' for Inactive)
REMARK    1  A    between atoms: C_1  and  O_2
REMARK    2  A    between atoms: O_2  and  C_3
REMARK    3  A    between atoms: C_3  and  C_5
REMARK    4  A    between atoms: C_8  and  C_9
REMARK    5  A    between atoms: N_12  and  C_13
REMARK    6  A    between atoms: C_13  and  C_14
REMARK    7  A    between atoms: C_14  and  C_15
REMARK                            x       y       z     vdW  Elec       q    Type
REMARK                         _______ _______ _______ _____ _____    ______ ____
ROOT
ATOM      1  C   UNL     1       4.049   3.800  18.887  0.00  0.00    +0.000 C 
ATOM      2  C   UNL     1       5.367   3.903  19.128  0.00  0.00    +0.000 C 
ATOM      3  O   UNL     1       6.317   4.377  18.266  0.00  0.00    +0.000 OA
ATOM      4  C   UNL     1       5.886   4.852  16.982  0.00  0.00    +0.000 C 
ATOM      5  C   UNL     1       6.249   3.822  15.917  0.00  0.00    +0.000 C 
ATOM      6  C   UNL     1       4.402   5.260  16.916  0.00  0.00    +0.000 C 
ATOM      7  C   UNL     1       4.201   6.613  17.630  0.00  0.00    +0.000 C 
ATOM      8  N   UNL     1       2.799   7.059  17.590  0.00  0.00    +0.000 NA
ATOM      9  C   UNL     1       1.901   6.056  18.185  0.00  0.00    +0.000 C 
ATOM     10  C   UNL     1       2.050   4.712  17.478  0.00  0.00    +0.000 C 
ATOM     11  C   UNL     1       3.491   4.181  17.535  0.00  0.00    +0.000 C 
ENDROOT
BRANCH   1  12
ATOM     12  C   UNL     1       3.153   3.335  19.977  0.00  0.00    +0.000 C 
ATOM     13  O   UNL     1       2.954   3.955  21.009  0.00  0.00    +0.000 OA
BRANCH  12  15
ATOM     14  C   UNL     1       1.259   1.985  19.691  0.00  0.00    +0.000 C 
ATOM     15  O   UNL     1       2.684   2.088  19.707  0.00  0.00    +0.000 OA
ENDBRANCH  12  15
ENDBRANCH   1  12
BRANCH   8  16
ATOM     16  C   UNL     1       2.626   8.351  18.290  0.00  0.00    +0.000 C 
BRANCH  16  17
ATOM     17  C   UNL     1       1.789   8.244  19.576  0.00  0.00    +0.000 C 
BRANCH  17  18
ATOM     18  C   UNL     1       0.916   9.437  19.783  0.00  0.00    +0.000 A 
ATOM     19  C   UNL     1       0.598  10.393  18.839  0.00  0.00    +0.000 A 
ATOM     20  N   UNL     1      -0.212  11.320  19.428  0.00  0.00    +0.000 N 
ATOM     21  C   UNL     1      -0.435  10.994  20.746  0.00  0.00    +0.000 A 
ATOM     22  C   UNL     1      -1.190  11.651  21.725  0.00  0.00    +0.000 A 
ATOM     23  C   UNL     1      -1.235  11.080  23.000  0.00  0.00    +0.000 A 
ATOM     24  C   UNL     1      -0.553   9.899  23.285  0.00  0.00    +0.000 A 
ATOM     25  C   UNL     1       0.198   9.257  22.295  0.00  0.00    +0.000 A 
ATOM     26  C   UNL     1       0.262   9.813  20.998  0.00  0.00    +0.000 A 
ATOM     27  H   UNL     1      -0.594  12.138  18.971  0.00  0.00    +0.000 HD
ENDBRANCH  17  18
ENDBRANCH  16  17
ENDBRANCH   8  16
TORSDOF 5
ENDMDL
MODEL 6
REMARK VINA RESULT:      -7.3      2.850      4.504
REMARK  Name = 
REMARK  7 active torsions:
REMARK  status: ('A' for Active; 'I' for Inactive)
REMARK    1  A    between atoms: C_1  and  O_2
REMARK    2  A    between atoms: O_2  and  C_3
REMARK    3  A    between atoms: C_3  and  C_5
REMARK    4  A    between atoms: C_8  and  C_9
REMARK    5  A    between atoms: N_12  and  C_13
REMARK    6  A    between atoms: C_13  and  C_14
REMARK    7  A    between atoms: C_14  and  C_15
REMARK                            x       y       z     vdW  Elec       q    Type
REMARK                         _______ _______ _______ _____ _____    ______ ____
ROOT
ATOM      1  C   UNL     1       6.783   6.056  16.804  0.00  0.00    +0.000 C 
ATOM      2  C   UNL     1       6.414   6.558  15.613  0.00  0.00    +0.000 C 
ATOM      3  O   UNL     1       5.736   5.898  14.626  0.00  0.00    +0.000 OA
ATOM      4  C   UNL     1       5.333   4.543  14.876  0.00  0.00    +0.000 C 
ATOM      5  C   UNL     1       6.243   3.596  14.099  0.00  0.00    +0.000 C 
ATOM      6  C   UNL     1       5.239   4.167  16.366  0.00  0.00    +0.000 C 
ATOM      7  C   UNL     1       3.972   4.796  16.984  0.00  0.00    +0.000 C 
ATOM      8  N   UNL     1       3.825   4.462  18.409  0.00  0.00    +0.000 NA
ATOM      9  C   UNL     1       5.004   4.884  19.183  0.00  0.00    +0.000 C 
ATOM     10  C   UNL     1       6.272   4.251  18.619  0.00  0.00    +0.000 C 
ATOM     11  C   UNL     1       6.496   4.611  17.141  0.00  0.00    +0.000 C 
ENDROOT
BRANCH   1  12
ATOM     12  C   UNL     1       7.446   6.950  17.788  0.00  0.00    +0.000 C 
ATOM     13  O   UNL     1       7.963   6.564  18.824  0.00  0.00    +0.000 OA
BRANCH  12  15
ATOM     14  C   UNL     1       8.235   9.144  18.024  0.00  0.00    +0.000 C 
ATOM     15  O   UNL     1       7.295   8.252  17.424  0.00  0.00    +0.000 OA
ENDBRANCH  12  15
ENDBRANCH   1  12
BRANCH   8  16
ATOM     16  C   UNL     1       2.612   5.084  18.985  0.00  0.00    +0.000 C 
BRANCH  16  17
ATOM     17  C   UNL     1       2.910   6.310  19.865  0.00  0.00    +0.000 C 
BRANCH  17  18
ATOM     18  C   UNL     1       2.273   7.553  19.336  0.00  0.00    +0.000 A 
ATOM     19  C   UNL     1       2.389   8.051  18.055  0.00  0.00    +0.000 A 
ATOM     20  N   UNL     1       1.666   9.207  17.981  0.00  0.00    +0.000 N 
ATOM     21  C   UNL     1       1.075   9.482  19.192  0.00  0.00    +0.000 A 
ATOM     22  C   UNL     1       0.257  10.551  19.578  0.00  0.00    +0.000 A 
ATOM     23  C   UNL     1      -0.204  10.570  20.897  0.00  0.00    +0.000 A 
ATOM     24  C   UNL     1       0.138   9.561  21.794  0.00  0.00    +0.000 A 
ATOM     25  C   UNL     1       0.957   8.501  21.392  0.00  0.00    +0.000 A 
ATOM     26  C   UNL     1       1.438   8.457  20.065  0.00  0.00    +0.000 A 
ATOM     27  H   UNL     1       1.577   9.789  17.158  0.00  0.00    +0.000 HD
ENDBRANCH  17  18
ENDBRANCH  16  17
ENDBRANCH   8  16
TORSDOF 5
ENDMDL
MODEL 7
REMARK VINA RESULT:      -7.3      3.575      7.893
REMARK  Name = 
REMARK  7 active torsions:
REMARK  status: ('A' for Active; 'I' for Inactive)
REMARK    1  A    between atoms: C_1  and  O_2
REMARK    2  A    between atoms: O_2  and  C_3
REMARK    3  A    between atoms: C_3  and  C_5
REMARK    4  A    between atoms: C_8  and  C_9
REMARK    5  A    between atoms: N_12  and  C_13
REMARK    6  A    between atoms: C_13  and  C_14
REMARK    7  A    between atoms: C_14  and  C_15
REMARK                            x       y       z     vdW  Elec       q    Type
REMARK                         _______ _______ _______ _____ _____    ______ ____
ROOT
ATOM      1  C   UNL     1       0.587  11.338  19.946  0.00  0.00    +0.000 C 
ATOM      2  C   UNL     1       1.187  11.453  21.143  0.00  0.00    +0.000 C 
ATOM      3  O   UNL     1       1.258  10.492  22.113  0.00  0.00    +0.000 OA
ATOM      4  C   UNL     1       0.675   9.210  21.836  0.00  0.00    +0.000 C 
ATOM      5  C   UNL     1      -0.638   9.079  22.603  0.00  0.00    +0.000 C 
ATOM      6  C   UNL     1       0.509   8.892  20.339  0.00  0.00    +0.000 C 
ATOM      7  C   UNL     1       1.882   8.546  19.724  0.00  0.00    +0.000 C 
ATOM      8  N   UNL     1       1.784   8.223  18.292  0.00  0.00    +0.000 NA
ATOM      9  C   UNL     1       1.176   9.329  17.534  0.00  0.00    +0.000 C 
ATOM     10  C   UNL     1      -0.201   9.674  18.095  0.00  0.00    +0.000 C 
ATOM     11  C   UNL     1      -0.143  10.065  19.581  0.00  0.00    +0.000 C 
ENDROOT
BRANCH   1  12
ATOM     12  C   UNL     1       0.681  12.465  18.983  0.00  0.00    +0.000 C 
ATOM     13  O   UNL     1      -0.274  13.130  18.614  0.00  0.00    +0.000 OA
BRANCH  12  15
ATOM     14  C   UNL     1       2.371  13.913  18.250  0.00  0.00    +0.000 C 
ATOM     15  O   UNL     1       1.946  12.572  18.498  0.00  0.00    +0.000 OA
ENDBRANCH  12  15
ENDBRANCH   1  12
BRANCH   8  16
ATOM     16  C   UNL     1       3.111   7.906  17.720  0.00  0.00    +0.000 C 
BRANCH  16  17
ATOM     17  C   UNL     1       3.882   6.838  18.515  0.00  0.00    +0.000 C 
BRANCH  17  18
ATOM     18  C   UNL     1       3.479   5.452  18.134  0.00  0.00    +0.000 A 
ATOM     19  C   UNL     1       3.961   4.723  17.066  0.00  0.00    +0.000 A 
ATOM     20  N   UNL     1       3.332   3.511  17.059  0.00  0.00    +0.000 N 
ATOM     21  C   UNL     1       2.443   3.427  18.105  0.00  0.00    +0.000 A 
ATOM     22  C   UNL     1       1.587   2.385  18.482  0.00  0.00    +0.000 A 
ATOM     23  C   UNL     1       0.780   2.584  19.606  0.00  0.00    +0.000 A 
ATOM     24  C   UNL     1       0.828   3.776  20.325  0.00  0.00    +0.000 A 
ATOM     25  C   UNL     1       1.689   4.807  19.933  0.00  0.00    +0.000 A 
ATOM     26  C   UNL     1       2.514   4.633  18.800  0.00  0.00    +0.000 A 
ATOM     27  H   UNL     1       3.487   2.776  16.381  0.00  0.00    +0.000 HD
ENDBRANCH  17  18
ENDBRANCH  16  17
ENDBRANCH   8  16
TORSDOF 5
ENDMDL
MODEL 8
REMARK VINA RESULT:      -7.3      2.006      3.909
REMARK  Name = 
REMARK  7 active torsions:
REMARK  status: ('A' for Active; 'I' for Inactive)
REMARK    1  A    between atoms: C_1  and  O_2
REMARK    2  A    between atoms: O_2  and  C_3
REMARK    3  A    between atoms: C_3  and  C_5
REMARK    4  A    between atoms: C_8  and  C_9
REMARK    5  A    between atoms: N_12  and  C_13
REMARK    6  A    between atoms: C_13  and  C_14
REMARK    7  A    between atoms: C_14  and  C_15
REMARK                            x       y       z     vdW  Elec       q    Type
REMARK                         _______ _______ _______ _____ _____    ______ ____
ROOT
ATOM      1  C   UNL     1       3.974   3.905  17.501  0.00  0.00    +0.000 C 
ATOM      2  C   UNL     1       2.914   3.301  16.938  0.00  0.00    +0.000 C 
ATOM      3  O   UNL     1       1.666   3.174  17.482  0.00  0.00    +0.000 OA
ATOM      4  C   UNL     1       1.427   3.767  18.767  0.00  0.00    +0.000 C 
ATOM      5  C   UNL     1       1.379   2.670  19.826  0.00  0.00    +0.000 C 
ATOM      6  C   UNL     1       2.403   4.897  19.142  0.00  0.00    +0.000 C 
ATOM      7  C   UNL     1       2.058   6.172  18.344  0.00  0.00    +0.000 C 
ATOM      8  N   UNL     1       2.956   7.291  18.669  0.00  0.00    +0.000 NA
ATOM      9  C   UNL     1       4.364   6.934  18.432  0.00  0.00    +0.000 C 
ATOM     10  C   UNL     1       4.749   5.696  19.235  0.00  0.00    +0.000 C 
ATOM     11  C   UNL     1       3.868   4.483  18.894  0.00  0.00    +0.000 C 
ENDROOT
BRANCH   1  12
ATOM     12  C   UNL     1       5.235   4.018  16.724  0.00  0.00    +0.000 C 
ATOM     13  O   UNL     1       6.349   4.007  17.222  0.00  0.00    +0.000 OA
BRANCH  12  15
ATOM     14  C   UNL     1       6.083   4.069  14.540  0.00  0.00    +0.000 C 
ATOM     15  O   UNL     1       4.965   4.244  15.411  0.00  0.00    +0.000 OA
ENDBRANCH  12  15
ENDBRANCH   1  12
BRANCH   8  16
ATOM     16  C   UNL     1       2.616   8.499  17.885  0.00  0.00    +0.000 C 
BRANCH  16  17
ATOM     17  C   UNL     1       1.118   8.849  17.917  0.00  0.00    +0.000 C 
BRANCH  17  18
ATOM     18  C   UNL     1       0.810   9.922  18.909  0.00  0.00    +0.000 A 
ATOM     19  C   UNL     1       0.917  11.282  18.702  0.00  0.00    +0.000 A 
ATOM     20  N   UNL     1       0.556  11.917  19.856  0.00  0.00    +0.000 N 
ATOM     21  C   UNL     1       0.212  10.999  20.821  0.00  0.00    +0.000 A 
ATOM     22  C   UNL     1      -0.212  11.192  22.141  0.00  0.00    +0.000 A 
ATOM     23  C   UNL     1      -0.494  10.054  22.904  0.00  0.00    +0.000 A 
ATOM     24  C   UNL     1      -0.357   8.776  22.367  0.00  0.00    +0.000 A 
ATOM     25  C   UNL     1       0.069   8.603  21.046  0.00  0.00    +0.000 A 
ATOM     26  C   UNL     1       0.361   9.735  20.254  0.00  0.00    +0.000 A 
ATOM     27  H   UNL     1       0.545  12.920  19.992  0.00  0.00    +0.000 HD
ENDBRANCH  17  18
ENDBRANCH  16  17
ENDBRANCH   8  16
TORSDOF 5
ENDMDL
MODEL 9
REMARK VINA RESULT:      -7.3      1.277      1.625
REMARK  Name = 
REMARK  7 active torsions:
REMARK  status: ('A' for Active; 'I' for Inactive)
REMARK    1  A    between atoms: C_1  and  O_2
REMARK    2  A    between atoms: O_2  and  C_3
REMARK    3  A    between atoms: C_3  and  C_5
REMARK    4  A    between atoms: C_8  and  C_9
REMARK    5  A    between atoms: N_12  and  C_13
REMARK    6  A    between atoms: C_13  and  C_14
REMARK    7  A    between atoms: C_14  and  C_15
REMARK                            x       y       z     vdW  Elec       q    Type
REMARK                         _______ _______ _______ _____ _____    ______ ____
ROOT
ATOM      1  C   UNL     1       3.786   3.321  18.770  0.00  0.00    +0.000 C 
ATOM      2  C   UNL     1       5.094   3.376  19.070  0.00  0.00    +0.000 C 
ATOM      3  O   UNL     1       6.066   4.024  18.358  0.00  0.00    +0.000 OA
ATOM      4  C   UNL     1       5.670   4.756  17.189  0.00  0.00    +0.000 C 
ATOM      5  C   UNL     1       6.077   3.974  15.944  0.00  0.00    +0.000 C 
ATOM      6  C   UNL     1       4.185   5.164  17.161  0.00  0.00    +0.000 C 
ATOM      7  C   UNL     1       3.948   6.337  18.136  0.00  0.00    +0.000 C 
ATOM      8  N   UNL     1       2.544   6.776  18.146  0.00  0.00    +0.000 NA
ATOM      9  C   UNL     1       1.638   5.668  18.487  0.00  0.00    +0.000 C 
ATOM     10  C   UNL     1       1.823   4.503  17.519  0.00  0.00    +0.000 C 
ATOM     11  C   UNL     1       3.266   3.976  17.510  0.00  0.00    +0.000 C 
ENDROOT
BRANCH   1  12
ATOM     12  C   UNL     1       2.861   2.635  19.708  0.00  0.00    +0.000 C 
ATOM     13  O   UNL     1       2.046   1.791  19.370  0.00  0.00    +0.000 OA
BRANCH  12  15
ATOM     14  C   UNL     1       1.736   3.334  21.641  0.00  0.00    +0.000 C 
ATOM     15  O   UNL     1       2.977   3.158  20.958  0.00  0.00    +0.000 OA
ENDBRANCH  12  15
ENDBRANCH   1  12
BRANCH   8  16
ATOM     16  C   UNL     1       2.336   7.892  19.095  0.00  0.00    +0.000 C 
BRANCH  16  17
ATOM     17  C   UNL     1       1.523   7.495  20.339  0.00  0.00    +0.000 C 
BRANCH  17  18
ATOM     18  C   UNL     1       0.892   8.675  21.001  0.00  0.00    +0.000 A 
ATOM     19  C   UNL     1       0.982   9.010  22.336  0.00  0.00    +0.000 A 
ATOM     20  N   UNL     1       0.257  10.149  22.539  0.00  0.00    +0.000 N 
ATOM     21  C   UNL     1      -0.312  10.571  21.361  0.00  0.00    +0.000 A 
ATOM     22  C   UNL     1      -1.131  11.675  21.097  0.00  0.00    +0.000 A 
ATOM     23  C   UNL     1      -1.571  11.857  19.782  0.00  0.00    +0.000 A 
ATOM     24  C   UNL     1      -1.205  10.971  18.772  0.00  0.00    +0.000 A 
ATOM     25  C   UNL     1      -0.386   9.872  19.054  0.00  0.00    +0.000 A 
ATOM     26  C   UNL     1       0.071   9.664  20.374  0.00  0.00    +0.000 A 
ATOM     27  H   UNL     1       0.143  10.618  23.429  0.00  0.00    +0.000 HD
ENDBRANCH  17  18
ENDBRANCH  16  17
ENDBRANCH   8  16
TORSDOF 5
ENDMDL
