MODEL 1
REMARK VINA RESULT:      -7.6      0.000      0.000
REMARK  Name = 
REMARK  4 active torsions:
REMARK  status: ('A' for Active; 'I' for Inactive)
REMARK    1  A    between atoms: C_1  and  C_2
REMARK    2  A    between atoms: C_5  and  C_6
REMARK    3  A    between atoms: C_8  and  N_9
REMARK    4  A    between atoms: N_12  and  C_13
REMARK                            x       y       z     vdW  Elec       q    Type
REMARK                         _______ _______ _______ _____ _____    ______ ____
ROOT
ATOM      1  C   UNL     1       3.087   5.790  18.721  0.00  0.00    +0.000 A 
ATOM      2  C   UNL     1       2.631   7.055  19.048  0.00  0.00    +0.000 A 
ATOM      3  C   UNL     1       1.844   7.195  20.173  0.00  0.00    +0.000 A 
ATOM      4  N   UNL     1       1.536   6.115  20.911  0.00  0.00    +0.000 NA
ATOM      5  C   UNL     1       1.960   4.922  20.501  0.00  0.00    +0.000 A 
ATOM      6  N   UNL     1       1.582   3.828  21.251  0.00  0.00    +0.000 N 
ATOM      7  N   UNL     1       2.742   4.709  19.447  0.00  0.00    +0.000 NA
ATOM      8  H   UNL     1       1.365   4.123  22.192  0.00  0.00    +0.000 HD
ATOM      9  H   UNL     1       2.257   3.086  21.134  0.00  0.00    +0.000 HD
ENDROOT
BRANCH   1  14
ATOM     10  C   UNL     1       6.650   4.755  14.238  0.00  0.00    +0.000 C 
ATOM     11  C   UNL     1       5.711   5.033  15.376  0.00  0.00    +0.000 A 
ATOM     12  C   UNL     1       5.394   6.344  15.737  0.00  0.00    +0.000 A 
ATOM     13  C   UNL     1       4.542   6.591  16.819  0.00  0.00    +0.000 A 
ATOM     14  C   UNL     1       3.975   5.541  17.566  0.00  0.00    +0.000 A 
ATOM     15  C   UNL     1       4.301   4.229  17.178  0.00  0.00    +0.000 A 
ATOM     16  C   UNL     1       5.155   3.975  16.098  0.00  0.00    +0.000 A 
ENDBRANCH   1  14
BRANCH   3  17
ATOM     17  N   UNL     1       1.301   8.404  20.549  0.00  0.00    +0.000 N 
ATOM     18  C   UNL     1       1.429   8.806  21.959  0.00  0.00    +0.000 C 
ATOM     19  C   UNL     1       0.209   9.652  22.383  0.00  0.00    +0.000 C 
ATOM     20  N   UNL     1      -0.021  10.814  21.492  0.00  0.00    +0.000 NA
ATOM     21  C   UNL     1      -1.216  11.544  21.911  0.00  0.00    +0.000 C 
ATOM     22  C   UNL     1      -0.170  10.332  20.103  0.00  0.00    +0.000 C 
ATOM     23  C   UNL     1       1.047   9.509  19.621  0.00  0.00    +0.000 C 
ENDBRANCH   3  17
TORSDOF 2
ENDMDL
MODEL 2
REMARK VINA RESULT:      -7.6      0.474      1.150
REMARK  Name = 
REMARK  4 active torsions:
REMARK  status: ('A' for Active; 'I' for Inactive)
REMARK    1  A    between atoms: C_1  and  C_2
REMARK    2  A    between atoms: C_5  and  C_6
REMARK    3  A    between atoms: C_8  and  N_9
REMARK    4  A    between atoms: N_12  and  C_13
REMARK                            x       y       z     vdW  Elec       q    Type
REMARK                         _______ _______ _______ _____ _____    ______ ____
ROOT
ATOM      1  C   UNL     1       3.274   5.699  18.582  0.00  0.00    +0.000 A 
ATOM      2  C   UNL     1       2.757   6.969  18.767  0.00  0.00    +0.000 A 
ATOM      3  C   UNL     1       2.004   7.210  19.898  0.00  0.00    +0.000 A 
ATOM      4  N   UNL     1       1.786   6.219  20.779  0.00  0.00    +0.000 NA
ATOM      5  C   UNL     1       2.265   5.007  20.504  0.00  0.00    +0.000 A 
ATOM      6  N   UNL     1       1.978   3.999  21.401  0.00  0.00    +0.000 N 
ATOM      7  N   UNL     1       3.019   4.703  19.452  0.00  0.00    +0.000 NA
ATOM      8  H   UNL     1       1.779   4.400  22.305  0.00  0.00    +0.000 HD
ATOM      9  H   UNL     1       2.691   3.286  21.349  0.00  0.00    +0.000 HD
ENDROOT
BRANCH   1  14
ATOM     10  C   UNL     1       6.582   4.387  13.979  0.00  0.00    +0.000 C 
ATOM     11  C   UNL     1       5.750   4.715  15.184  0.00  0.00    +0.000 A 
ATOM     12  C   UNL     1       5.247   3.703  16.002  0.00  0.00    +0.000 A 
ATOM     13  C   UNL     1       4.447   4.019  17.105  0.00  0.00    +0.000 A 
ATOM     14  C   UNL     1       4.132   5.353  17.430  0.00  0.00    +0.000 A 
ATOM     15  C   UNL     1       4.658   6.357  16.597  0.00  0.00    +0.000 A 
ATOM     16  C   UNL     1       5.457   6.046  15.490  0.00  0.00    +0.000 A 
ENDBRANCH   1  14
BRANCH   3  17
ATOM     17  N   UNL     1       1.405   8.427  20.143  0.00  0.00    +0.000 N 
ATOM     18  C   UNL     1       1.281   8.862  21.543  0.00  0.00    +0.000 C 
ATOM     19  C   UNL     1       0.007   9.715  21.723  0.00  0.00    +0.000 C 
ATOM     20  N   UNL     1      -0.059  10.855  20.778  0.00  0.00    +0.000 NA
ATOM     21  C   UNL     1      -1.308  11.592  20.960  0.00  0.00    +0.000 C 
ATOM     22  C   UNL     1       0.041  10.339  19.397  0.00  0.00    +0.000 C 
ATOM     23  C   UNL     1       1.322   9.508  19.158  0.00  0.00    +0.000 C 
ENDBRANCH   3  17
TORSDOF 2
ENDMDL
MODEL 3
REMARK VINA RESULT:      -7.5      0.873      1.712
REMARK  Name = 
REMARK  4 active torsions:
REMARK  status: ('A' for Active; 'I' for Inactive)
REMARK    1  A    between atoms: C_1  and  C_2
REMARK    2  A    between atoms: C_5  and  C_6
REMARK    3  A    between atoms: C_8  and  N_9
REMARK    4  A    between atoms: N_12  and  C_13
REMARK                            x       y       z     vdW  Elec       q    Type
REMARK                         _______ _______ _______ _____ _____    ______ ____
ROOT
ATOM      1  C   UNL     1       3.323   5.746  18.510  0.00  0.00    +0.000 A 
ATOM      2  C   UNL     1       2.790   7.014  18.660  0.00  0.00    +0.000 A 
ATOM      3  C   UNL     1       2.045   7.280  19.790  0.00  0.00    +0.000 A 
ATOM      4  N   UNL     1       1.850   6.314  20.704  0.00  0.00    +0.000 NA
ATOM      5  C   UNL     1       2.343   5.101  20.462  0.00  0.00    +0.000 A 
ATOM      6  N   UNL     1       2.080   4.118  21.394  0.00  0.00    +0.000 N 
ATOM      7  N   UNL     1       3.091   4.774  19.413  0.00  0.00    +0.000 NA
ATOM      8  H   UNL     1       1.884   4.545  22.287  0.00  0.00    +0.000 HD
ATOM      9  H   UNL     1       2.802   3.414  21.357  0.00  0.00    +0.000 HD
ENDROOT
BRANCH   1  14
ATOM     10  C   UNL     1       6.605   4.337  13.916  0.00  0.00    +0.000 C 
ATOM     11  C   UNL     1       5.780   4.690  15.118  0.00  0.00    +0.000 A 
ATOM     12  C   UNL     1       5.275   3.695  15.956  0.00  0.00    +0.000 A 
ATOM     13  C   UNL     1       4.480   4.035  17.057  0.00  0.00    +0.000 A 
ATOM     14  C   UNL     1       4.175   5.375  17.360  0.00  0.00    +0.000 A 
ATOM     15  C   UNL     1       4.703   6.361  16.508  0.00  0.00    +0.000 A 
ATOM     16  C   UNL     1       5.495   6.028  15.403  0.00  0.00    +0.000 A 
ENDBRANCH   1  14
BRANCH   3  17
ATOM     17  N   UNL     1       1.431   8.495  20.003  0.00  0.00    +0.000 N 
ATOM     18  C   UNL     1       1.144   9.334  18.828  0.00  0.00    +0.000 C 
ATOM     19  C   UNL     1       1.226  10.827  19.209  0.00  0.00    +0.000 C 
ATOM     20  N   UNL     1       0.364  11.174  20.364  0.00  0.00    +0.000 NA
ATOM     21  C   UNL     1       0.524  12.585  20.711  0.00  0.00    +0.000 C 
ATOM     22  C   UNL     1       0.730  10.315  21.510  0.00  0.00    +0.000 C 
ATOM     23  C   UNL     1       0.626   8.807  21.187  0.00  0.00    +0.000 C 
ENDBRANCH   3  17
TORSDOF 2
ENDMDL
MODEL 4
REMARK VINA RESULT:      -7.5      0.755      1.270
REMARK  Name = 
REMARK  4 active torsions:
REMARK  status: ('A' for Active; 'I' for Inactive)
REMARK    1  A    between atoms: C_1  and  C_2
REMARK    2  A    between atoms: C_5  and  C_6
REMARK    3  A    between atoms: C_8  and  N_9
REMARK    4  A    between atoms: N_12  and  C_13
REMARK                            x       y       z     vdW  Elec       q    Type
REMARK                         _______ _______ _______ _____ _____    ______ ____
ROOT
ATOM      1  C   UNL     1       3.231   5.845  18.571  0.00  0.00    +0.000 A 
ATOM      2  C   UNL     1       2.685   7.103  18.759  0.00  0.00    +0.000 A 
ATOM      3  C   UNL     1       1.949   7.330  19.904  0.00  0.00    +0.000 A 
ATOM      4  N   UNL     1       1.774   6.339  20.794  0.00  0.00    +0.000 NA
ATOM      5  C   UNL     1       2.279   5.138  20.516  0.00  0.00    +0.000 A 
ATOM      6  N   UNL     1       2.036   4.129  21.424  0.00  0.00    +0.000 N 
ATOM      7  N   UNL     1       3.020   4.848  19.451  0.00  0.00    +0.000 NA
ATOM      8  H   UNL     1       1.845   4.530  22.330  0.00  0.00    +0.000 HD
ATOM      9  H   UNL     1       2.767   3.434  21.362  0.00  0.00    +0.000 HD
ENDROOT
BRANCH   1  14
ATOM     10  C   UNL     1       6.624   4.490  14.042  0.00  0.00    +0.000 C 
ATOM     11  C   UNL     1       5.729   4.850  15.191  0.00  0.00    +0.000 A 
ATOM     12  C   UNL     1       5.443   6.184  15.484  0.00  0.00    +0.000 A 
ATOM     13  C   UNL     1       4.632   6.509  16.577  0.00  0.00    +0.000 A 
ATOM     14  C   UNL     1       4.075   5.514  17.403  0.00  0.00    +0.000 A 
ATOM     15  C   UNL     1       4.369   4.177  17.083  0.00  0.00    +0.000 A 
ATOM     16  C   UNL     1       5.182   3.846  15.993  0.00  0.00    +0.000 A 
ENDBRANCH   1  14
BRANCH   3  17
ATOM     17  N   UNL     1       1.322   8.533  20.154  0.00  0.00    +0.000 N 
ATOM     18  C   UNL     1       1.077   9.429  19.013  0.00  0.00    +0.000 C 
ATOM     19  C   UNL     1       1.140  10.901  19.472  0.00  0.00    +0.000 C 
ATOM     20  N   UNL     1       0.233  11.187  20.609  0.00  0.00    +0.000 NA
ATOM     21  C   UNL     1       0.375  12.579  21.033  0.00  0.00    +0.000 C 
ATOM     22  C   UNL     1       0.558  10.272  21.723  0.00  0.00    +0.000 C 
ATOM     23  C   UNL     1       0.472   8.783  21.320  0.00  0.00    +0.000 C 
ENDBRANCH   3  17
TORSDOF 2
ENDMDL
MODEL 5
REMARK VINA RESULT:      -7.2      1.614      7.130
REMARK  Name = 
REMARK  4 active torsions:
REMARK  status: ('A' for Active; 'I' for Inactive)
REMARK    1  A    between atoms: C_1  and  C_2
REMARK    2  A    between atoms: C_5  and  C_6
REMARK    3  A    between atoms: C_8  and  N_9
REMARK    4  A    between atoms: N_12  and  C_13
REMARK                            x       y       z     vdW  Elec       q    Type
REMARK                         _______ _______ _______ _____ _____    ______ ____
ROOT
ATOM      1  C   UNL     1       2.197   6.759  19.985  0.00  0.00    +0.000 A 
ATOM      2  C   UNL     1       3.111   6.528  18.972  0.00  0.00    +0.000 A 
ATOM      3  C   UNL     1       3.627   5.256  18.836  0.00  0.00    +0.000 A 
ATOM      4  N   UNL     1       3.243   4.286  19.681  0.00  0.00    +0.000 NA
ATOM      5  C   UNL     1       2.406   4.597  20.669  0.00  0.00    +0.000 A 
ATOM      6  N   UNL     1       2.074   3.590  21.552  0.00  0.00    +0.000 N 
ATOM      7  N   UNL     1       1.846   5.788  20.850  0.00  0.00    +0.000 NA
ATOM      8  H   UNL     1       2.207   2.694  21.107  0.00  0.00    +0.000 HD
ATOM      9  H   UNL     1       1.171   3.782  21.961  0.00  0.00    +0.000 HD
ENDROOT
BRANCH   1  14
ATOM     10  C   UNL     1      -0.443  11.880  20.804  0.00  0.00    +0.000 C 
ATOM     11  C   UNL     1       0.264  10.574  20.588  0.00  0.00    +0.000 A 
ATOM     12  C   UNL     1       0.765  10.232  19.331  0.00  0.00    +0.000 A 
ATOM     13  C   UNL     1       1.394   8.997  19.134  0.00  0.00    +0.000 A 
ATOM     14  C   UNL     1       1.550   8.073  20.185  0.00  0.00    +0.000 A 
ATOM     15  C   UNL     1       1.046   8.443  21.444  0.00  0.00    +0.000 A 
ATOM     16  C   UNL     1       0.413   9.675  21.647  0.00  0.00    +0.000 A 
ENDBRANCH   1  14
BRANCH   3  17
ATOM     17  N   UNL     1       4.582   4.942  17.892  0.00  0.00    +0.000 N 
ATOM     18  C   UNL     1       5.929   5.507  18.064  0.00  0.00    +0.000 C 
ATOM     19  C   UNL     1       6.582   5.752  16.687  0.00  0.00    +0.000 C 
ATOM     20  N   UNL     1       6.591   4.542  15.831  0.00  0.00    +0.000 NA
ATOM     21  C   UNL     1       7.171   4.849  14.525  0.00  0.00    +0.000 C 
ATOM     22  C   UNL     1       5.204   4.052  15.679  0.00  0.00    +0.000 C 
ATOM     23  C   UNL     1       4.521   3.756  17.034  0.00  0.00    +0.000 C 
ENDBRANCH   3  17
TORSDOF 2
ENDMDL
MODEL 6
REMARK VINA RESULT:      -7.2      1.651      7.153
REMARK  Name = 
REMARK  4 active torsions:
REMARK  status: ('A' for Active; 'I' for Inactive)
REMARK    1  A    between atoms: C_1  and  C_2
REMARK    2  A    between atoms: C_5  and  C_6
REMARK    3  A    between atoms: C_8  and  N_9
REMARK    4  A    between atoms: N_12  and  C_13
REMARK                            x       y       z     vdW  Elec       q    Type
REMARK                         _______ _______ _______ _____ _____    ______ ____
ROOT
ATOM      1  C   UNL     1       2.231   6.698  20.000  0.00  0.00    +0.000 A 
ATOM      2  C   UNL     1       3.142   6.476  18.982  0.00  0.00    +0.000 A 
ATOM      3  C   UNL     1       3.650   5.203  18.826  0.00  0.00    +0.000 A 
ATOM      4  N   UNL     1       3.260   4.222  19.657  0.00  0.00    +0.000 NA
ATOM      5  C   UNL     1       2.426   4.524  20.651  0.00  0.00    +0.000 A 
ATOM      6  N   UNL     1       2.088   3.506  21.518  0.00  0.00    +0.000 N 
ATOM      7  N   UNL     1       1.874   5.716  20.850  0.00  0.00    +0.000 NA
ATOM      8  H   UNL     1       2.215   2.616  21.059  0.00  0.00    +0.000 HD
ATOM      9  H   UNL     1       1.186   3.698  21.931  0.00  0.00    +0.000 HD
ENDROOT
BRANCH   1  14
ATOM     10  C   UNL     1      -0.190  11.924  20.830  0.00  0.00    +0.000 C 
ATOM     11  C   UNL     1       0.408  10.564  20.622  0.00  0.00    +0.000 A 
ATOM     12  C   UNL     1       0.513   9.659  21.679  0.00  0.00    +0.000 A 
ATOM     13  C   UNL     1       1.101   8.405  21.479  0.00  0.00    +0.000 A 
ATOM     14  C   UNL     1       1.592   8.013  20.219  0.00  0.00    +0.000 A 
ATOM     15  C   UNL     1       1.468   8.937  19.167  0.00  0.00    +0.000 A 
ATOM     16  C   UNL     1       0.884  10.195  19.361  0.00  0.00    +0.000 A 
ENDBRANCH   1  14
BRANCH   3  17
ATOM     17  N   UNL     1       4.601   4.897  17.876  0.00  0.00    +0.000 N 
ATOM     18  C   UNL     1       5.955   5.442  18.061  0.00  0.00    +0.000 C 
ATOM     19  C   UNL     1       6.612   5.708  16.689  0.00  0.00    +0.000 C 
ATOM     20  N   UNL     1       6.608   4.515  15.810  0.00  0.00    +0.000 NA
ATOM     21  C   UNL     1       7.192   4.841  14.510  0.00  0.00    +0.000 C 
ATOM     22  C   UNL     1       5.216   4.044  15.647  0.00  0.00    +0.000 C 
ATOM     23  C   UNL     1       4.528   3.729  16.995  0.00  0.00    +0.000 C 
ENDBRANCH   3  17
TORSDOF 2
ENDMDL
MODEL 7
REMARK VINA RESULT:      -7.0      1.363      7.226
REMARK  Name = 
REMARK  4 active torsions:
REMARK  status: ('A' for Active; 'I' for Inactive)
REMARK    1  A    between atoms: C_1  and  C_2
REMARK    2  A    between atoms: C_5  and  C_6
REMARK    3  A    between atoms: C_8  and  N_9
REMARK    4  A    between atoms: N_12  and  C_13
REMARK                            x       y       z     vdW  Elec       q    Type
REMARK                         _______ _______ _______ _____ _____    ______ ____
ROOT
ATOM      1  C   UNL     1       1.812   7.113  20.295  0.00  0.00    +0.000 A 
ATOM      2  C   UNL     1       2.579   7.026  19.147  0.00  0.00    +0.000 A 
ATOM      3  C   UNL     1       3.085   5.793  18.790  0.00  0.00    +0.000 A 
ATOM      4  N   UNL     1       2.832   4.720  19.558  0.00  0.00    +0.000 NA
ATOM      5  C   UNL     1       2.137   4.891  20.681  0.00  0.00    +0.000 A 
ATOM      6  N   UNL     1       1.940   3.780  21.474  0.00  0.00    +0.000 N 
ATOM      7  N   UNL     1       1.595   6.038  21.078  0.00  0.00    +0.000 NA
ATOM      8  H   UNL     1       2.020   2.946  20.911  0.00  0.00    +0.000 HD
ATOM      9  H   UNL     1       1.101   3.899  22.022  0.00  0.00    +0.000 HD
ENDROOT
BRANCH   1  14
ATOM     10  C   UNL     1      -0.746  12.030  22.065  0.00  0.00    +0.000 C 
ATOM     11  C   UNL     1      -0.062  10.777  21.603  0.00  0.00    +0.000 A 
ATOM     12  C   UNL     1       0.339  10.629  20.275  0.00  0.00    +0.000 A 
ATOM     13  C   UNL     1       0.949   9.444  19.849  0.00  0.00    +0.000 A 
ATOM     14  C   UNL     1       1.184   8.376  20.736  0.00  0.00    +0.000 A 
ATOM     15  C   UNL     1       0.781   8.552  22.072  0.00  0.00    +0.000 A 
ATOM     16  C   UNL     1       0.168   9.734  22.503  0.00  0.00    +0.000 A 
ENDBRANCH   1  14
BRANCH   3  17
ATOM     17  N   UNL     1       3.903   5.618  17.694  0.00  0.00    +0.000 N 
ATOM     18  C   UNL     1       3.821   4.337  16.975  0.00  0.00    +0.000 C 
ATOM     19  C   UNL     1       5.196   3.976  16.374  0.00  0.00    +0.000 C 
ATOM     20  N   UNL     1       5.753   5.056  15.526  0.00  0.00    +0.000 NA
ATOM     21  C   UNL     1       7.076   4.680  15.030  0.00  0.00    +0.000 C 
ATOM     22  C   UNL     1       5.834   6.299  16.322  0.00  0.00    +0.000 C 
ATOM     23  C   UNL     1       4.469   6.721  16.914  0.00  0.00    +0.000 C 
ENDBRANCH   3  17
TORSDOF 2
ENDMDL
MODEL 8
REMARK VINA RESULT:      -7.0      1.362      7.251
REMARK  Name = 
REMARK  4 active torsions:
REMARK  status: ('A' for Active; 'I' for Inactive)
REMARK    1  A    between atoms: C_1  and  C_2
REMARK    2  A    between atoms: C_5  and  C_6
REMARK    3  A    between atoms: C_8  and  N_9
REMARK    4  A    between atoms: N_12  and  C_13
REMARK                            x       y       z     vdW  Elec       q    Type
REMARK                         _______ _______ _______ _____ _____    ______ ____
ROOT
ATOM      1  C   UNL     1       1.815   7.135  20.269  0.00  0.00    +0.000 A 
ATOM      2  C   UNL     1       2.582   7.043  19.121  0.00  0.00    +0.000 A 
ATOM      3  C   UNL     1       3.093   5.809  18.775  0.00  0.00    +0.000 A 
ATOM      4  N   UNL     1       2.846   4.741  19.552  0.00  0.00    +0.000 NA
ATOM      5  C   UNL     1       2.150   4.918  20.674  0.00  0.00    +0.000 A 
ATOM      6  N   UNL     1       1.960   3.813  21.476  0.00  0.00    +0.000 N 
ATOM      7  N   UNL     1       1.603   6.066  21.061  0.00  0.00    +0.000 NA
ATOM      8  H   UNL     1       2.043   2.975  20.920  0.00  0.00    +0.000 HD
ATOM      9  H   UNL     1       1.120   3.932  22.024  0.00  0.00    +0.000 HD
ENDROOT
BRANCH   1  14
ATOM     10  C   UNL     1      -0.588  12.167  21.931  0.00  0.00    +0.000 C 
ATOM     11  C   UNL     1       0.006  10.856  21.508  0.00  0.00    +0.000 A 
ATOM     12  C   UNL     1       0.195   9.826  22.431  0.00  0.00    +0.000 A 
ATOM     13  C   UNL     1       0.778   8.618  22.031  0.00  0.00    +0.000 A 
ATOM     14  C   UNL     1       1.182   8.399  20.700  0.00  0.00    +0.000 A 
ATOM     15  C   UNL     1       0.974   9.448  19.786  0.00  0.00    +0.000 A 
ATOM     16  C   UNL     1       0.393  10.659  20.181  0.00  0.00    +0.000 A 
ENDBRANCH   1  14
BRANCH   3  17
ATOM     17  N   UNL     1       3.911   5.628  17.680  0.00  0.00    +0.000 N 
ATOM     18  C   UNL     1       3.820   4.349  16.959  0.00  0.00    +0.000 C 
ATOM     19  C   UNL     1       5.194   3.978  16.360  0.00  0.00    +0.000 C 
ATOM     20  N   UNL     1       5.760   5.054  15.513  0.00  0.00    +0.000 NA
ATOM     21  C   UNL     1       7.081   4.669  15.019  0.00  0.00    +0.000 C 
ATOM     22  C   UNL     1       5.850   6.295  16.312  0.00  0.00    +0.000 C 
ATOM     23  C   UNL     1       4.488   6.728  16.902  0.00  0.00    +0.000 C 
ENDBRANCH   3  17
TORSDOF 2
ENDMDL
MODEL 9
REMARK VINA RESULT:      -6.8      3.909      5.583
REMARK  Name = 
REMARK  4 active torsions:
REMARK  status: ('A' for Active; 'I' for Inactive)
REMARK    1  A    between atoms: C_1  and  C_2
REMARK    2  A    between atoms: C_5  and  C_6
REMARK    3  A    between atoms: C_8  and  N_9
REMARK    4  A    between atoms: N_12  and  C_13
REMARK                            x       y       z     vdW  Elec       q    Type
REMARK                         _______ _______ _______ _____ _____    ______ ____
ROOT
ATOM      1  C   UNL     1       6.410   4.608  16.537  0.00  0.00    +0.000 A 
ATOM      2  C   UNL     1       5.207   4.235  17.111  0.00  0.00    +0.000 A 
ATOM      3  C   UNL     1       5.061   4.384  18.475  0.00  0.00    +0.000 A 
ATOM      4  N   UNL     1       6.076   4.872  19.206  0.00  0.00    +0.000 NA
ATOM      5  C   UNL     1       7.225   5.152  18.594  0.00  0.00    +0.000 A 
ATOM      6  N   UNL     1       8.265   5.600  19.381  0.00  0.00    +0.000 N 
ATOM      7  N   UNL     1       7.435   5.062  17.284  0.00  0.00    +0.000 NA
ATOM      8  H   UNL     1       7.895   6.006  20.228  0.00  0.00    +0.000 HD
ATOM      9  H   UNL     1       8.893   6.162  18.826  0.00  0.00    +0.000 HD
ENDROOT
BRANCH   1  14
ATOM     10  C   UNL     1       7.334   4.425  10.795  0.00  0.00    +0.000 C 
ATOM     11  C   UNL     1       7.105   4.444  12.278  0.00  0.00    +0.000 A 
ATOM     12  C   UNL     1       6.123   3.642  12.860  0.00  0.00    +0.000 A 
ATOM     13  C   UNL     1       5.897   3.692  14.240  0.00  0.00    +0.000 A 
ATOM     14  C   UNL     1       6.650   4.534  15.080  0.00  0.00    +0.000 A 
ATOM     15  C   UNL     1       7.641   5.326  14.473  0.00  0.00    +0.000 A 
ATOM     16  C   UNL     1       7.869   5.283  13.093  0.00  0.00    +0.000 A 
ENDBRANCH   1  14
BRANCH   3  17
ATOM     17  N   UNL     1       3.920   3.992  19.143  0.00  0.00    +0.000 N 
ATOM     18  C   UNL     1       3.214   5.003  19.947  0.00  0.00    +0.000 C 
ATOM     19  C   UNL     1       2.537   4.335  21.163  0.00  0.00    +0.000 C 
ATOM     20  N   UNL     1       1.652   3.210  20.781  0.00  0.00    +0.000 NA
ATOM     21  C   UNL     1       1.083   2.586  21.975  0.00  0.00    +0.000 C 
ATOM     22  C   UNL     1       2.435   2.225  20.007  0.00  0.00    +0.000 C 
ATOM     23  C   UNL     1       3.102   2.840  18.755  0.00  0.00    +0.000 C 
ENDBRANCH   3  17
TORSDOF 2
ENDMDL
