MODEL 1
REMARK VINA RESULT:      -8.1      0.000      0.000
REMARK  Name = 
REMARK  10 active torsions:
REMARK  status: ('A' for Active; 'I' for Inactive)
REMARK    1  A    between atoms: C_1  and  C_2
REMARK    2  A    between atoms: C_2  and  C_3
REMARK    3  A    between atoms: C_2  and  O_4
REMARK    4  A    between atoms: O_4  and  C_5
REMARK    5  A    between atoms: C_5  and  C_7
REMARK    6  A    between atoms: C_7  and  C_8
REMARK    7  A    between atoms: C_15  and  C_16
REMARK    8  A    between atoms: C_16  and  N_17
REMARK    9  A    between atoms: C_20  and  O_21
REMARK   10  A    between atoms: C_20  and  C_22
REMARK                            x       y       z     vdW  Elec       q    Type
REMARK                         _______ _______ _______ _____ _____    ______ ____
ROOT
ATOM      1  C   UNL     1       2.679   7.608  19.485  0.00  0.00    +0.000 C 
ENDROOT
BRANCH   1   2
ATOM      2  N   UNL     1       1.470   8.324  19.943  0.00  0.00    +0.000 NA
ATOM      3  C   UNL     1       1.366   9.595  19.201  0.00  0.00    +0.000 C 
ATOM      4  C   UNL     1       0.152  10.424  19.626  0.00  0.00    +0.000 C 
ATOM      5  C   UNL     1       0.133  10.680  21.144  0.00  0.00    +0.000 C 
ATOM      6  C   UNL     1       0.292   9.350  21.886  0.00  0.00    +0.000 C 
ATOM      7  C   UNL     1       1.523   8.594  21.388  0.00  0.00    +0.000 C 
BRANCH   5   8
ATOM      8  C   UNL     1      -1.143  11.419  21.564  0.00  0.00    +0.000 A 
ATOM      9  C   UNL     1      -1.556  11.414  22.910  0.00  0.00    +0.000 A 
ATOM     10  C   UNL     1      -2.751  12.026  23.304  0.00  0.00    +0.000 A 
ATOM     11  C   UNL     1      -3.548  12.659  22.356  0.00  0.00    +0.000 A 
ATOM     12 CL   UNL     1      -5.037  13.376  22.832  0.00  0.00    +0.000 Cl
ATOM     13  C   UNL     1      -3.148  12.709  21.025  0.00  0.00    +0.000 A 
ATOM     14  C   UNL     1      -1.949  12.104  20.636  0.00  0.00    +0.000 A 
ENDBRANCH   5   8
BRANCH   5  15
ATOM     15  O   UNL     1       1.279  11.487  21.469  0.00  0.00    +0.000 OA
ATOM     16  H   UNL     1       1.599  11.197  22.339  0.00  0.00    +0.000 HD
ENDBRANCH   5  15
ENDBRANCH   1   2
BRANCH   1  19
ATOM     17  C   UNL     1       3.459   5.173  18.584  0.00  0.00    +0.000 C 
ATOM     18  C   UNL     1       2.355   5.769  17.723  0.00  0.00    +0.000 C 
ATOM     19  C   UNL     1       2.426   6.162  19.170  0.00  0.00    +0.000 C 
BRANCH  17  20
ATOM     20  C   UNL     1       4.912   5.555  18.313  0.00  0.00    +0.000 A 
ATOM     21  C   UNL     1       5.945   5.230  19.210  0.00  0.00    +0.000 A 
ATOM     22  C   UNL     1       7.237   5.749  19.059  0.00  0.00    +0.000 A 
ATOM     23  C   UNL     1       7.533   6.592  17.992  0.00  0.00    +0.000 A 
ATOM     24  C   UNL     1       6.541   6.913  17.076  0.00  0.00    +0.000 A 
ATOM     25  C   UNL     1       5.248   6.412  17.248  0.00  0.00    +0.000 A 
ENDBRANCH  17  20
BRANCH  17  26
ATOM     26  C   UNL     1       3.306   3.735  19.000  0.00  0.00    +0.000 C 
ATOM     27  O   UNL     1       3.572   2.812  18.241  0.00  0.00    +0.000 OA
BRANCH  26  28
ATOM     28  O   UNL     1       2.826   3.629  20.269  0.00  0.00    +0.000 OA
BRANCH  28  30
ATOM     29  C   UNL     1       1.490   2.514  21.944  0.00  0.00    +0.000 C 
ATOM     30  C   UNL     1       1.839   2.602  20.463  0.00  0.00    +0.000 C 
ATOM     31  C   UNL     1       0.610   2.984  19.648  0.00  0.00    +0.000 C 
ENDBRANCH  28  30
ENDBRANCH  26  28
ENDBRANCH  17  26
ENDBRANCH   1  19
TORSDOF 8
ENDMDL
MODEL 2
REMARK VINA RESULT:      -8.0      1.739      2.213
REMARK  Name = 
REMARK  10 active torsions:
REMARK  status: ('A' for Active; 'I' for Inactive)
REMARK    1  A    between atoms: C_1  and  C_2
REMARK    2  A    between atoms: C_2  and  C_3
REMARK    3  A    between atoms: C_2  and  O_4
REMARK    4  A    between atoms: O_4  and  C_5
REMARK    5  A    between atoms: C_5  and  C_7
REMARK    6  A    between atoms: C_7  and  C_8
REMARK    7  A    between atoms: C_15  and  C_16
REMARK    8  A    between atoms: C_16  and  N_17
REMARK    9  A    between atoms: C_20  and  O_21
REMARK   10  A    between atoms: C_20  and  C_22
REMARK                            x       y       z     vdW  Elec       q    Type
REMARK                         _______ _______ _______ _____ _____    ______ ____
ROOT
ATOM      1  C   UNL     1       2.771   7.554  17.891  0.00  0.00    +0.000 C 
ENDROOT
BRANCH   1   2
ATOM      2  N   UNL     1       2.391   8.670  18.782  0.00  0.00    +0.000 NA
ATOM      3  C   UNL     1       1.574   8.132  19.887  0.00  0.00    +0.000 C 
ATOM      4  C   UNL     1       1.107   9.222  20.855  0.00  0.00    +0.000 C 
ATOM      5  C   UNL     1       0.358  10.354  20.129  0.00  0.00    +0.000 C 
ATOM      6  C   UNL     1       1.209  10.858  18.959  0.00  0.00    +0.000 C 
ATOM      7  C   UNL     1       1.632   9.700  18.056  0.00  0.00    +0.000 C 
BRANCH   5   8
ATOM      8  C   UNL     1      -0.007  11.486  21.097  0.00  0.00    +0.000 A 
ATOM      9  C   UNL     1      -0.928  11.261  22.139  0.00  0.00    +0.000 A 
ATOM     10  C   UNL     1      -1.323  12.296  22.992  0.00  0.00    +0.000 A 
ATOM     11  C   UNL     1      -0.798  13.572  22.820  0.00  0.00    +0.000 A 
ATOM     12 CL   UNL     1      -1.314  14.854  23.844  0.00  0.00    +0.000 Cl
ATOM     13  C   UNL     1       0.139  13.816  21.823  0.00  0.00    +0.000 A 
ATOM     14  C   UNL     1       0.539  12.777  20.976  0.00  0.00    +0.000 A 
ENDBRANCH   5   8
BRANCH   5  15
ATOM     15  O   UNL     1      -0.846   9.799  19.570  0.00  0.00    +0.000 OA
ATOM     16  H   UNL     1      -1.572  10.405  19.790  0.00  0.00    +0.000 HD
ENDBRANCH   5  15
ENDBRANCH   1   2
BRANCH   1  19
ATOM     17  C   UNL     1       3.554   4.983  18.245  0.00  0.00    +0.000 C 
ATOM     18  C   UNL     1       2.125   5.074  17.727  0.00  0.00    +0.000 C 
ATOM     19  C   UNL     1       2.664   6.209  18.549  0.00  0.00    +0.000 C 
BRANCH  17  20
ATOM     20  C   UNL     1       4.716   5.026  17.255  0.00  0.00    +0.000 A 
ATOM     21  C   UNL     1       4.757   4.195  16.121  0.00  0.00    +0.000 A 
ATOM     22  C   UNL     1       5.906   4.094  15.328  0.00  0.00    +0.000 A 
ATOM     23  C   UNL     1       7.040   4.839  15.639  0.00  0.00    +0.000 A 
ATOM     24  C   UNL     1       7.024   5.685  16.739  0.00  0.00    +0.000 A 
ATOM     25  C   UNL     1       5.882   5.760  17.540  0.00  0.00    +0.000 A 
ENDBRANCH  17  20
BRANCH  17  26
ATOM     26  C   UNL     1       3.809   4.049  19.397  0.00  0.00    +0.000 C 
ATOM     27  O   UNL     1       4.860   3.431  19.506  0.00  0.00    +0.000 OA
BRANCH  26  28
ATOM     28  O   UNL     1       2.738   3.981  20.232  0.00  0.00    +0.000 OA
BRANCH  28  30
ATOM     29  C   UNL     1       1.831   2.479  21.893  0.00  0.00    +0.000 C 
ATOM     30  C   UNL     1       2.198   2.663  20.425  0.00  0.00    +0.000 C 
ATOM     31  C   UNL     1       0.959   2.538  19.547  0.00  0.00    +0.000 C 
ENDBRANCH  28  30
ENDBRANCH  26  28
ENDBRANCH  17  26
ENDBRANCH   1  19
TORSDOF 8
ENDMDL
MODEL 3
REMARK VINA RESULT:      -7.9      0.605      1.229
REMARK  Name = 
REMARK  10 active torsions:
REMARK  status: ('A' for Active; 'I' for Inactive)
REMARK    1  A    between atoms: C_1  and  C_2
REMARK    2  A    between atoms: C_2  and  C_3
REMARK    3  A    between atoms: C_2  and  O_4
REMARK    4  A    between atoms: O_4  and  C_5
REMARK    5  A    between atoms: C_5  and  C_7
REMARK    6  A    between atoms: C_7  and  C_8
REMARK    7  A    between atoms: C_15  and  C_16
REMARK    8  A    between atoms: C_16  and  N_17
REMARK    9  A    between atoms: C_20  and  O_21
REMARK   10  A    between atoms: C_20  and  C_22
REMARK                            x       y       z     vdW  Elec       q    Type
REMARK                         _______ _______ _______ _____ _____    ______ ____
ROOT
ATOM      1  C   UNL     1       2.460   7.474  20.142  0.00  0.00    +0.000 C 
ENDROOT
BRANCH   1   2
ATOM      2  N   UNL     1       1.260   8.245  20.527  0.00  0.00    +0.000 NA
ATOM      3  C   UNL     1       1.105   9.374  19.589  0.00  0.00    +0.000 C 
ATOM      4  C   UNL     1      -0.103  10.251  19.923  0.00  0.00    +0.000 C 
ATOM      5  C   UNL     1      -0.063  10.757  21.377  0.00  0.00    +0.000 C 
ATOM      6  C   UNL     1       0.147   9.569  22.322  0.00  0.00    +0.000 C 
ATOM      7  C   UNL     1       1.368   8.752  21.903  0.00  0.00    +0.000 C 
BRANCH   5   8
ATOM      8  C   UNL     1      -1.333  11.544  21.724  0.00  0.00    +0.000 A 
ATOM      9  C   UNL     1      -1.826  11.551  23.043  0.00  0.00    +0.000 A 
ATOM     10  C   UNL     1      -3.017  12.208  23.367  0.00  0.00    +0.000 A 
ATOM     11  C   UNL     1      -3.731  12.874  22.377  0.00  0.00    +0.000 A 
ATOM     12 CL   UNL     1      -5.216  13.648  22.766  0.00  0.00    +0.000 Cl
ATOM     13  C   UNL     1      -3.250  12.914  21.072  0.00  0.00    +0.000 A 
ATOM     14  C   UNL     1      -2.054  12.262  20.753  0.00  0.00    +0.000 A 
ENDBRANCH   5   8
BRANCH   5  15
ATOM     15  O   UNL     1       1.082  11.616  21.514  0.00  0.00    +0.000 OA
ATOM     16  H   UNL     1       1.020  12.043  22.384  0.00  0.00    +0.000 HD
ENDBRANCH   5  15
ENDBRANCH   1   2
BRANCH   1  19
ATOM     17  C   UNL     1       3.165   5.544  18.373  0.00  0.00    +0.000 C 
ATOM     18  C   UNL     1       2.162   6.520  17.776  0.00  0.00    +0.000 C 
ATOM     19  C   UNL     1       2.150   6.298  19.261  0.00  0.00    +0.000 C 
BRANCH  17  20
ATOM     20  C   UNL     1       4.654   5.883  18.342  0.00  0.00    +0.000 A 
ATOM     21  C   UNL     1       5.222   6.637  17.300  0.00  0.00    +0.000 A 
ATOM     22  C   UNL     1       6.609   6.778  17.169  0.00  0.00    +0.000 A 
ATOM     23  C   UNL     1       7.464   6.183  18.093  0.00  0.00    +0.000 A 
ATOM     24  C   UNL     1       6.933   5.452  19.147  0.00  0.00    +0.000 A 
ATOM     25  C   UNL     1       5.549   5.294  19.254  0.00  0.00    +0.000 A 
ENDBRANCH  17  20
BRANCH  17  26
ATOM     26  C   UNL     1       2.902   4.076  18.169  0.00  0.00    +0.000 C 
ATOM     27  O   UNL     1       2.623   3.618  17.068  0.00  0.00    +0.000 OA
BRANCH  26  28
ATOM     28  O   UNL     1       2.989   3.385  19.338  0.00  0.00    +0.000 OA
BRANCH  28  30
ATOM     29  C   UNL     1       0.733   2.526  19.439  0.00  0.00    +0.000 C 
ATOM     30  C   UNL     1       1.790   3.378  20.131  0.00  0.00    +0.000 C 
ATOM     31  C   UNL     1       2.142   2.789  21.492  0.00  0.00    +0.000 C 
ENDBRANCH  28  30
ENDBRANCH  26  28
ENDBRANCH  17  26
ENDBRANCH   1  19
TORSDOF 8
ENDMDL
MODEL 4
REMARK VINA RESULT:      -7.8      2.319      4.493
REMARK  Name = 
REMARK  10 active torsions:
REMARK  status: ('A' for Active; 'I' for Inactive)
REMARK    1  A    between atoms: C_1  and  C_2
REMARK    2  A    between atoms: C_2  and  C_3
REMARK    3  A    between atoms: C_2  and  O_4
REMARK    4  A    between atoms: O_4  and  C_5
REMARK    5  A    between atoms: C_5  and  C_7
REMARK    6  A    between atoms: C_7  and  C_8
REMARK    7  A    between atoms: C_15  and  C_16
REMARK    8  A    between atoms: C_16  and  N_17
REMARK    9  A    between atoms: C_20  and  O_21
REMARK   10  A    between atoms: C_20  and  C_22
REMARK                            x       y       z     vdW  Elec       q    Type
REMARK                         _______ _______ _______ _____ _____    ______ ____
ROOT
ATOM      1  C   UNL     1       3.480   6.942  19.651  0.00  0.00    +0.000 C 
ENDROOT
BRANCH   1   2
ATOM      2  N   UNL     1       2.173   7.521  19.279  0.00  0.00    +0.000 NA
ATOM      3  C   UNL     1       2.363   8.395  18.105  0.00  0.00    +0.000 C 
ATOM      4  C   UNL     1       1.063   9.065  17.656  0.00  0.00    +0.000 C 
ATOM      5  C   UNL     1       0.389   9.840  18.804  0.00  0.00    +0.000 C 
ATOM      6  C   UNL     1       0.250   8.922  20.023  0.00  0.00    +0.000 C 
ATOM      7  C   UNL     1       1.595   8.296  20.387  0.00  0.00    +0.000 C 
BRANCH   5   8
ATOM      8  C   UNL     1      -0.963  10.414  18.365  0.00  0.00    +0.000 A 
ATOM      9  C   UNL     1      -1.614  11.383  19.153  0.00  0.00    +0.000 A 
ATOM     10  C   UNL     1      -2.876  11.871  18.805  0.00  0.00    +0.000 A 
ATOM     11  C   UNL     1      -3.507  11.401  17.658  0.00  0.00    +0.000 A 
ATOM     12 CL   UNL     1      -5.078  11.971  17.250  0.00  0.00    +0.000 Cl
ATOM     13  C   UNL     1      -2.874  10.470  16.842  0.00  0.00    +0.000 A 
ATOM     14  C   UNL     1      -1.607   9.990  17.188  0.00  0.00    +0.000 A 
ENDBRANCH   5   8
BRANCH   5  15
ATOM     15  O   UNL     1       1.264  10.918  19.181  0.00  0.00    +0.000 OA
ATOM     16  H   UNL     1       0.739  11.545  19.704  0.00  0.00    +0.000 HD
ENDBRANCH   5  15
ENDBRANCH   1   2
BRANCH   1  19
ATOM     17  C   UNL     1       3.852   4.520  18.491  0.00  0.00    +0.000 C 
ATOM     18  C   UNL     1       5.160   5.115  18.992  0.00  0.00    +0.000 C 
ATOM     19  C   UNL     1       4.055   6.048  18.590  0.00  0.00    +0.000 C 
BRANCH  17  20
ATOM     20  C   UNL     1       2.965   3.736  19.455  0.00  0.00    +0.000 A 
ATOM     21  C   UNL     1       1.568   3.896  19.477  0.00  0.00    +0.000 A 
ATOM     22  C   UNL     1       0.781   3.331  20.487  0.00  0.00    +0.000 A 
ATOM     23  C   UNL     1       1.371   2.571  21.492  0.00  0.00    +0.000 A 
ATOM     24  C   UNL     1       2.745   2.375  21.487  0.00  0.00    +0.000 A 
ATOM     25  C   UNL     1       3.526   2.965  20.490  0.00  0.00    +0.000 A 
ENDBRANCH  17  20
BRANCH  17  26
ATOM     26  C   UNL     1       3.847   3.942  17.101  0.00  0.00    +0.000 C 
ATOM     27  O   UNL     1       2.807   3.632  16.535  0.00  0.00    +0.000 OA
BRANCH  26  28
ATOM     28  O   UNL     1       5.110   3.800  16.614  0.00  0.00    +0.000 OA
BRANCH  28  30
ATOM     29  C   UNL     1       6.784   5.362  15.843  0.00  0.00    +0.000 C 
ATOM     30  C   UNL     1       5.451   4.689  15.537  0.00  0.00    +0.000 C 
ATOM     31  C   UNL     1       5.555   3.855  14.266  0.00  0.00    +0.000 C 
ENDBRANCH  28  30
ENDBRANCH  26  28
ENDBRANCH  17  26
ENDBRANCH   1  19
TORSDOF 8
ENDMDL
MODEL 5
REMARK VINA RESULT:      -7.8      1.824      2.499
REMARK  Name = 
REMARK  10 active torsions:
REMARK  status: ('A' for Active; 'I' for Inactive)
REMARK    1  A    between atoms: C_1  and  C_2
REMARK    2  A    between atoms: C_2  and  C_3
REMARK    3  A    between atoms: C_2  and  O_4
REMARK    4  A    between atoms: O_4  and  C_5
REMARK    5  A    between atoms: C_5  and  C_7
REMARK    6  A    between atoms: C_7  and  C_8
REMARK    7  A    between atoms: C_15  and  C_16
REMARK    8  A    between atoms: C_16  and  N_17
REMARK    9  A    between atoms: C_20  and  O_21
REMARK   10  A    between atoms: C_20  and  C_22
REMARK                            x       y       z     vdW  Elec       q    Type
REMARK                         _______ _______ _______ _____ _____    ______ ____
ROOT
ATOM      1  C   UNL     1       3.061   7.235  17.736  0.00  0.00    +0.000 C 
ENDROOT
BRANCH   1   2
ATOM      2  N   UNL     1       2.598   8.336  18.605  0.00  0.00    +0.000 NA
ATOM      3  C   UNL     1       1.775   7.766  19.689  0.00  0.00    +0.000 C 
ATOM      4  C   UNL     1       1.224   8.837  20.633  0.00  0.00    +0.000 C 
ATOM      5  C   UNL     1       0.442   9.925  19.875  0.00  0.00    +0.000 C 
ATOM      6  C   UNL     1       1.302  10.463  18.727  0.00  0.00    +0.000 C 
ATOM      7  C   UNL     1       1.810   9.321  17.848  0.00  0.00    +0.000 C 
BRANCH   5   8
ATOM      8  C   UNL     1      -0.009  11.043  20.822  0.00  0.00    +0.000 A 
ATOM      9  C   UNL     1       0.308  12.385  20.539  0.00  0.00    +0.000 A 
ATOM     10  C   UNL     1      -0.037  13.413  21.422  0.00  0.00    +0.000 A 
ATOM     11  C   UNL     1      -0.712  13.114  22.601  0.00  0.00    +0.000 A 
ATOM     12 CL   UNL     1      -1.101  14.373  23.706  0.00  0.00    +0.000 Cl
ATOM     13  C   UNL     1      -1.069  11.802  22.890  0.00  0.00    +0.000 A 
ATOM     14  C   UNL     1      -0.730  10.777  22.000  0.00  0.00    +0.000 A 
ENDBRANCH   5   8
BRANCH   5  15
ATOM     15  O   UNL     1      -0.715   9.305  19.285  0.00  0.00    +0.000 OA
ATOM     16  H   UNL     1      -0.597   8.344  19.359  0.00  0.00    +0.000 HD
ENDBRANCH   5  15
ENDBRANCH   1   2
BRANCH   1  19
ATOM     17  C   UNL     1       3.779   4.641  18.063  0.00  0.00    +0.000 C 
ATOM     18  C   UNL     1       2.369   4.773  17.505  0.00  0.00    +0.000 C 
ATOM     19  C   UNL     1       2.907   5.880  18.365  0.00  0.00    +0.000 C 
BRANCH  17  20
ATOM     20  C   UNL     1       4.971   4.677  17.110  0.00  0.00    +0.000 A 
ATOM     21  C   UNL     1       6.067   5.532  17.324  0.00  0.00    +0.000 A 
ATOM     22  C   UNL     1       7.060   5.708  16.352  0.00  0.00    +0.000 A 
ATOM     23  C   UNL     1       6.991   5.016  15.147  0.00  0.00    +0.000 A 
ATOM     24  C   UNL     1       5.934   4.147  14.915  0.00  0.00    +0.000 A 
ATOM     25  C   UNL     1       4.934   3.997  15.879  0.00  0.00    +0.000 A 
ENDBRANCH  17  20
BRANCH  17  26
ATOM     26  C   UNL     1       3.980   3.680  19.204  0.00  0.00    +0.000 C 
ATOM     27  O   UNL     1       5.086   3.471  19.685  0.00  0.00    +0.000 OA
BRANCH  26  28
ATOM     28  O   UNL     1       2.810   3.094  19.576  0.00  0.00    +0.000 OA
BRANCH  28  30
ATOM     29  C   UNL     1       0.788   3.982  20.555  0.00  0.00    +0.000 C 
ATOM     30  C   UNL     1       2.240   3.591  20.798  0.00  0.00    +0.000 C 
ATOM     31  C   UNL     1       2.325   2.475  21.833  0.00  0.00    +0.000 C 
ENDBRANCH  28  30
ENDBRANCH  26  28
ENDBRANCH  17  26
ENDBRANCH   1  19
TORSDOF 8
ENDMDL
MODEL 6
REMARK VINA RESULT:      -7.8      1.195      1.682
REMARK  Name = 
REMARK  10 active torsions:
REMARK  status: ('A' for Active; 'I' for Inactive)
REMARK    1  A    between atoms: C_1  and  C_2
REMARK    2  A    between atoms: C_2  and  C_3
REMARK    3  A    between atoms: C_2  and  O_4
REMARK    4  A    between atoms: O_4  and  C_5
REMARK    5  A    between atoms: C_5  and  C_7
REMARK    6  A    between atoms: C_7  and  C_8
REMARK    7  A    between atoms: C_15  and  C_16
REMARK    8  A    between atoms: C_16  and  N_17
REMARK    9  A    between atoms: C_20  and  O_21
REMARK   10  A    between atoms: C_20  and  C_22
REMARK                            x       y       z     vdW  Elec       q    Type
REMARK                         _______ _______ _______ _____ _____    ______ ____
ROOT
ATOM      1  C   UNL     1       2.715   7.758  18.331  0.00  0.00    +0.000 C 
ENDROOT
BRANCH   1   2
ATOM      2  N   UNL     1       1.567   8.575  18.774  0.00  0.00    +0.000 NA
ATOM      3  C   UNL     1       1.833   9.986  18.433  0.00  0.00    +0.000 C 
ATOM      4  C   UNL     1       0.705  10.919  18.878  0.00  0.00    +0.000 C 
ATOM      5  C   UNL     1       0.397  10.774  20.380  0.00  0.00    +0.000 C 
ATOM      6  C   UNL     1       0.173   9.296  20.713  0.00  0.00    +0.000 C 
ATOM      7  C   UNL     1       1.345   8.446  20.223  0.00  0.00    +0.000 C 
BRANCH   5   8
ATOM      8  C   UNL     1      -0.804  11.638  20.784  0.00  0.00    +0.000 A 
ATOM      9  C   UNL     1      -1.826  11.914  19.855  0.00  0.00    +0.000 A 
ATOM     10  C   UNL     1      -2.896  12.751  20.183  0.00  0.00    +0.000 A 
ATOM     11  C   UNL     1      -2.964  13.322  21.449  0.00  0.00    +0.000 A 
ATOM     12 CL   UNL     1      -4.259  14.385  21.840  0.00  0.00    +0.000 Cl
ATOM     13  C   UNL     1      -1.989  13.040  22.399  0.00  0.00    +0.000 A 
ATOM     14  C   UNL     1      -0.923  12.195  22.071  0.00  0.00    +0.000 A 
ENDBRANCH   5   8
BRANCH   5  15
ATOM     15  O   UNL     1       1.559  11.203  21.112  0.00  0.00    +0.000 OA
ATOM     16  H   UNL     1       1.623  10.645  21.904  0.00  0.00    +0.000 HD
ENDBRANCH   5  15
ENDBRANCH   1   2
BRANCH   1  19
ATOM     17  C   UNL     1       3.607   5.199  18.414  0.00  0.00    +0.000 C 
ATOM     18  C   UNL     1       2.165   5.281  17.934  0.00  0.00    +0.000 C 
ATOM     19  C   UNL     1       2.676   6.351  18.855  0.00  0.00    +0.000 C 
BRANCH  17  20
ATOM     20  C   UNL     1       4.744   5.387  17.412  0.00  0.00    +0.000 A 
ATOM     21  C   UNL     1       4.781   4.691  16.191  0.00  0.00    +0.000 A 
ATOM     22  C   UNL     1       5.913   4.714  15.368  0.00  0.00    +0.000 A 
ATOM     23  C   UNL     1       7.033   5.452  15.739  0.00  0.00    +0.000 A 
ATOM     24  C   UNL     1       7.020   6.168  16.927  0.00  0.00    +0.000 A 
ATOM     25  C   UNL     1       5.896   6.119  17.755  0.00  0.00    +0.000 A 
ENDBRANCH  17  20
BRANCH  17  26
ATOM     26  C   UNL     1       3.925   4.168  19.463  0.00  0.00    +0.000 C 
ATOM     27  O   UNL     1       4.998   3.578  19.484  0.00  0.00    +0.000 OA
BRANCH  26  28
ATOM     28  O   UNL     1       2.882   3.985  20.317  0.00  0.00    +0.000 OA
BRANCH  28  30
ATOM     29  C   UNL     1       1.645   2.542  21.809  0.00  0.00    +0.000 C 
ATOM     30  C   UNL     1       2.544   2.613  20.580  0.00  0.00    +0.000 C 
ATOM     31  C   UNL     1       1.813   2.075  19.355  0.00  0.00    +0.000 C 
ENDBRANCH  28  30
ENDBRANCH  26  28
ENDBRANCH  17  26
ENDBRANCH   1  19
TORSDOF 8
ENDMDL
MODEL 7
REMARK VINA RESULT:      -7.8      1.868      2.473
REMARK  Name = 
REMARK  10 active torsions:
REMARK  status: ('A' for Active; 'I' for Inactive)
REMARK    1  A    between atoms: C_1  and  C_2
REMARK    2  A    between atoms: C_2  and  C_3
REMARK    3  A    between atoms: C_2  and  O_4
REMARK    4  A    between atoms: O_4  and  C_5
REMARK    5  A    between atoms: C_5  and  C_7
REMARK    6  A    between atoms: C_7  and  C_8
REMARK    7  A    between atoms: C_15  and  C_16
REMARK    8  A    between atoms: C_16  and  N_17
REMARK    9  A    between atoms: C_20  and  O_21
REMARK   10  A    between atoms: C_20  and  C_22
REMARK                            x       y       z     vdW  Elec       q    Type
REMARK                         _______ _______ _______ _____ _____    ______ ____
ROOT
ATOM      1  C   UNL     1       2.810   7.437  17.814  0.00  0.00    +0.000 C 
ENDROOT
BRANCH   1   2
ATOM      2  N   UNL     1       2.381   8.525  18.715  0.00  0.00    +0.000 NA
ATOM      3  C   UNL     1       1.458   7.967  19.723  0.00  0.00    +0.000 C 
ATOM      4  C   UNL     1       0.936   9.028  20.693  0.00  0.00    +0.000 C 
ATOM      5  C   UNL     1       0.279  10.209  19.954  0.00  0.00    +0.000 C 
ATOM      6  C   UNL     1       1.240  10.736  18.884  0.00  0.00    +0.000 C 
ATOM      7  C   UNL     1       1.711   9.604  17.972  0.00  0.00    +0.000 C 
BRANCH   5   8
ATOM      8  C   UNL     1      -0.141  11.310  20.935  0.00  0.00    +0.000 A 
ATOM      9  C   UNL     1       0.277  12.640  20.733  0.00  0.00    +0.000 A 
ATOM     10  C   UNL     1      -0.041  13.647  21.649  0.00  0.00    +0.000 A 
ATOM     11  C   UNL     1      -0.788  13.340  22.782  0.00  0.00    +0.000 A 
ATOM     12 CL   UNL     1      -1.144  14.569  23.931  0.00  0.00    +0.000 Cl
ATOM     13  C   UNL     1      -1.244  12.043  22.990  0.00  0.00    +0.000 A 
ATOM     14  C   UNL     1      -0.931  11.039  22.067  0.00  0.00    +0.000 A 
ENDBRANCH   5   8
BRANCH   5  15
ATOM     15  O   UNL     1      -0.885   9.710  19.272  0.00  0.00    +0.000 OA
ATOM     16  H   UNL     1      -1.454   9.294  19.939  0.00  0.00    +0.000 HD
ENDBRANCH   5  15
ENDBRANCH   1   2
BRANCH   1  19
ATOM     17  C   UNL     1       3.645   4.872  18.082  0.00  0.00    +0.000 C 
ATOM     18  C   UNL     1       2.186   4.951  17.655  0.00  0.00    +0.000 C 
ATOM     19  C   UNL     1       2.761   6.082  18.458  0.00  0.00    +0.000 C 
BRANCH  17  20
ATOM     20  C   UNL     1       4.743   4.943  17.022  0.00  0.00    +0.000 A 
ATOM     21  C   UNL     1       4.734   4.115  15.886  0.00  0.00    +0.000 A 
ATOM     22  C   UNL     1       5.835   4.042  15.024  0.00  0.00    +0.000 A 
ATOM     23  C   UNL     1       6.967   4.814  15.266  0.00  0.00    +0.000 A 
ATOM     24  C   UNL     1       6.998   5.659  16.367  0.00  0.00    +0.000 A 
ATOM     25  C   UNL     1       5.906   5.706  17.237  0.00  0.00    +0.000 A 
ENDBRANCH  17  20
BRANCH  17  26
ATOM     26  C   UNL     1       3.984   3.926  19.202  0.00  0.00    +0.000 C 
ATOM     27  O   UNL     1       5.128   3.803  19.620  0.00  0.00    +0.000 OA
BRANCH  26  28
ATOM     28  O   UNL     1       2.886   3.247  19.632  0.00  0.00    +0.000 OA
BRANCH  28  30
ATOM     29  C   UNL     1       2.221   4.774  21.382  0.00  0.00    +0.000 C 
ATOM     30  C   UNL     1       2.624   3.344  21.043  0.00  0.00    +0.000 C 
ATOM     31  C   UNL     1       1.490   2.380  21.368  0.00  0.00    +0.000 C 
ENDBRANCH  28  30
ENDBRANCH  26  28
ENDBRANCH  17  26
ENDBRANCH   1  19
TORSDOF 8
ENDMDL
MODEL 8
REMARK VINA RESULT:      -7.7      2.354      4.565
REMARK  Name = 
REMARK  10 active torsions:
REMARK  status: ('A' for Active; 'I' for Inactive)
REMARK    1  A    between atoms: C_1  and  C_2
REMARK    2  A    between atoms: C_2  and  C_3
REMARK    3  A    between atoms: C_2  and  O_4
REMARK    4  A    between atoms: O_4  and  C_5
REMARK    5  A    between atoms: C_5  and  C_7
REMARK    6  A    between atoms: C_7  and  C_8
REMARK    7  A    between atoms: C_15  and  C_16
REMARK    8  A    between atoms: C_16  and  N_17
REMARK    9  A    between atoms: C_20  and  O_21
REMARK   10  A    between atoms: C_20  and  C_22
REMARK                            x       y       z     vdW  Elec       q    Type
REMARK                         _______ _______ _______ _____ _____    ______ ____
ROOT
ATOM      1  C   UNL     1       3.387   7.112  19.652  0.00  0.00    +0.000 C 
ENDROOT
BRANCH   1   2
ATOM      2  N   UNL     1       2.057   7.644  19.294  0.00  0.00    +0.000 NA
ATOM      3  C   UNL     1       2.199   8.504  18.103  0.00  0.00    +0.000 C 
ATOM      4  C   UNL     1       0.871   9.127  17.667  0.00  0.00    +0.000 C 
ATOM      5  C   UNL     1       0.193   9.899  18.815  0.00  0.00    +0.000 C 
ATOM      6  C   UNL     1       0.104   8.997  20.050  0.00  0.00    +0.000 C 
ATOM      7  C   UNL     1       1.474   8.418  20.400  0.00  0.00    +0.000 C 
BRANCH   5   8
ATOM      8  C   UNL     1      -1.184  10.423  18.391  0.00  0.00    +0.000 A 
ATOM      9  C   UNL     1      -1.792   9.953  17.211  0.00  0.00    +0.000 A 
ATOM     10  C   UNL     1      -3.016  10.466  16.773  0.00  0.00    +0.000 A 
ATOM     11  C   UNL     1      -3.657  11.454  17.513  0.00  0.00    +0.000 A 
ATOM     12 CL   UNL     1      -5.143  12.115  16.954  0.00  0.00    +0.000 Cl
ATOM     13  C   UNL     1      -3.098  11.913  18.701  0.00  0.00    +0.000 A 
ATOM     14  C   UNL     1      -1.876  11.392  19.141  0.00  0.00    +0.000 A 
ENDBRANCH   5   8
BRANCH   5  15
ATOM     15  O   UNL     1       1.040  11.009  19.160  0.00  0.00    +0.000 OA
ATOM     16  H   UNL     1       1.482  10.786  19.995  0.00  0.00    +0.000 HD
ENDBRANCH   5  15
ENDBRANCH   1   2
BRANCH   1  19
ATOM     17  C   UNL     1       3.807   4.712  18.461  0.00  0.00    +0.000 C 
ATOM     18  C   UNL     1       5.102   5.322  18.979  0.00  0.00    +0.000 C 
ATOM     19  C   UNL     1       3.984   6.243  18.582  0.00  0.00    +0.000 C 
BRANCH  17  20
ATOM     20  C   UNL     1       2.926   3.901  19.408  0.00  0.00    +0.000 A 
ATOM     21  C   UNL     1       1.527   4.039  19.423  0.00  0.00    +0.000 A 
ATOM     22  C   UNL     1       0.742   3.447  20.420  0.00  0.00    +0.000 A 
ATOM     23  C   UNL     1       1.339   2.682  21.419  0.00  0.00    +0.000 A 
ATOM     24  C   UNL     1       2.716   2.508  21.419  0.00  0.00    +0.000 A 
ATOM     25  C   UNL     1       3.493   3.124  20.436  0.00  0.00    +0.000 A 
ENDBRANCH  17  20
BRANCH  17  26
ATOM     26  C   UNL     1       3.820   4.154  17.063  0.00  0.00    +0.000 C 
ATOM     27  O   UNL     1       3.110   3.212  16.738  0.00  0.00    +0.000 OA
BRANCH  26  28
ATOM     28  O   UNL     1       4.717   4.806  16.274  0.00  0.00    +0.000 OA
BRANCH  28  30
ATOM     29  C   UNL     1       5.648   4.142  14.146  0.00  0.00    +0.000 C 
ATOM     30  C   UNL     1       5.709   3.966  15.659  0.00  0.00    +0.000 C 
ATOM     31  C   UNL     1       7.071   4.397  16.190  0.00  0.00    +0.000 C 
ENDBRANCH  28  30
ENDBRANCH  26  28
ENDBRANCH  17  26
ENDBRANCH   1  19
TORSDOF 8
ENDMDL
MODEL 9
REMARK VINA RESULT:      -7.7      2.912      5.002
REMARK  Name = 
REMARK  10 active torsions:
REMARK  status: ('A' for Active; 'I' for Inactive)
REMARK    1  A    between atoms: C_1  and  C_2
REMARK    2  A    between atoms: C_2  and  C_3
REMARK    3  A    between atoms: C_2  and  O_4
REMARK    4  A    between atoms: O_4  and  C_5
REMARK    5  A    between atoms: C_5  and  C_7
REMARK    6  A    between atoms: C_7  and  C_8
REMARK    7  A    between atoms: C_15  and  C_16
REMARK    8  A    between atoms: C_16  and  N_17
REMARK    9  A    between atoms: C_20  and  O_21
REMARK   10  A    between atoms: C_20  and  C_22
REMARK                            x       y       z     vdW  Elec       q    Type
REMARK                         _______ _______ _______ _____ _____    ______ ____
ROOT
ATOM      1  C   UNL     1       1.949   7.254  19.331  0.00  0.00    +0.000 C 
ENDROOT
BRANCH   1   2
ATOM      2  N   UNL     1       2.053   8.727  19.291  0.00  0.00    +0.000 NA
ATOM      3  C   UNL     1       0.926   9.300  20.052  0.00  0.00    +0.000 C 
ATOM      4  C   UNL     1       0.931  10.829  20.047  0.00  0.00    +0.000 C 
ATOM      5  C   UNL     1       0.963  11.400  18.617  0.00  0.00    +0.000 C 
ATOM      6  C   UNL     1       2.112  10.752  17.837  0.00  0.00    +0.000 C 
ATOM      7  C   UNL     1       2.025   9.228  17.908  0.00  0.00    +0.000 C 
BRANCH   5   8
ATOM      8  C   UNL     1       1.077  12.929  18.633  0.00  0.00    +0.000 A 
ATOM      9  C   UNL     1       2.286  13.556  18.277  0.00  0.00    +0.000 A 
ATOM     10  C   UNL     1       2.430  14.945  18.348  0.00  0.00    +0.000 A 
ATOM     11  C   UNL     1       1.363  15.730  18.771  0.00  0.00    +0.000 A 
ATOM     12 CL   UNL     1       1.552  17.435  18.898  0.00  0.00    +0.000 Cl
ATOM     13  C   UNL     1       0.146  15.142  19.096  0.00  0.00    +0.000 A 
ATOM     14  C   UNL     1       0.002  13.752  19.016  0.00  0.00    +0.000 A 
ENDBRANCH   5   8
BRANCH   5  15
ATOM     15  O   UNL     1      -0.261  11.020  17.963  0.00  0.00    +0.000 OA
ATOM     16  H   UNL     1      -0.985  11.188  18.588  0.00  0.00    +0.000 HD
ENDBRANCH   5  15
ENDBRANCH   1   2
BRANCH   1  19
ATOM     17  C   UNL     1       3.308   5.068  18.479  0.00  0.00    +0.000 C 
ATOM     18  C   UNL     1       4.241   6.133  19.037  0.00  0.00    +0.000 C 
ATOM     19  C   UNL     1       2.937   6.567  18.432  0.00  0.00    +0.000 C 
BRANCH  17  20
ATOM     20  C   UNL     1       2.643   4.078  19.433  0.00  0.00    +0.000 A 
ATOM     21  C   UNL     1       1.254   3.862  19.430  0.00  0.00    +0.000 A 
ATOM     22  C   UNL     1       0.626   3.109  20.430  0.00  0.00    +0.000 A 
ATOM     23  C   UNL     1       1.379   2.534  21.449  0.00  0.00    +0.000 A 
ATOM     24  C   UNL     1       2.756   2.709  21.468  0.00  0.00    +0.000 A 
ATOM     25  C   UNL     1       3.370   3.484  20.481  0.00  0.00    +0.000 A 
ENDBRANCH  17  20
BRANCH  17  26
ATOM     26  C   UNL     1       3.689   4.440  17.166  0.00  0.00    +0.000 C 
ATOM     27  O   UNL     1       3.075   3.487  16.704  0.00  0.00    +0.000 OA
BRANCH  26  28
ATOM     28  O   UNL     1       4.778   5.044  16.620  0.00  0.00    +0.000 OA
BRANCH  28  30
ATOM     29  C   UNL     1       5.976   4.181  14.707  0.00  0.00    +0.000 C 
ATOM     30  C   UNL     1       5.835   4.154  16.225  0.00  0.00    +0.000 C 
ATOM     31  C   UNL     1       7.119   4.638  16.888  0.00  0.00    +0.000 C 
ENDBRANCH  28  30
ENDBRANCH  26  28
ENDBRANCH  17  26
ENDBRANCH   1  19
TORSDOF 8
ENDMDL
