MODEL 1
REMARK VINA RESULT:      -7.0      0.000      0.000
REMARK  Name = 
REMARK  2 active torsions:
REMARK  status: ('A' for Active; 'I' for Inactive)
REMARK    1  A    between atoms: N_3  and  C_4
REMARK    2  A    between atoms: N_11  and  C_12
REMARK                            x       y       z     vdW  Elec       q    Type
REMARK                         _______ _______ _______ _____ _____    ______ ____
ROOT
ATOM      1  O   UNL     1       1.493   5.876  20.769  0.00  0.00    +0.000 OA
ATOM      2  C   UNL     1       2.150   6.514  19.956  0.00  0.00    +0.000 C 
ATOM      3  N   UNL     1       2.068   7.885  19.787  0.00  0.00    +0.000 N 
ATOM      4  N   UNL     1       3.044   5.928  19.077  0.00  0.00    +0.000 N 
ATOM      5  H   UNL     1       2.500   8.259  18.955  0.00  0.00    +0.000 HD
ATOM      6  H   UNL     1       3.827   6.484  18.762  0.00  0.00    +0.000 HD
ENDROOT
BRANCH   3   7
ATOM      7  C   UNL     1       1.170   8.734  20.479  0.00  0.00    +0.000 A 
ATOM      8  C   UNL     1       0.309   9.632  19.837  0.00  0.00    +0.000 A 
ATOM      9  C   UNL     1      -0.486  10.518  20.569  0.00  0.00    +0.000 A 
ATOM     10  C   UNL     1      -0.437  10.500  21.956  0.00  0.00    +0.000 A 
ATOM     11 BR   UNL     1      -1.471  11.735  22.944  0.00  0.00    +0.000 Br
ATOM     12  C   UNL     1       0.376   9.582  22.616  0.00  0.00    +0.000 A 
ATOM     13  C   UNL     1       1.172   8.694  21.879  0.00  0.00    +0.000 A 
ENDBRANCH   3   7
BRANCH   4  14
ATOM     14  C   UNL     1       3.147   4.529  18.859  0.00  0.00    +0.000 A 
ATOM     15  C   UNL     1       4.089   3.722  19.509  0.00  0.00    +0.000 A 
ATOM     16  C   UNL     1       4.141   2.346  19.267  0.00  0.00    +0.000 A 
ATOM     17  C   UNL     1       3.246   1.756  18.379  0.00  0.00    +0.000 A 
ATOM     18  C   UNL     1       2.294   2.544  17.734  0.00  0.00    +0.000 A 
ATOM     19  C   UNL     1       2.246   3.916  17.982  0.00  0.00    +0.000 A 
ATOM     20  F   UNL     1       1.325   4.660  17.348  0.00  0.00    +0.000 F 
ENDBRANCH   4  14
TORSDOF 2
ENDMDL
MODEL 2
REMARK VINA RESULT:      -6.9      0.161      1.145
REMARK  Name = 
REMARK  2 active torsions:
REMARK  status: ('A' for Active; 'I' for Inactive)
REMARK    1  A    between atoms: N_3  and  C_4
REMARK    2  A    between atoms: N_11  and  C_12
REMARK                            x       y       z     vdW  Elec       q    Type
REMARK                         _______ _______ _______ _____ _____    ______ ____
ROOT
ATOM      1  O   UNL     1       1.763   5.985  20.886  0.00  0.00    +0.000 OA
ATOM      2  C   UNL     1       2.204   6.575  19.909  0.00  0.00    +0.000 C 
ATOM      3  N   UNL     1       2.026   7.926  19.663  0.00  0.00    +0.000 N 
ATOM      4  N   UNL     1       2.920   5.949  18.904  0.00  0.00    +0.000 N 
ATOM      5  H   UNL     1       2.255   8.245  18.734  0.00  0.00    +0.000 HD
ATOM      6  H   UNL     1       3.593   6.501  18.390  0.00  0.00    +0.000 HD
ENDROOT
BRANCH   3   7
ATOM      7  C   UNL     1       1.255   8.799  20.468  0.00  0.00    +0.000 A 
ATOM      8  C   UNL     1       1.205   8.717  21.866  0.00  0.00    +0.000 A 
ATOM      9  C   UNL     1       0.350   9.536  22.607  0.00  0.00    +0.000 A 
ATOM     10  C   UNL     1      -0.452  10.463  21.954  0.00  0.00    +0.000 A 
ATOM     11 BR   UNL     1      -1.646  11.534  22.953  0.00  0.00    +0.000 Br
ATOM     12  C   UNL     1      -0.382  10.596  20.569  0.00  0.00    +0.000 A 
ATOM     13  C   UNL     1       0.476   9.772  19.829  0.00  0.00    +0.000 A 
ENDBRANCH   3   7
BRANCH   4  14
ATOM     14  C   UNL     1       3.040   4.541  18.769  0.00  0.00    +0.000 A 
ATOM     15  C   UNL     1       4.023   3.791  19.427  0.00  0.00    +0.000 A 
ATOM     16  C   UNL     1       4.091   2.404  19.269  0.00  0.00    +0.000 A 
ATOM     17  C   UNL     1       3.170   1.745  18.459  0.00  0.00    +0.000 A 
ATOM     18  C   UNL     1       2.177   2.476  17.807  0.00  0.00    +0.000 A 
ATOM     19  C   UNL     1       2.115   3.860  17.971  0.00  0.00    +0.000 A 
ATOM     20  F   UNL     1       1.154   4.548  17.332  0.00  0.00    +0.000 F 
ENDBRANCH   4  14
TORSDOF 2
ENDMDL
MODEL 3
REMARK VINA RESULT:      -6.7      1.069      1.917
REMARK  Name = 
REMARK  2 active torsions:
REMARK  status: ('A' for Active; 'I' for Inactive)
REMARK    1  A    between atoms: N_3  and  C_4
REMARK    2  A    between atoms: N_11  and  C_12
REMARK                            x       y       z     vdW  Elec       q    Type
REMARK                         _______ _______ _______ _____ _____    ______ ____
ROOT
ATOM      1  O   UNL     1       1.637   6.024  20.795  0.00  0.00    +0.000 OA
ATOM      2  C   UNL     1       2.122   6.640  19.855  0.00  0.00    +0.000 C 
ATOM      3  N   UNL     1       1.988   8.004  19.659  0.00  0.00    +0.000 N 
ATOM      4  N   UNL     1       2.848   6.033  18.845  0.00  0.00    +0.000 N 
ATOM      5  H   UNL     1       2.252   8.352  18.750  0.00  0.00    +0.000 HD
ATOM      6  H   UNL     1       3.551   6.585  18.373  0.00  0.00    +0.000 HD
ENDROOT
BRANCH   3   7
ATOM      7  C   UNL     1       1.219   8.866  20.478  0.00  0.00    +0.000 A 
ATOM      8  C   UNL     1       1.235   8.818  21.877  0.00  0.00    +0.000 A 
ATOM      9  C   UNL     1       0.382   9.622  22.638  0.00  0.00    +0.000 A 
ATOM     10  C   UNL     1      -0.485  10.499  22.000  0.00  0.00    +0.000 A 
ATOM     11 BR   UNL     1      -1.676  11.547  23.027  0.00  0.00    +0.000 Br
ATOM     12  C   UNL     1      -0.484  10.599  20.611  0.00  0.00    +0.000 A 
ATOM     13  C   UNL     1       0.373   9.790  19.852  0.00  0.00    +0.000 A 
ENDBRANCH   3   7
BRANCH   4  14
ATOM     14  C   UNL     1       2.933   4.628  18.657  0.00  0.00    +0.000 A 
ATOM     15  C   UNL     1       1.939   3.882  18.015  0.00  0.00    +0.000 A 
ATOM     16  C   UNL     1       2.076   2.501  17.845  0.00  0.00    +0.000 A 
ATOM     17  C   UNL     1       3.217   1.849  18.306  0.00  0.00    +0.000 A 
ATOM     18  C   UNL     1       4.223   2.581  18.936  0.00  0.00    +0.000 A 
ATOM     19  C   UNL     1       4.079   3.959  19.100  0.00  0.00    +0.000 A 
ATOM     20  F   UNL     1       5.056   4.646  19.713  0.00  0.00    +0.000 F 
ENDBRANCH   4  14
TORSDOF 2
ENDMDL
MODEL 4
REMARK VINA RESULT:      -6.5      1.693      2.248
REMARK  Name = 
REMARK  2 active torsions:
REMARK  status: ('A' for Active; 'I' for Inactive)
REMARK    1  A    between atoms: N_3  and  C_4
REMARK    2  A    between atoms: N_11  and  C_12
REMARK                            x       y       z     vdW  Elec       q    Type
REMARK                         _______ _______ _______ _____ _____    ______ ____
ROOT
ATOM      1  O   UNL     1       0.229   6.668  20.819  0.00  0.00    +0.000 OA
ATOM      2  C   UNL     1       1.393   7.031  20.925  0.00  0.00    +0.000 C 
ATOM      3  N   UNL     1       1.787   8.269  21.405  0.00  0.00    +0.000 N 
ATOM      4  N   UNL     1       2.469   6.247  20.546  0.00  0.00    +0.000 N 
ATOM      5  H   UNL     1       2.751   8.522  21.248  0.00  0.00    +0.000 HD
ATOM      6  H   UNL     1       3.348   6.390  21.025  0.00  0.00    +0.000 HD
ENDROOT
BRANCH   3   7
ATOM      7  C   UNL     1       0.903   9.310  21.776  0.00  0.00    +0.000 A 
ATOM      8  C   UNL     1       0.196   9.327  22.985  0.00  0.00    +0.000 A 
ATOM      9  C   UNL     1      -0.740  10.326  23.260  0.00  0.00    +0.000 A 
ATOM     10  C   UNL     1      -0.964  11.334  22.331  0.00  0.00    +0.000 A 
ATOM     11 BR   UNL     1      -2.269  12.655  22.680  0.00  0.00    +0.000 Br
ATOM     12  C   UNL     1      -0.236  11.365  21.144  0.00  0.00    +0.000 A 
ATOM     13  C   UNL     1       0.702  10.360  20.871  0.00  0.00    +0.000 A 
ENDBRANCH   3   7
BRANCH   4  14
ATOM     14  C   UNL     1       2.356   5.045  19.800  0.00  0.00    +0.000 A 
ATOM     15  C   UNL     1       2.387   5.007  18.401  0.00  0.00    +0.000 A 
ATOM     16  C   UNL     1       2.284   3.794  17.714  0.00  0.00    +0.000 A 
ATOM     17  C   UNL     1       2.158   2.600  18.419  0.00  0.00    +0.000 A 
ATOM     18  C   UNL     1       2.138   2.619  19.812  0.00  0.00    +0.000 A 
ATOM     19  C   UNL     1       2.244   3.833  20.491  0.00  0.00    +0.000 A 
ATOM     20  F   UNL     1       2.219   3.833  21.833  0.00  0.00    +0.000 F 
ENDBRANCH   4  14
TORSDOF 2
ENDMDL
MODEL 5
REMARK VINA RESULT:      -6.5      2.095      2.432
REMARK  Name = 
REMARK  2 active torsions:
REMARK  status: ('A' for Active; 'I' for Inactive)
REMARK    1  A    between atoms: N_3  and  C_4
REMARK    2  A    between atoms: N_11  and  C_12
REMARK                            x       y       z     vdW  Elec       q    Type
REMARK                         _______ _______ _______ _____ _____    ______ ____
ROOT
ATOM      1  O   UNL     1       1.997   7.712  19.718  0.00  0.00    +0.000 OA
ATOM      2  C   UNL     1       2.264   7.958  18.549  0.00  0.00    +0.000 C 
ATOM      3  N   UNL     1       1.768   9.039  17.841  0.00  0.00    +0.000 N 
ATOM      4  N   UNL     1       3.085   7.155  17.775  0.00  0.00    +0.000 N 
ATOM      5  H   UNL     1       1.894   9.014  16.841  0.00  0.00    +0.000 HD
ATOM      6  H   UNL     1       3.597   7.593  17.021  0.00  0.00    +0.000 HD
ENDROOT
BRANCH   3   7
ATOM      7  C   UNL     1       0.831   9.974  18.346  0.00  0.00    +0.000 A 
ATOM      8  C   UNL     1       1.175  11.013  19.220  0.00  0.00    +0.000 A 
ATOM      9  C   UNL     1       0.197  11.847  19.769  0.00  0.00    +0.000 A 
ATOM     10  C   UNL     1      -1.136  11.659  19.431  0.00  0.00    +0.000 A 
ATOM     11 BR   UNL     1      -2.463  12.752  20.215  0.00  0.00    +0.000 Br
ATOM     12  C   UNL     1      -1.495  10.663  18.526  0.00  0.00    +0.000 A 
ATOM     13  C   UNL     1      -0.511   9.828  17.977  0.00  0.00    +0.000 A 
ENDBRANCH   3   7
BRANCH   4  14
ATOM     14  C   UNL     1       3.529   5.863  18.159  0.00  0.00    +0.000 A 
ATOM     15  C   UNL     1       4.783   5.627  18.735  0.00  0.00    +0.000 A 
ATOM     16  C   UNL     1       5.169   4.335  19.107  0.00  0.00    +0.000 A 
ATOM     17  C   UNL     1       4.301   3.264  18.916  0.00  0.00    +0.000 A 
ATOM     18  C   UNL     1       3.044   3.484  18.356  0.00  0.00    +0.000 A 
ATOM     19  C   UNL     1       2.665   4.776  17.989  0.00  0.00    +0.000 A 
ATOM     20  F   UNL     1       1.452   4.970  17.447  0.00  0.00    +0.000 F 
ENDBRANCH   4  14
TORSDOF 2
ENDMDL
MODEL 6
REMARK VINA RESULT:      -6.5      1.147      1.607
REMARK  Name = 
REMARK  2 active torsions:
REMARK  status: ('A' for Active; 'I' for Inactive)
REMARK    1  A    between atoms: N_3  and  C_4
REMARK    2  A    between atoms: N_11  and  C_12
REMARK                            x       y       z     vdW  Elec       q    Type
REMARK                         _______ _______ _______ _____ _____    ______ ____
ROOT
ATOM      1  O   UNL     1       1.575   6.189  20.603  0.00  0.00    +0.000 OA
ATOM      2  C   UNL     1       2.096   6.857  19.719  0.00  0.00    +0.000 C 
ATOM      3  N   UNL     1       1.903   8.217  19.546  0.00  0.00    +0.000 N 
ATOM      4  N   UNL     1       2.931   6.318  18.755  0.00  0.00    +0.000 N 
ATOM      5  H   UNL     1       2.217   8.604  18.669  0.00  0.00    +0.000 HD
ATOM      6  H   UNL     1       3.636   6.920  18.352  0.00  0.00    +0.000 HD
ENDROOT
BRANCH   3   7
ATOM      7  C   UNL     1       1.027   9.013  20.322  0.00  0.00    +0.000 A 
ATOM      8  C   UNL     1       0.137   9.944  19.769  0.00  0.00    +0.000 A 
ATOM      9  C   UNL     1      -0.634  10.777  20.583  0.00  0.00    +0.000 A 
ATOM     10  C   UNL     1      -0.535  10.673  21.964  0.00  0.00    +0.000 A 
ATOM     11 BR   UNL     1      -1.537  11.837  23.064  0.00  0.00    +0.000 Br
ATOM     12  C   UNL     1       0.307   9.721  22.535  0.00  0.00    +0.000 A 
ATOM     13  C   UNL     1       1.080   8.887  21.715  0.00  0.00    +0.000 A 
ENDBRANCH   3   7
BRANCH   4  14
ATOM     14  C   UNL     1       3.107   4.926  18.540  0.00  0.00    +0.000 A 
ATOM     15  C   UNL     1       2.235   4.156  17.762  0.00  0.00    +0.000 A 
ATOM     16  C   UNL     1       2.460   2.789  17.573  0.00  0.00    +0.000 A 
ATOM     17  C   UNL     1       3.569   2.176  18.150  0.00  0.00    +0.000 A 
ATOM     18  C   UNL     1       4.454   2.931  18.917  0.00  0.00    +0.000 A 
ATOM     19  C   UNL     1       4.223   4.295  19.100  0.00  0.00    +0.000 A 
ATOM     20  F   UNL     1       5.085   5.006  19.846  0.00  0.00    +0.000 F 
ENDBRANCH   4  14
TORSDOF 2
ENDMDL
MODEL 7
REMARK VINA RESULT:      -6.5      1.386      1.642
REMARK  Name = 
REMARK  2 active torsions:
REMARK  status: ('A' for Active; 'I' for Inactive)
REMARK    1  A    between atoms: N_3  and  C_4
REMARK    2  A    between atoms: N_11  and  C_12
REMARK                            x       y       z     vdW  Elec       q    Type
REMARK                         _______ _______ _______ _____ _____    ______ ____
ROOT
ATOM      1  O   UNL     1       0.608   6.166  20.609  0.00  0.00    +0.000 OA
ATOM      2  C   UNL     1       1.709   6.699  20.564  0.00  0.00    +0.000 C 
ATOM      3  N   UNL     1       1.960   8.012  20.926  0.00  0.00    +0.000 N 
ATOM      4  N   UNL     1       2.846   6.052  20.113  0.00  0.00    +0.000 N 
ATOM      5  H   UNL     1       2.854   8.388  20.649  0.00  0.00    +0.000 HD
ATOM      6  H   UNL     1       3.737   6.353  20.483  0.00  0.00    +0.000 HD
ENDROOT
BRANCH   3   7
ATOM      7  C   UNL     1       0.972   8.941  21.334  0.00  0.00    +0.000 A 
ATOM      8  C   UNL     1       0.351   9.840  20.457  0.00  0.00    +0.000 A 
ATOM      9  C   UNL     1      -0.544  10.804  20.927  0.00  0.00    +0.000 A 
ATOM     10  C   UNL     1      -0.840  10.866  22.282  0.00  0.00    +0.000 A 
ATOM     11 BR   UNL     1      -2.008  12.204  22.924  0.00  0.00    +0.000 Br
ATOM     12  C   UNL     1      -0.272   9.950  23.165  0.00  0.00    +0.000 A 
ATOM     13  C   UNL     1       0.626   8.984  22.690  0.00  0.00    +0.000 A 
ENDBRANCH   3   7
BRANCH   4  14
ATOM     14  C   UNL     1       2.840   4.795  19.454  0.00  0.00    +0.000 A 
ATOM     15  C   UNL     1       2.970   4.658  18.067  0.00  0.00    +0.000 A 
ATOM     16  C   UNL     1       2.969   3.395  17.468  0.00  0.00    +0.000 A 
ATOM     17  C   UNL     1       2.848   2.250  18.250  0.00  0.00    +0.000 A 
ATOM     18  C   UNL     1       2.731   2.368  19.634  0.00  0.00    +0.000 A 
ATOM     19  C   UNL     1       2.734   3.632  20.225  0.00  0.00    +0.000 A 
ATOM     20  F   UNL     1       2.616   3.727  21.559  0.00  0.00    +0.000 F 
ENDBRANCH   4  14
TORSDOF 2
ENDMDL
MODEL 8
REMARK VINA RESULT:      -6.5      1.648      1.787
REMARK  Name = 
REMARK  2 active torsions:
REMARK  status: ('A' for Active; 'I' for Inactive)
REMARK    1  A    between atoms: N_3  and  C_4
REMARK    2  A    between atoms: N_11  and  C_12
REMARK                            x       y       z     vdW  Elec       q    Type
REMARK                         _______ _______ _______ _____ _____    ______ ____
ROOT
ATOM      1  O   UNL     1       2.026   7.909  19.037  0.00  0.00    +0.000 OA
ATOM      2  C   UNL     1       2.024   7.243  20.065  0.00  0.00    +0.000 C 
ATOM      3  N   UNL     1       1.430   7.636  21.252  0.00  0.00    +0.000 N 
ATOM      4  N   UNL     1       2.650   6.013  20.172  0.00  0.00    +0.000 N 
ATOM      5  H   UNL     1       1.675   7.102  22.072  0.00  0.00    +0.000 HD
ATOM      6  H   UNL     1       2.275   5.351  20.838  0.00  0.00    +0.000 HD
ENDROOT
BRANCH   3   7
ATOM      7  C   UNL     1       0.801   8.887  21.465  0.00  0.00    +0.000 A 
ATOM      8  C   UNL     1       0.990   9.997  20.633  0.00  0.00    +0.000 A 
ATOM      9  C   UNL     1       0.426  11.237  20.943  0.00  0.00    +0.000 A 
ATOM     10  C   UNL     1      -0.352  11.372  22.086  0.00  0.00    +0.000 A 
ATOM     11 BR   UNL     1      -1.070  13.061  22.534  0.00  0.00    +0.000 Br
ATOM     12  C   UNL     1      -0.594  10.269  22.902  0.00  0.00    +0.000 A 
ATOM     13  C   UNL     1      -0.026   9.027  22.587  0.00  0.00    +0.000 A 
ENDBRANCH   3   7
BRANCH   4  14
ATOM     14  C   UNL     1       3.537   5.482  19.200  0.00  0.00    +0.000 A 
ATOM     15  C   UNL     1       4.930   5.517  19.337  0.00  0.00    +0.000 A 
ATOM     16  C   UNL     1       5.760   4.969  18.355  0.00  0.00    +0.000 A 
ATOM     17  C   UNL     1       5.208   4.368  17.226  0.00  0.00    +0.000 A 
ATOM     18  C   UNL     1       3.823   4.314  17.081  0.00  0.00    +0.000 A 
ATOM     19  C   UNL     1       3.001   4.862  18.067  0.00  0.00    +0.000 A 
ATOM     20  F   UNL     1       1.668   4.804  17.909  0.00  0.00    +0.000 F 
ENDBRANCH   4  14
TORSDOF 2
ENDMDL
MODEL 9
REMARK VINA RESULT:      -6.5      2.272      2.430
REMARK  Name = 
REMARK  2 active torsions:
REMARK  status: ('A' for Active; 'I' for Inactive)
REMARK    1  A    between atoms: N_3  and  C_4
REMARK    2  A    between atoms: N_11  and  C_12
REMARK                            x       y       z     vdW  Elec       q    Type
REMARK                         _______ _______ _______ _____ _____    ______ ____
ROOT
ATOM      1  O   UNL     1       2.166   7.407  19.568  0.00  0.00    +0.000 OA
ATOM      2  C   UNL     1       2.511   7.480  18.396  0.00  0.00    +0.000 C 
ATOM      3  N   UNL     1       2.302   8.582  17.585  0.00  0.00    +0.000 N 
ATOM      4  N   UNL     1       3.133   6.443  17.723  0.00  0.00    +0.000 N 
ATOM      5  H   UNL     1       2.441   8.442  16.596  0.00  0.00    +0.000 HD
ATOM      6  H   UNL     1       3.752   6.681  16.960  0.00  0.00    +0.000 HD
ENDROOT
BRANCH   3   7
ATOM      7  C   UNL     1       1.604   9.752  17.975  0.00  0.00    +0.000 A 
ATOM      8  C   UNL     1       2.238  10.967  18.264  0.00  0.00    +0.000 A 
ATOM      9  C   UNL     1       1.514  12.062  18.742  0.00  0.00    +0.000 A 
ATOM     10  C   UNL     1       0.141  11.956  18.916  0.00  0.00    +0.000 A 
ATOM     11 BR   UNL     1      -0.829  13.420  19.612  0.00  0.00    +0.000 Br
ATOM     12  C   UNL     1      -0.517  10.773  18.588  0.00  0.00    +0.000 A 
ATOM     13  C   UNL     1       0.213   9.676  18.109  0.00  0.00    +0.000 A 
ENDBRANCH   3   7
BRANCH   4  14
ATOM     14  C   UNL     1       3.249   5.121  18.226  0.00  0.00    +0.000 A 
ATOM     15  C   UNL     1       4.349   4.680  18.971  0.00  0.00    +0.000 A 
ATOM     16  C   UNL     1       4.408   3.370  19.454  0.00  0.00    +0.000 A 
ATOM     17  C   UNL     1       3.363   2.484  19.207  0.00  0.00    +0.000 A 
ATOM     18  C   UNL     1       2.254   2.911  18.478  0.00  0.00    +0.000 A 
ATOM     19  C   UNL     1       2.201   4.221  18.001  0.00  0.00    +0.000 A 
ATOM     20  F   UNL     1       1.127   4.614  17.297  0.00  0.00    +0.000 F 
ENDBRANCH   4  14
TORSDOF 2
ENDMDL
