MODEL 1
REMARK VINA RESULT:      -8.1      0.000      0.000
REMARK  Name = 
REMARK  6 active torsions:
REMARK  status: ('A' for Active; 'I' for Inactive)
REMARK    1  A    between atoms: C_1  and  C_2
REMARK    2  A    between atoms: C_2  and  C_3
REMARK    3  A    between atoms: C_2  and  C_4
REMARK    4  A    between atoms: C_4  and  C_16
REMARK    5  A    between atoms: N_5  and  N_6
REMARK    6  A    between atoms: N_9  and  C_10
REMARK                            x       y       z     vdW  Elec       q    Type
REMARK                         _______ _______ _______ _____ _____    ______ ____
ROOT
ATOM      1  N   UNL     1       6.987   4.362  18.116  0.00  0.00    +0.000 N 
ATOM      2  C   UNL     1       5.836   4.179  18.868  0.00  0.00    +0.000 C 
ATOM      3  O   UNL     1       5.844   4.442  20.065  0.00  0.00    +0.000 OA
ATOM      4  N   UNL     1       4.792   3.668  18.135  0.00  0.00    +0.000 N 
ATOM      5  H   UNL     1       7.795   4.658  18.636  0.00  0.00    +0.000 HD
ATOM      6  H   UNL     1       5.094   3.361  17.218  0.00  0.00    +0.000 HD
ENDROOT
BRANCH   4   7
ATOM      7  C   UNL     1       3.494   3.364  18.581  0.00  0.00    +0.000 A 
ATOM      8  C   UNL     1       3.236   2.524  19.666  0.00  0.00    +0.000 A 
ATOM      9  C   UNL     1       1.921   2.251  20.056  0.00  0.00    +0.000 A 
ATOM     10  C   UNL     1       0.852   2.809  19.356  0.00  0.00    +0.000 A 
ATOM     11  C   UNL     1       1.100   3.656  18.279  0.00  0.00    +0.000 A 
ATOM     12  C   UNL     1       2.416   3.944  17.901  0.00  0.00    +0.000 A 
ENDBRANCH   4   7
BRANCH   1  14
ATOM     13  C   UNL     1       6.698   5.180  15.960  0.00  0.00    +0.000 C 
ATOM     14  N   UNL     1       7.003   4.206  16.774  0.00  0.00    +0.000 NA
BRANCH  13  15
ATOM     15  C   UNL     1       6.791   4.830  14.490  0.00  0.00    +0.000 A 
ATOM     16  C   UNL     1       7.718   5.436  13.631  0.00  0.00    +0.000 A 
ATOM     17  C   UNL     1       7.809   5.041  12.298  0.00  0.00    +0.000 A 
ATOM     18  C   UNL     1       6.977   4.039  11.802  0.00  0.00    +0.000 A 
ATOM     19  C   UNL     1       6.047   3.434  12.643  0.00  0.00    +0.000 A 
ATOM     20  C   UNL     1       5.956   3.825  13.981  0.00  0.00    +0.000 A 
ENDBRANCH  13  15
BRANCH  13  22
ATOM     21  C   UNL     1       4.829   6.847  16.752  0.00  0.00    +0.000 C 
ATOM     22  C   UNL     1       6.279   6.631  16.312  0.00  0.00    +0.000 C 
ATOM     23  C   UNL     1       7.238   7.271  17.316  0.00  0.00    +0.000 C 
ENDBRANCH  13  22
ENDBRANCH   1  14
TORSDOF 4
ENDMDL
MODEL 2
REMARK VINA RESULT:      -8.1      0.170      1.064
REMARK  Name = 
REMARK  6 active torsions:
REMARK  status: ('A' for Active; 'I' for Inactive)
REMARK    1  A    between atoms: C_1  and  C_2
REMARK    2  A    between atoms: C_2  and  C_3
REMARK    3  A    between atoms: C_2  and  C_4
REMARK    4  A    between atoms: C_4  and  C_16
REMARK    5  A    between atoms: N_5  and  N_6
REMARK    6  A    between atoms: N_9  and  C_10
REMARK                            x       y       z     vdW  Elec       q    Type
REMARK                         _______ _______ _______ _____ _____    ______ ____
ROOT
ATOM      1  N   UNL     1       6.954   4.367  18.111  0.00  0.00    +0.000 N 
ATOM      2  C   UNL     1       5.785   4.171  18.830  0.00  0.00    +0.000 C 
ATOM      3  O   UNL     1       5.751   4.450  20.024  0.00  0.00    +0.000 OA
ATOM      4  N   UNL     1       4.774   3.630  18.073  0.00  0.00    +0.000 N 
ATOM      5  H   UNL     1       7.740   4.686  18.652  0.00  0.00    +0.000 HD
ATOM      6  H   UNL     1       5.109   3.316  17.171  0.00  0.00    +0.000 HD
ENDROOT
BRANCH   4   7
ATOM      7  C   UNL     1       3.469   3.306  18.483  0.00  0.00    +0.000 A 
ATOM      8  C   UNL     1       3.185   2.292  19.401  0.00  0.00    +0.000 A 
ATOM      9  C   UNL     1       1.864   2.010  19.762  0.00  0.00    +0.000 A 
ATOM     10  C   UNL     1       0.814   2.734  19.201  0.00  0.00    +0.000 A 
ATOM     11  C   UNL     1       1.087   3.753  18.292  0.00  0.00    +0.000 A 
ATOM     12  C   UNL     1       2.411   4.048  17.945  0.00  0.00    +0.000 A 
ENDBRANCH   4   7
BRANCH   1  14
ATOM     13  C   UNL     1       6.723   5.152  15.936  0.00  0.00    +0.000 C 
ATOM     14  N   UNL     1       7.014   4.193  16.772  0.00  0.00    +0.000 NA
BRANCH  13  15
ATOM     15  C   UNL     1       6.867   4.784  14.475  0.00  0.00    +0.000 A 
ATOM     16  C   UNL     1       6.098   3.776  13.876  0.00  0.00    +0.000 A 
ATOM     17  C   UNL     1       6.220   3.509  12.514  0.00  0.00    +0.000 A 
ATOM     18  C   UNL     1       7.111   4.241  11.731  0.00  0.00    +0.000 A 
ATOM     19  C   UNL     1       7.886   5.239  12.314  0.00  0.00    +0.000 A 
ATOM     20  C   UNL     1       7.763   5.512  13.680  0.00  0.00    +0.000 A 
ENDBRANCH  13  15
BRANCH  13  22
ATOM     21  C   UNL     1       4.806   6.808  16.628  0.00  0.00    +0.000 C 
ATOM     22  C   UNL     1       6.276   6.602  16.255  0.00  0.00    +0.000 C 
ATOM     23  C   UNL     1       7.183   7.261  17.294  0.00  0.00    +0.000 C 
ENDBRANCH  13  22
ENDBRANCH   1  14
TORSDOF 4
ENDMDL
MODEL 3
REMARK VINA RESULT:      -8.1      1.603      2.360
REMARK  Name = 
REMARK  6 active torsions:
REMARK  status: ('A' for Active; 'I' for Inactive)
REMARK    1  A    between atoms: C_1  and  C_2
REMARK    2  A    between atoms: C_2  and  C_3
REMARK    3  A    between atoms: C_2  and  C_4
REMARK    4  A    between atoms: C_4  and  C_16
REMARK    5  A    between atoms: N_5  and  N_6
REMARK    6  A    between atoms: N_9  and  C_10
REMARK                            x       y       z     vdW  Elec       q    Type
REMARK                         _______ _______ _______ _____ _____    ______ ____
ROOT
ATOM      1  N   UNL     1       4.482   6.927  17.082  0.00  0.00    +0.000 N 
ATOM      2  C   UNL     1       3.672   6.351  18.049  0.00  0.00    +0.000 C 
ATOM      3  O   UNL     1       3.246   7.037  18.972  0.00  0.00    +0.000 OA
ATOM      4  N   UNL     1       3.471   5.007  17.849  0.00  0.00    +0.000 N 
ATOM      5  H   UNL     1       4.717   7.892  17.240  0.00  0.00    +0.000 HD
ATOM      6  H   UNL     1       4.081   4.640  17.129  0.00  0.00    +0.000 HD
ENDROOT
BRANCH   4   7
ATOM      7  C   UNL     1       2.708   4.124  18.634  0.00  0.00    +0.000 A 
ATOM      8  C   UNL     1       1.518   3.541  18.192  0.00  0.00    +0.000 A 
ATOM      9  C   UNL     1       0.799   2.677  19.024  0.00  0.00    +0.000 A 
ATOM     10  C   UNL     1       1.259   2.397  20.309  0.00  0.00    +0.000 A 
ATOM     11  C   UNL     1       2.449   2.965  20.755  0.00  0.00    +0.000 A 
ATOM     12  C   UNL     1       3.179   3.815  19.916  0.00  0.00    +0.000 A 
ENDBRANCH   4   7
BRANCH   1  14
ATOM     13  C   UNL     1       6.091   5.784  15.856  0.00  0.00    +0.000 C 
ATOM     14  N   UNL     1       4.879   6.252  15.980  0.00  0.00    +0.000 NA
BRANCH  13  15
ATOM     15  C   UNL     1       6.351   5.036  14.566  0.00  0.00    +0.000 A 
ATOM     16  C   UNL     1       5.468   4.068  14.067  0.00  0.00    +0.000 A 
ATOM     17  C   UNL     1       5.717   3.447  12.845  0.00  0.00    +0.000 A 
ATOM     18  C   UNL     1       6.849   3.780  12.104  0.00  0.00    +0.000 A 
ATOM     19  C   UNL     1       7.738   4.734  12.590  0.00  0.00    +0.000 A 
ATOM     20  C   UNL     1       7.490   5.362  13.814  0.00  0.00    +0.000 A 
ENDBRANCH  13  15
BRANCH  13  22
ATOM     21  C   UNL     1       7.506   7.242  17.519  0.00  0.00    +0.000 C 
ATOM     22  C   UNL     1       7.267   5.882  16.861  0.00  0.00    +0.000 C 
ATOM     23  C   UNL     1       7.199   4.784  17.924  0.00  0.00    +0.000 C 
ENDBRANCH  13  22
ENDBRANCH   1  14
TORSDOF 4
ENDMDL
MODEL 4
REMARK VINA RESULT:      -8.0      0.485      1.416
REMARK  Name = 
REMARK  6 active torsions:
REMARK  status: ('A' for Active; 'I' for Inactive)
REMARK    1  A    between atoms: C_1  and  C_2
REMARK    2  A    between atoms: C_2  and  C_3
REMARK    3  A    between atoms: C_2  and  C_4
REMARK    4  A    between atoms: C_4  and  C_16
REMARK    5  A    between atoms: N_5  and  N_6
REMARK    6  A    between atoms: N_9  and  C_10
REMARK                            x       y       z     vdW  Elec       q    Type
REMARK                         _______ _______ _______ _____ _____    ______ ____
ROOT
ATOM      1  N   UNL     1       7.010   4.353  18.159  0.00  0.00    +0.000 N 
ATOM      2  C   UNL     1       5.853   4.231  18.913  0.00  0.00    +0.000 C 
ATOM      3  O   UNL     1       5.870   4.523  20.104  0.00  0.00    +0.000 OA
ATOM      4  N   UNL     1       4.791   3.739  18.193  0.00  0.00    +0.000 N 
ATOM      5  H   UNL     1       7.828   4.633  18.672  0.00  0.00    +0.000 HD
ATOM      6  H   UNL     1       5.081   3.398  17.285  0.00  0.00    +0.000 HD
ENDROOT
BRANCH   4   7
ATOM      7  C   UNL     1       3.482   3.494  18.645  0.00  0.00    +0.000 A 
ATOM      8  C   UNL     1       2.574   4.511  18.944  0.00  0.00    +0.000 A 
ATOM      9  C   UNL     1       1.288   4.202  19.399  0.00  0.00    +0.000 A 
ATOM     10  C   UNL     1       0.904   2.874  19.569  0.00  0.00    +0.000 A 
ATOM     11  C   UNL     1       1.800   1.852  19.264  0.00  0.00    +0.000 A 
ATOM     12  C   UNL     1       3.080   2.161  18.789  0.00  0.00    +0.000 A 
ENDBRANCH   4   7
BRANCH   1  14
ATOM     13  C   UNL     1       6.744   5.125  15.983  0.00  0.00    +0.000 C 
ATOM     14  N   UNL     1       7.020   4.163  16.821  0.00  0.00    +0.000 NA
BRANCH  13  15
ATOM     15  C   UNL     1       6.826   4.736  14.522  0.00  0.00    +0.000 A 
ATOM     16  C   UNL     1       5.994   3.757  13.959  0.00  0.00    +0.000 A 
ATOM     17  C   UNL     1       6.063   3.471  12.597  0.00  0.00    +0.000 A 
ATOM     18  C   UNL     1       6.960   4.154  11.778  0.00  0.00    +0.000 A 
ATOM     19  C   UNL     1       7.796   5.123  12.326  0.00  0.00    +0.000 A 
ATOM     20  C   UNL     1       7.728   5.415  13.691  0.00  0.00    +0.000 A 
ENDBRANCH  13  15
BRANCH  13  22
ATOM     21  C   UNL     1       4.916   6.875  16.684  0.00  0.00    +0.000 C 
ATOM     22  C   UNL     1       6.370   6.596  16.298  0.00  0.00    +0.000 C 
ATOM     23  C   UNL     1       7.318   7.215  17.326  0.00  0.00    +0.000 C 
ENDBRANCH  13  22
ENDBRANCH   1  14
TORSDOF 4
ENDMDL
MODEL 5
REMARK VINA RESULT:      -8.0      1.705      2.256
REMARK  Name = 
REMARK  6 active torsions:
REMARK  status: ('A' for Active; 'I' for Inactive)
REMARK    1  A    between atoms: C_1  and  C_2
REMARK    2  A    between atoms: C_2  and  C_3
REMARK    3  A    between atoms: C_2  and  C_4
REMARK    4  A    between atoms: C_4  and  C_16
REMARK    5  A    between atoms: N_5  and  N_6
REMARK    6  A    between atoms: N_9  and  C_10
REMARK                            x       y       z     vdW  Elec       q    Type
REMARK                         _______ _______ _______ _____ _____    ______ ____
ROOT
ATOM      1  N   UNL     1       4.476   7.044  17.059  0.00  0.00    +0.000 N 
ATOM      2  C   UNL     1       3.633   6.519  18.028  0.00  0.00    +0.000 C 
ATOM      3  O   UNL     1       3.222   7.240  18.930  0.00  0.00    +0.000 OA
ATOM      4  N   UNL     1       3.385   5.179  17.854  0.00  0.00    +0.000 N 
ATOM      5  H   UNL     1       4.744   8.003  17.200  0.00  0.00    +0.000 HD
ATOM      6  H   UNL     1       3.990   4.775  17.150  0.00  0.00    +0.000 HD
ENDROOT
BRANCH   4   7
ATOM      7  C   UNL     1       2.581   4.342  18.648  0.00  0.00    +0.000 A 
ATOM      8  C   UNL     1       2.652   4.312  20.042  0.00  0.00    +0.000 A 
ATOM      9  C   UNL     1       1.831   3.450  20.776  0.00  0.00    +0.000 A 
ATOM     10  C   UNL     1       0.942   2.601  20.120  0.00  0.00    +0.000 A 
ATOM     11  C   UNL     1       0.858   2.630  18.731  0.00  0.00    +0.000 A 
ATOM     12  C   UNL     1       1.665   3.507  17.997  0.00  0.00    +0.000 A 
ENDBRANCH   4   7
BRANCH   1  14
ATOM     13  C   UNL     1       6.067   5.843  15.865  0.00  0.00    +0.000 C 
ATOM     14  N   UNL     1       4.861   6.332  15.977  0.00  0.00    +0.000 NA
BRANCH  13  15
ATOM     15  C   UNL     1       6.314   5.054  14.597  0.00  0.00    +0.000 A 
ATOM     16  C   UNL     1       5.423   4.075  14.136  0.00  0.00    +0.000 A 
ATOM     17  C   UNL     1       5.660   3.414  12.932  0.00  0.00    +0.000 A 
ATOM     18  C   UNL     1       6.788   3.718  12.173  0.00  0.00    +0.000 A 
ATOM     19  C   UNL     1       7.685   4.683  12.622  0.00  0.00    +0.000 A 
ATOM     20  C   UNL     1       7.448   5.350  13.828  0.00  0.00    +0.000 A 
ENDBRANCH  13  15
BRANCH  13  22
ATOM     21  C   UNL     1       7.499   7.328  17.490  0.00  0.00    +0.000 C 
ATOM     22  C   UNL     1       7.246   5.954  16.865  0.00  0.00    +0.000 C 
ATOM     23  C   UNL     1       7.170   4.883  17.954  0.00  0.00    +0.000 C 
ENDBRANCH  13  22
ENDBRANCH   1  14
TORSDOF 4
ENDMDL
MODEL 6
REMARK VINA RESULT:      -7.9      5.318      7.534
REMARK  Name = 
REMARK  6 active torsions:
REMARK  status: ('A' for Active; 'I' for Inactive)
REMARK    1  A    between atoms: C_1  and  C_2
REMARK    2  A    between atoms: C_2  and  C_3
REMARK    3  A    between atoms: C_2  and  C_4
REMARK    4  A    between atoms: C_4  and  C_16
REMARK    5  A    between atoms: N_5  and  N_6
REMARK    6  A    between atoms: N_9  and  C_10
REMARK                            x       y       z     vdW  Elec       q    Type
REMARK                         _______ _______ _______ _____ _____    ______ ____
ROOT
ATOM      1  N   UNL     1       2.640   8.505  17.873  0.00  0.00    +0.000 N 
ATOM      2  C   UNL     1       1.903   9.672  18.001  0.00  0.00    +0.000 C 
ATOM      3  O   UNL     1       2.321  10.712  17.503  0.00  0.00    +0.000 OA
ATOM      4  N   UNL     1       0.756   9.505  18.739  0.00  0.00    +0.000 N 
ATOM      5  H   UNL     1       3.526   8.607  17.409  0.00  0.00    +0.000 HD
ATOM      6  H   UNL     1       0.734   8.602  19.197  0.00  0.00    +0.000 HD
ENDROOT
BRANCH   4   7
ATOM      7  C   UNL     1      -0.211  10.474  19.060  0.00  0.00    +0.000 A 
ATOM      8  C   UNL     1      -0.195  11.206  20.249  0.00  0.00    +0.000 A 
ATOM      9  C   UNL     1      -1.192  12.150  20.515  0.00  0.00    +0.000 A 
ATOM     10  C   UNL     1      -2.219  12.362  19.599  0.00  0.00    +0.000 A 
ATOM     11  C   UNL     1      -2.239  11.644  18.406  0.00  0.00    +0.000 A 
ATOM     12  C   UNL     1      -1.230  10.713  18.130  0.00  0.00    +0.000 A 
ENDBRANCH   4   7
BRANCH   1  14
ATOM     13  C   UNL     1       2.950   6.267  18.419  0.00  0.00    +0.000 C 
ATOM     14  N   UNL     1       2.173   7.308  18.295  0.00  0.00    +0.000 NA
BRANCH  13  15
ATOM     15  C   UNL     1       2.260   5.018  18.924  0.00  0.00    +0.000 A 
ATOM     16  C   UNL     1       1.901   4.850  20.269  0.00  0.00    +0.000 A 
ATOM     17  C   UNL     1       1.214   3.710  20.680  0.00  0.00    +0.000 A 
ATOM     18  C   UNL     1       0.876   2.722  19.758  0.00  0.00    +0.000 A 
ATOM     19  C   UNL     1       1.231   2.872  18.421  0.00  0.00    +0.000 A 
ATOM     20  C   UNL     1       1.918   4.016  18.004  0.00  0.00    +0.000 A 
ENDBRANCH  13  15
BRANCH  13  22
ATOM     21  C   UNL     1       5.290   5.260  19.059  0.00  0.00    +0.000 C 
ATOM     22  C   UNL     1       4.471   6.163  18.135  0.00  0.00    +0.000 C 
ATOM     23  C   UNL     1       4.752   5.819  16.672  0.00  0.00    +0.000 C 
ENDBRANCH  13  22
ENDBRANCH   1  14
TORSDOF 4
ENDMDL
MODEL 7
REMARK VINA RESULT:      -7.9      5.343      7.558
REMARK  Name = 
REMARK  6 active torsions:
REMARK  status: ('A' for Active; 'I' for Inactive)
REMARK    1  A    between atoms: C_1  and  C_2
REMARK    2  A    between atoms: C_2  and  C_3
REMARK    3  A    between atoms: C_2  and  C_4
REMARK    4  A    between atoms: C_4  and  C_16
REMARK    5  A    between atoms: N_5  and  N_6
REMARK    6  A    between atoms: N_9  and  C_10
REMARK                            x       y       z     vdW  Elec       q    Type
REMARK                         _______ _______ _______ _____ _____    ______ ____
ROOT
ATOM      1  N   UNL     1       2.595   8.523  17.855  0.00  0.00    +0.000 N 
ATOM      2  C   UNL     1       1.866   9.694  18.001  0.00  0.00    +0.000 C 
ATOM      3  O   UNL     1       2.298  10.741  17.532  0.00  0.00    +0.000 OA
ATOM      4  N   UNL     1       0.709   9.519  18.721  0.00  0.00    +0.000 N 
ATOM      5  H   UNL     1       3.487   8.628  17.403  0.00  0.00    +0.000 HD
ATOM      6  H   UNL     1       0.674   8.607  19.159  0.00  0.00    +0.000 HD
ENDROOT
BRANCH   4   7
ATOM      7  C   UNL     1      -0.255  10.489  19.053  0.00  0.00    +0.000 A 
ATOM      8  C   UNL     1      -0.224  11.222  20.241  0.00  0.00    +0.000 A 
ATOM      9  C   UNL     1      -1.217  12.166  20.519  0.00  0.00    +0.000 A 
ATOM     10  C   UNL     1      -2.256  12.377  19.614  0.00  0.00    +0.000 A 
ATOM     11  C   UNL     1      -2.290  11.659  18.422  0.00  0.00    +0.000 A 
ATOM     12  C   UNL     1      -1.285  10.727  18.136  0.00  0.00    +0.000 A 
ENDBRANCH   4   7
BRANCH   1  14
ATOM     13  C   UNL     1       2.883   6.274  18.364  0.00  0.00    +0.000 C 
ATOM     14  N   UNL     1       2.113   7.322  18.244  0.00  0.00    +0.000 NA
BRANCH  13  15
ATOM     15  C   UNL     1       2.176   5.020  18.831  0.00  0.00    +0.000 A 
ATOM     16  C   UNL     1       1.907   3.945  17.971  0.00  0.00    +0.000 A 
ATOM     17  C   UNL     1       1.307   2.785  18.457  0.00  0.00    +0.000 A 
ATOM     18  C   UNL     1       0.964   2.680  19.803  0.00  0.00    +0.000 A 
ATOM     19  C   UNL     1       1.219   3.742  20.666  0.00  0.00    +0.000 A 
ATOM     20  C   UNL     1       1.824   4.906  20.184  0.00  0.00    +0.000 A 
ENDBRANCH  13  15
BRANCH  13  22
ATOM     21  C   UNL     1       5.211   5.281  19.066  0.00  0.00    +0.000 C 
ATOM     22  C   UNL     1       4.408   6.168  18.111  0.00  0.00    +0.000 C 
ATOM     23  C   UNL     1       4.719   5.801  16.660  0.00  0.00    +0.000 C 
ENDBRANCH  13  22
ENDBRANCH   1  14
TORSDOF 4
ENDMDL
MODEL 8
REMARK VINA RESULT:      -7.9      5.316      7.591
REMARK  Name = 
REMARK  6 active torsions:
REMARK  status: ('A' for Active; 'I' for Inactive)
REMARK    1  A    between atoms: C_1  and  C_2
REMARK    2  A    between atoms: C_2  and  C_3
REMARK    3  A    between atoms: C_2  and  C_4
REMARK    4  A    between atoms: C_4  and  C_16
REMARK    5  A    between atoms: N_5  and  N_6
REMARK    6  A    between atoms: N_9  and  C_10
REMARK                            x       y       z     vdW  Elec       q    Type
REMARK                         _______ _______ _______ _____ _____    ______ ____
ROOT
ATOM      1  N   UNL     1       2.622   8.491  17.837  0.00  0.00    +0.000 N 
ATOM      2  C   UNL     1       1.902   9.667  17.988  0.00  0.00    +0.000 C 
ATOM      3  O   UNL     1       2.340  10.712  17.521  0.00  0.00    +0.000 OA
ATOM      4  N   UNL     1       0.745   9.498  18.711  0.00  0.00    +0.000 N 
ATOM      5  H   UNL     1       3.514   8.591  17.384  0.00  0.00    +0.000 HD
ATOM      6  H   UNL     1       0.706   8.584  19.146  0.00  0.00    +0.000 HD
ENDROOT
BRANCH   4   7
ATOM      7  C   UNL     1      -0.211  10.473  19.047  0.00  0.00    +0.000 A 
ATOM      8  C   UNL     1      -1.237  10.866  18.186  0.00  0.00    +0.000 A 
ATOM      9  C   UNL     1      -2.152  11.849  18.575  0.00  0.00    +0.000 A 
ATOM     10  C   UNL     1      -2.042  12.455  19.825  0.00  0.00    +0.000 A 
ATOM     11  C   UNL     1      -1.028  12.063  20.695  0.00  0.00    +0.000 A 
ATOM     12  C   UNL     1      -0.123  11.065  20.313  0.00  0.00    +0.000 A 
ENDBRANCH   4   7
BRANCH   1  14
ATOM     13  C   UNL     1       2.898   6.241  18.349  0.00  0.00    +0.000 C 
ATOM     14  N   UNL     1       2.133   7.292  18.224  0.00  0.00    +0.000 NA
BRANCH  13  15
ATOM     15  C   UNL     1       2.182   4.990  18.812  0.00  0.00    +0.000 A 
ATOM     16  C   UNL     1       1.932   3.908  17.957  0.00  0.00    +0.000 A 
ATOM     17  C   UNL     1       1.323   2.752  18.440  0.00  0.00    +0.000 A 
ATOM     18  C   UNL     1       0.954   2.658  19.780  0.00  0.00    +0.000 A 
ATOM     19  C   UNL     1       1.191   3.727  20.639  0.00  0.00    +0.000 A 
ATOM     20  C   UNL     1       1.805   4.887  20.159  0.00  0.00    +0.000 A 
ENDBRANCH  13  15
BRANCH  13  22
ATOM     21  C   UNL     1       5.218   5.241  19.065  0.00  0.00    +0.000 C 
ATOM     22  C   UNL     1       4.424   6.128  18.104  0.00  0.00    +0.000 C 
ATOM     23  C   UNL     1       4.740   5.754  16.655  0.00  0.00    +0.000 C 
ENDBRANCH  13  22
ENDBRANCH   1  14
TORSDOF 4
ENDMDL
MODEL 9
REMARK VINA RESULT:      -7.9      5.314      7.596
REMARK  Name = 
REMARK  6 active torsions:
REMARK  status: ('A' for Active; 'I' for Inactive)
REMARK    1  A    between atoms: C_1  and  C_2
REMARK    2  A    between atoms: C_2  and  C_3
REMARK    3  A    between atoms: C_2  and  C_4
REMARK    4  A    between atoms: C_4  and  C_16
REMARK    5  A    between atoms: N_5  and  N_6
REMARK    6  A    between atoms: N_9  and  C_10
REMARK                            x       y       z     vdW  Elec       q    Type
REMARK                         _______ _______ _______ _____ _____    ______ ____
ROOT
ATOM      1  N   UNL     1       2.678   8.519  17.930  0.00  0.00    +0.000 N 
ATOM      2  C   UNL     1       1.928   9.683  18.011  0.00  0.00    +0.000 C 
ATOM      3  O   UNL     1       2.362  10.721  17.523  0.00  0.00    +0.000 OA
ATOM      4  N   UNL     1       0.747   9.513  18.694  0.00  0.00    +0.000 N 
ATOM      5  H   UNL     1       3.585   8.624  17.508  0.00  0.00    +0.000 HD
ATOM      6  H   UNL     1       0.710   8.615  19.159  0.00  0.00    +0.000 HD
ENDROOT
BRANCH   4   7
ATOM      7  C   UNL     1      -0.241  10.478  18.958  0.00  0.00    +0.000 A 
ATOM      8  C   UNL     1      -1.337  10.698  18.120  0.00  0.00    +0.000 A 
ATOM      9  C   UNL     1      -2.283  11.680  18.432  0.00  0.00    +0.000 A 
ATOM     10  C   UNL     1      -2.135  12.457  19.579  0.00  0.00    +0.000 A 
ATOM     11  C   UNL     1      -1.051  12.238  20.426  0.00  0.00    +0.000 A 
ATOM     12  C   UNL     1      -0.115  11.242  20.124  0.00  0.00    +0.000 A 
ENDBRANCH   4   7
BRANCH   1  14
ATOM     13  C   UNL     1       2.966   6.272  18.448  0.00  0.00    +0.000 C 
ATOM     14  N   UNL     1       2.200   7.324  18.341  0.00  0.00    +0.000 NA
BRANCH  13  15
ATOM     15  C   UNL     1       2.264   5.026  18.942  0.00  0.00    +0.000 A 
ATOM     16  C   UNL     1       1.891   4.855  20.284  0.00  0.00    +0.000 A 
ATOM     17  C   UNL     1       1.194   3.718  20.684  0.00  0.00    +0.000 A 
ATOM     18  C   UNL     1       0.860   2.734  19.756  0.00  0.00    +0.000 A 
ATOM     19  C   UNL     1       1.229   2.886  18.423  0.00  0.00    +0.000 A 
ATOM     20  C   UNL     1       1.926   4.028  18.016  0.00  0.00    +0.000 A 
ENDBRANCH  13  15
BRANCH  13  22
ATOM     21  C   UNL     1       5.304   5.261  19.087  0.00  0.00    +0.000 C 
ATOM     22  C   UNL     1       4.483   6.155  18.154  0.00  0.00    +0.000 C 
ATOM     23  C   UNL     1       4.752   5.784  16.695  0.00  0.00    +0.000 C 
ENDBRANCH  13  22
ENDBRANCH   1  14
TORSDOF 4
ENDMDL
