MODEL 1
REMARK VINA RESULT:      -8.3      0.000      0.000
REMARK  Name = 
REMARK  6 active torsions:
REMARK  status: ('A' for Active; 'I' for Inactive)
REMARK    1  A    between atoms: C_1  and  C_2
REMARK    2  A    between atoms: C_5  and  S_6
REMARK    3  A    between atoms: S_6  and  N_9
REMARK    4  A    between atoms: N_9  and  C_10
REMARK    5  A    between atoms: C_13  and  O_14
REMARK    6  A    between atoms: C_21  and  C_22
REMARK                            x       y       z     vdW  Elec       q    Type
REMARK                         _______ _______ _______ _____ _____    ______ ____
ROOT
ATOM      1  N   UNL     1       4.090   2.650  18.287  0.00  0.00    +0.000 N 
ATOM      2  H   UNL     1       4.397   1.835  17.758  0.00  0.00    +0.000 HD
ENDROOT
BRANCH   1   3
ATOM      3  C   UNL     1       5.014   3.757  18.185  0.00  0.00    +0.000 A 
ATOM      4  C   UNL     1       5.289   4.468  19.357  0.00  0.00    +0.000 A 
ATOM      5  C   UNL     1       6.200   5.521  19.349  0.00  0.00    +0.000 A 
ATOM      6  C   UNL     1       6.831   5.869  18.157  0.00  0.00    +0.000 A 
ATOM      7  C   UNL     1       6.555   5.196  16.950  0.00  0.00    +0.000 A 
ATOM      8  C   UNL     1       7.184   5.563  15.741  0.00  0.00    +0.000 A 
ATOM      9  C   UNL     1       6.902   4.909  14.543  0.00  0.00    +0.000 A 
ATOM     10  C   UNL     1       5.982   3.872  14.531  0.00  0.00    +0.000 A 
ATOM     11  C   UNL     1       5.349   3.488  15.716  0.00  0.00    +0.000 A 
ATOM     12  C   UNL     1       5.620   4.127  16.951  0.00  0.00    +0.000 A 
BRANCH   6  13
ATOM     13  O   UNL     1       7.740   6.900  18.155  0.00  0.00    +0.000 OA
ATOM     14  H   UNL     1       7.765   7.306  19.037  0.00  0.00    +0.000 HD
ENDBRANCH   6  13
ENDBRANCH   1   3
BRANCH   1  15
ATOM     15  S   UNL     1       2.471   3.020  17.900  0.00  0.00    +0.000 S 
ATOM     16  O   UNL     1       1.649   2.008  18.532  0.00  0.00    +0.000 OA
ATOM     17  O   UNL     1       2.356   3.314  16.489  0.00  0.00    +0.000 OA
BRANCH  15  22
ATOM     18  C   UNL     1       1.696   8.351  20.786  0.00  0.00    +0.000 C 
ATOM     19  C   UNL     1       1.872   7.039  20.077  0.00  0.00    +0.000 A 
ATOM     20  C   UNL     1       2.200   6.987  18.722  0.00  0.00    +0.000 A 
ATOM     21  C   UNL     1       2.366   5.755  18.086  0.00  0.00    +0.000 A 
ATOM     22  C   UNL     1       2.210   4.551  18.797  0.00  0.00    +0.000 A 
ATOM     23  C   UNL     1       1.888   4.581  20.165  0.00  0.00    +0.000 A 
ATOM     24  C   UNL     1       1.708   3.373  21.039  0.00  0.00    +0.000 C 
ATOM     25  C   UNL     1       1.717   5.838  20.784  0.00  0.00    +0.000 A 
ENDBRANCH  15  22
ENDBRANCH   1  15
TORSDOF 4
ENDMDL
MODEL 2
REMARK VINA RESULT:      -8.2      1.001      2.361
REMARK  Name = 
REMARK  6 active torsions:
REMARK  status: ('A' for Active; 'I' for Inactive)
REMARK    1  A    between atoms: C_1  and  C_2
REMARK    2  A    between atoms: C_5  and  S_6
REMARK    3  A    between atoms: S_6  and  N_9
REMARK    4  A    between atoms: N_9  and  C_10
REMARK    5  A    between atoms: C_13  and  O_14
REMARK    6  A    between atoms: C_21  and  C_22
REMARK                            x       y       z     vdW  Elec       q    Type
REMARK                         _______ _______ _______ _____ _____    ______ ____
ROOT
ATOM      1  N   UNL     1       4.280   2.806  18.174  0.00  0.00    +0.000 N 
ATOM      2  H   UNL     1       4.493   1.809  18.193  0.00  0.00    +0.000 HD
ENDROOT
BRANCH   1   3
ATOM      3  C   UNL     1       5.148   3.540  17.281  0.00  0.00    +0.000 A 
ATOM      4  C   UNL     1       5.089   3.212  15.923  0.00  0.00    +0.000 A 
ATOM      5  C   UNL     1       5.862   3.903  14.994  0.00  0.00    +0.000 A 
ATOM      6  C   UNL     1       6.708   4.920  15.431  0.00  0.00    +0.000 A 
ATOM      7  C   UNL     1       6.818   5.256  16.795  0.00  0.00    +0.000 A 
ATOM      8  C   UNL     1       7.688   6.276  17.235  0.00  0.00    +0.000 A 
ATOM      9  C   UNL     1       7.810   6.601  18.585  0.00  0.00    +0.000 A 
ATOM     10  C   UNL     1       7.062   5.908  19.524  0.00  0.00    +0.000 A 
ATOM     11  C   UNL     1       6.190   4.897  19.112  0.00  0.00    +0.000 A 
ATOM     12  C   UNL     1       6.037   4.549  17.747  0.00  0.00    +0.000 A 
BRANCH   6  13
ATOM     13  O   UNL     1       7.460   5.609  14.510  0.00  0.00    +0.000 OA
ATOM     14  H   UNL     1       7.667   5.023  13.763  0.00  0.00    +0.000 HD
ENDBRANCH   6  13
ENDBRANCH   1   3
BRANCH   1  15
ATOM     15  S   UNL     1       2.610   3.041  17.918  0.00  0.00    +0.000 S 
ATOM     16  O   UNL     1       1.926   1.977  18.626  0.00  0.00    +0.000 OA
ATOM     17  O   UNL     1       2.358   3.303  16.519  0.00  0.00    +0.000 OA
BRANCH  15  22
ATOM     18  C   UNL     1       1.694   8.333  20.836  0.00  0.00    +0.000 C 
ATOM     19  C   UNL     1       1.905   7.031  20.118  0.00  0.00    +0.000 A 
ATOM     20  C   UNL     1       2.370   6.996  18.803  0.00  0.00    +0.000 A 
ATOM     21  C   UNL     1       2.566   5.773  18.158  0.00  0.00    +0.000 A 
ATOM     22  C   UNL     1       2.302   4.561  18.821  0.00  0.00    +0.000 A 
ATOM     23  C   UNL     1       1.840   4.572  20.148  0.00  0.00    +0.000 A 
ATOM     24  C   UNL     1       1.536   3.352  20.970  0.00  0.00    +0.000 C 
ATOM     25  C   UNL     1       1.643   5.821  20.776  0.00  0.00    +0.000 A 
ENDBRANCH  15  22
ENDBRANCH   1  15
TORSDOF 4
ENDMDL
MODEL 3
REMARK VINA RESULT:      -8.0      2.222      5.850
REMARK  Name = 
REMARK  6 active torsions:
REMARK  status: ('A' for Active; 'I' for Inactive)
REMARK    1  A    between atoms: C_1  and  C_2
REMARK    2  A    between atoms: C_5  and  S_6
REMARK    3  A    between atoms: S_6  and  N_9
REMARK    4  A    between atoms: N_9  and  C_10
REMARK    5  A    between atoms: C_13  and  O_14
REMARK    6  A    between atoms: C_21  and  C_22
REMARK                            x       y       z     vdW  Elec       q    Type
REMARK                         _______ _______ _______ _____ _____    ______ ____
ROOT
ATOM      1  N   UNL     1       4.112   4.529  16.744  0.00  0.00    +0.000 N 
ATOM      2  H   UNL     1       3.878   4.216  15.803  0.00  0.00    +0.000 HD
ENDROOT
BRANCH   1   3
ATOM      3  C   UNL     1       3.111   4.157  17.717  0.00  0.00    +0.000 A 
ATOM      4  C   UNL     1       2.638   2.842  17.675  0.00  0.00    +0.000 A 
ATOM      5  C   UNL     1       1.704   2.396  18.606  0.00  0.00    +0.000 A 
ATOM      6  C   UNL     1       1.232   3.276  19.577  0.00  0.00    +0.000 A 
ATOM      7  C   UNL     1       1.662   4.617  19.630  0.00  0.00    +0.000 A 
ATOM      8  C   UNL     1       1.170   5.511  20.606  0.00  0.00    +0.000 A 
ATOM      9  C   UNL     1       1.581   6.841  20.652  0.00  0.00    +0.000 A 
ATOM     10  C   UNL     1       2.496   7.306  19.720  0.00  0.00    +0.000 A 
ATOM     11  C   UNL     1       3.000   6.440  18.747  0.00  0.00    +0.000 A 
ATOM     12  C   UNL     1       2.609   5.080  18.678  0.00  0.00    +0.000 A 
BRANCH   6  13
ATOM     13  O   UNL     1       0.320   2.829  20.502  0.00  0.00    +0.000 OA
ATOM     14  H   UNL     1       0.791   2.389  21.229  0.00  0.00    +0.000 HD
ENDBRANCH   6  13
ENDBRANCH   1   3
BRANCH   1  15
ATOM     15  S   UNL     1       5.707   4.064  17.132  0.00  0.00    +0.000 S 
ATOM     16  O   UNL     1       6.281   3.497  15.928  0.00  0.00    +0.000 OA
ATOM     17  O   UNL     1       5.721   3.347  18.386  0.00  0.00    +0.000 OA
BRANCH  15  22
ATOM     18  C   UNL     1       8.504   9.380  18.260  0.00  0.00    +0.000 C 
ATOM     19  C   UNL     1       7.824   8.073  17.970  0.00  0.00    +0.000 A 
ATOM     20  C   UNL     1       8.164   6.911  18.664  0.00  0.00    +0.000 A 
ATOM     21  C   UNL     1       7.512   5.708  18.382  0.00  0.00    +0.000 A 
ATOM     22  C   UNL     1       6.505   5.649  17.402  0.00  0.00    +0.000 A 
ATOM     23  C   UNL     1       6.141   6.809  16.697  0.00  0.00    +0.000 A 
ATOM     24  C   UNL     1       5.076   6.883  15.641  0.00  0.00    +0.000 C 
ATOM     25  C   UNL     1       6.820   8.011  16.994  0.00  0.00    +0.000 A 
ENDBRANCH  15  22
ENDBRANCH   1  15
TORSDOF 4
ENDMDL
MODEL 4
REMARK VINA RESULT:      -7.9      2.828      6.760
REMARK  Name = 
REMARK  6 active torsions:
REMARK  status: ('A' for Active; 'I' for Inactive)
REMARK    1  A    between atoms: C_1  and  C_2
REMARK    2  A    between atoms: C_5  and  S_6
REMARK    3  A    between atoms: S_6  and  N_9
REMARK    4  A    between atoms: N_9  and  C_10
REMARK    5  A    between atoms: C_13  and  O_14
REMARK    6  A    between atoms: C_21  and  C_22
REMARK                            x       y       z     vdW  Elec       q    Type
REMARK                         _______ _______ _______ _____ _____    ______ ____
ROOT
ATOM      1  N   UNL     1       3.002   6.881  20.021  0.00  0.00    +0.000 N 
ATOM      2  H   UNL     1       3.987   7.072  19.847  0.00  0.00    +0.000 HD
ENDROOT
BRANCH   1   3
ATOM      3  C   UNL     1       2.139   7.937  19.540  0.00  0.00    +0.000 A 
ATOM      4  C   UNL     1       2.172   8.212  18.170  0.00  0.00    +0.000 A 
ATOM      5  C   UNL     1       1.339   9.186  17.624  0.00  0.00    +0.000 A 
ATOM      6  C   UNL     1       0.478   9.895  18.458  0.00  0.00    +0.000 A 
ATOM      7  C   UNL     1       0.441   9.667  19.848  0.00  0.00    +0.000 A 
ATOM      8  C   UNL     1      -0.421  10.399  20.693  0.00  0.00    +0.000 A 
ATOM      9  C   UNL     1      -0.449  10.186  22.070  0.00  0.00    +0.000 A 
ATOM     10  C   UNL     1       0.388   9.234  22.631  0.00  0.00    +0.000 A 
ATOM     11  C   UNL     1       1.248   8.494  21.815  0.00  0.00    +0.000 A 
ATOM     12  C   UNL     1       1.294   8.680  20.412  0.00  0.00    +0.000 A 
BRANCH   6  13
ATOM     13  O   UNL     1      -0.351  10.846  17.914  0.00  0.00    +0.000 OA
ATOM     14  H   UNL     1      -0.370  11.624  18.495  0.00  0.00    +0.000 HD
ENDBRANCH   6  13
ENDBRANCH   1   3
BRANCH   1  15
ATOM     15  S   UNL     1       2.606   5.315  19.471  0.00  0.00    +0.000 S 
ATOM     16  O   UNL     1       1.320   5.418  18.810  0.00  0.00    +0.000 OA
ATOM     17  O   UNL     1       2.842   4.349  20.520  0.00  0.00    +0.000 OA
BRANCH  15  22
ATOM     18  C   UNL     1       6.861   4.617  15.139  0.00  0.00    +0.000 C 
ATOM     19  C   UNL     1       5.822   4.778  16.211  0.00  0.00    +0.000 A 
ATOM     20  C   UNL     1       5.838   5.872  17.077  0.00  0.00    +0.000 A 
ATOM     21  C   UNL     1       4.856   6.004  18.061  0.00  0.00    +0.000 A 
ATOM     22  C   UNL     1       3.837   5.044  18.194  0.00  0.00    +0.000 A 
ATOM     23  C   UNL     1       3.797   3.938  17.327  0.00  0.00    +0.000 A 
ATOM     24  C   UNL     1       2.758   2.853  17.354  0.00  0.00    +0.000 C 
ATOM     25  C   UNL     1       4.805   3.822  16.346  0.00  0.00    +0.000 A 
ENDBRANCH  15  22
ENDBRANCH   1  15
TORSDOF 4
ENDMDL
MODEL 5
REMARK VINA RESULT:      -7.8      2.343      5.909
REMARK  Name = 
REMARK  6 active torsions:
REMARK  status: ('A' for Active; 'I' for Inactive)
REMARK    1  A    between atoms: C_1  and  C_2
REMARK    2  A    between atoms: C_5  and  S_6
REMARK    3  A    between atoms: S_6  and  N_9
REMARK    4  A    between atoms: N_9  and  C_10
REMARK    5  A    between atoms: C_13  and  O_14
REMARK    6  A    between atoms: C_21  and  C_22
REMARK                            x       y       z     vdW  Elec       q    Type
REMARK                         _______ _______ _______ _____ _____    ______ ____
ROOT
ATOM      1  N   UNL     1       4.430   4.908  16.928  0.00  0.00    +0.000 N 
ATOM      2  H   UNL     1       4.367   4.708  15.930  0.00  0.00    +0.000 HD
ENDROOT
BRANCH   1   3
ATOM      3  C   UNL     1       3.308   4.380  17.671  0.00  0.00    +0.000 A 
ATOM      4  C   UNL     1       2.871   3.095  17.337  0.00  0.00    +0.000 A 
ATOM      5  C   UNL     1       1.824   2.501  18.036  0.00  0.00    +0.000 A 
ATOM      6  C   UNL     1       1.204   3.203  19.066  0.00  0.00    +0.000 A 
ATOM      7  C   UNL     1       1.596   4.512  19.409  0.00  0.00    +0.000 A 
ATOM      8  C   UNL     1       0.955   5.227  20.443  0.00  0.00    +0.000 A 
ATOM      9  C   UNL     1       1.331   6.527  20.775  0.00  0.00    +0.000 A 
ATOM     10  C   UNL     1       2.359   7.141  20.075  0.00  0.00    +0.000 A 
ATOM     11  C   UNL     1       3.011   6.452  19.050  0.00  0.00    +0.000 A 
ATOM     12  C   UNL     1       2.659   5.126  18.695  0.00  0.00    +0.000 A 
BRANCH   6  13
ATOM     13  O   UNL     1       0.179   2.608  19.762  0.00  0.00    +0.000 OA
ATOM     14  H   UNL     1       0.175   1.656  19.574  0.00  0.00    +0.000 HD
ENDBRANCH   6  13
ENDBRANCH   1   3
BRANCH   1  15
ATOM     15  S   UNL     1       5.966   4.456  17.516  0.00  0.00    +0.000 S 
ATOM     16  O   UNL     1       6.655   3.799  16.424  0.00  0.00    +0.000 OA
ATOM     17  O   UNL     1       5.833   3.829  18.812  0.00  0.00    +0.000 OA
BRANCH  15  22
ATOM     18  C   UNL     1       8.578   9.947  18.142  0.00  0.00    +0.000 C 
ATOM     19  C   UNL     1       7.929   8.600  18.001  0.00  0.00    +0.000 A 
ATOM     20  C   UNL     1       6.895   8.386  17.089  0.00  0.00    +0.000 A 
ATOM     21  C   UNL     1       6.313   7.122  16.970  0.00  0.00    +0.000 A 
ATOM     22  C   UNL     1       6.758   6.048  17.761  0.00  0.00    +0.000 A 
ATOM     23  C   UNL     1       7.804   6.238  18.681  0.00  0.00    +0.000 A 
ATOM     24  C   UNL     1       8.380   5.175  19.571  0.00  0.00    +0.000 C 
ATOM     25  C   UNL     1       8.371   7.527  18.788  0.00  0.00    +0.000 A 
ENDBRANCH  15  22
ENDBRANCH   1  15
TORSDOF 4
ENDMDL
MODEL 6
REMARK VINA RESULT:      -7.7      2.730      5.229
REMARK  Name = 
REMARK  6 active torsions:
REMARK  status: ('A' for Active; 'I' for Inactive)
REMARK    1  A    between atoms: C_1  and  C_2
REMARK    2  A    between atoms: C_5  and  S_6
REMARK    3  A    between atoms: S_6  and  N_9
REMARK    4  A    between atoms: N_9  and  C_10
REMARK    5  A    between atoms: C_13  and  O_14
REMARK    6  A    between atoms: C_21  and  C_22
REMARK                            x       y       z     vdW  Elec       q    Type
REMARK                         _______ _______ _______ _____ _____    ______ ____
ROOT
ATOM      1  N   UNL     1       3.380   7.159  19.117  0.00  0.00    +0.000 N 
ATOM      2  H   UNL     1       3.245   7.239  20.124  0.00  0.00    +0.000 HD
ENDROOT
BRANCH   1   3
ATOM      3  C   UNL     1       3.526   5.787  18.685  0.00  0.00    +0.000 A 
ATOM      4  C   UNL     1       4.385   5.545  17.610  0.00  0.00    +0.000 A 
ATOM      5  C   UNL     1       4.611   4.246  17.163  0.00  0.00    +0.000 A 
ATOM      6  C   UNL     1       3.962   3.185  17.790  0.00  0.00    +0.000 A 
ATOM      7  C   UNL     1       3.064   3.394  18.856  0.00  0.00    +0.000 A 
ATOM      8  C   UNL     1       2.396   2.318  19.478  0.00  0.00    +0.000 A 
ATOM      9  C   UNL     1       1.496   2.522  20.522  0.00  0.00    +0.000 A 
ATOM     10  C   UNL     1       1.245   3.811  20.966  0.00  0.00    +0.000 A 
ATOM     11  C   UNL     1       1.898   4.893  20.368  0.00  0.00    +0.000 A 
ATOM     12  C   UNL     1       2.824   4.718  19.311  0.00  0.00    +0.000 A 
BRANCH   6  13
ATOM     13  O   UNL     1       4.197   1.903  17.355  0.00  0.00    +0.000 OA
ATOM     14  H   UNL     1       5.099   1.642  17.601  0.00  0.00    +0.000 HD
ENDBRANCH   6  13
ENDBRANCH   1   3
BRANCH   1  15
ATOM     15  S   UNL     1       2.183   8.054  18.295  0.00  0.00    +0.000 S 
ATOM     16  O   UNL     1       1.305   7.092  17.660  0.00  0.00    +0.000 OA
ATOM     17  O   UNL     1       2.797   9.127  17.546  0.00  0.00    +0.000 OA
BRANCH  15  22
ATOM     18  C   UNL     1      -0.858  10.392  23.054  0.00  0.00    +0.000 C 
ATOM     19  C   UNL     1      -0.104   9.830  21.883  0.00  0.00    +0.000 A 
ATOM     20  C   UNL     1       0.926   8.906  22.061  0.00  0.00    +0.000 A 
ATOM     21  C   UNL     1       1.608   8.392  20.956  0.00  0.00    +0.000 A 
ATOM     22  C   UNL     1       1.268   8.791  19.651  0.00  0.00    +0.000 A 
ATOM     23  C   UNL     1       0.227   9.715  19.448  0.00  0.00    +0.000 A 
ATOM     24  C   UNL     1      -0.242  10.210  18.110  0.00  0.00    +0.000 C 
ATOM     25  C   UNL     1      -0.441  10.226  20.581  0.00  0.00    +0.000 A 
ENDBRANCH  15  22
ENDBRANCH   1  15
TORSDOF 4
ENDMDL
MODEL 7
REMARK VINA RESULT:      -7.7      2.992      4.888
REMARK  Name = 
REMARK  6 active torsions:
REMARK  status: ('A' for Active; 'I' for Inactive)
REMARK    1  A    between atoms: C_1  and  C_2
REMARK    2  A    between atoms: C_5  and  S_6
REMARK    3  A    between atoms: S_6  and  N_9
REMARK    4  A    between atoms: N_9  and  C_10
REMARK    5  A    between atoms: C_13  and  O_14
REMARK    6  A    between atoms: C_21  and  C_22
REMARK                            x       y       z     vdW  Elec       q    Type
REMARK                         _______ _______ _______ _____ _____    ______ ____
ROOT
ATOM      1  N   UNL     1       3.050   7.286  19.122  0.00  0.00    +0.000 N 
ATOM      2  H   UNL     1       2.607   6.920  19.963  0.00  0.00    +0.000 HD
ENDROOT
BRANCH   1   3
ATOM      3  C   UNL     1       3.610   6.244  18.291  0.00  0.00    +0.000 A 
ATOM      4  C   UNL     1       4.716   6.581  17.504  0.00  0.00    +0.000 A 
ATOM      5  C   UNL     1       5.337   5.621  16.710  0.00  0.00    +0.000 A 
ATOM      6  C   UNL     1       4.840   4.320  16.696  0.00  0.00    +0.000 A 
ATOM      7  C   UNL     1       3.709   3.952  17.451  0.00  0.00    +0.000 A 
ATOM      8  C   UNL     1       3.198   2.636  17.421  0.00  0.00    +0.000 A 
ATOM      9  C   UNL     1       2.071   2.273  18.155  0.00  0.00    +0.000 A 
ATOM     10  C   UNL     1       1.428   3.222  18.935  0.00  0.00    +0.000 A 
ATOM     11  C   UNL     1       1.917   4.530  18.983  0.00  0.00    +0.000 A 
ATOM     12  C   UNL     1       3.066   4.929  18.257  0.00  0.00    +0.000 A 
BRANCH   6  13
ATOM     13  O   UNL     1       5.464   3.372  15.921  0.00  0.00    +0.000 OA
ATOM     14  H   UNL     1       4.837   3.036  15.259  0.00  0.00    +0.000 HD
ENDBRANCH   6  13
ENDBRANCH   1   3
BRANCH   1  15
ATOM     15  S   UNL     1       1.988   8.357  18.323  0.00  0.00    +0.000 S 
ATOM     16  O   UNL     1       1.060   7.538  17.569  0.00  0.00    +0.000 OA
ATOM     17  O   UNL     1       2.739   9.421  17.696  0.00  0.00    +0.000 OA
BRANCH  15  22
ATOM     18  C   UNL     1      -1.049  10.610  23.125  0.00  0.00    +0.000 C 
ATOM     19  C   UNL     1      -0.296  10.069  21.944  0.00  0.00    +0.000 A 
ATOM     20  C   UNL     1       0.739   9.148  22.105  0.00  0.00    +0.000 A 
ATOM     21  C   UNL     1       1.420   8.652  20.991  0.00  0.00    +0.000 A 
ATOM     22  C   UNL     1       1.074   9.070  19.693  0.00  0.00    +0.000 A 
ATOM     23  C   UNL     1       0.029   9.991  19.506  0.00  0.00    +0.000 A 
ATOM     24  C   UNL     1      -0.448  10.504  18.177  0.00  0.00    +0.000 C 
ATOM     25  C   UNL     1      -0.639  10.483  20.649  0.00  0.00    +0.000 A 
ENDBRANCH  15  22
ENDBRANCH   1  15
TORSDOF 4
ENDMDL
MODEL 8
REMARK VINA RESULT:      -7.6      2.108      5.785
REMARK  Name = 
REMARK  6 active torsions:
REMARK  status: ('A' for Active; 'I' for Inactive)
REMARK    1  A    between atoms: C_1  and  C_2
REMARK    2  A    between atoms: C_5  and  S_6
REMARK    3  A    between atoms: S_6  and  N_9
REMARK    4  A    between atoms: N_9  and  C_10
REMARK    5  A    between atoms: C_13  and  O_14
REMARK    6  A    between atoms: C_21  and  C_22
REMARK                            x       y       z     vdW  Elec       q    Type
REMARK                         _______ _______ _______ _____ _____    ______ ____
ROOT
ATOM      1  N   UNL     1       5.206   3.322  18.247  0.00  0.00    +0.000 N 
ATOM      2  H   UNL     1       5.763   3.790  18.960  0.00  0.00    +0.000 HD
ENDROOT
BRANCH   1   3
ATOM      3  C   UNL     1       3.827   3.152  18.644  0.00  0.00    +0.000 A 
ATOM      4  C   UNL     1       3.230   1.919  18.366  0.00  0.00    +0.000 A 
ATOM      5  C   UNL     1       1.918   1.664  18.756  0.00  0.00    +0.000 A 
ATOM      6  C   UNL     1       1.197   2.655  19.416  0.00  0.00    +0.000 A 
ATOM      7  C   UNL     1       1.754   3.921  19.685  0.00  0.00    +0.000 A 
ATOM      8  C   UNL     1       1.014   4.929  20.340  0.00  0.00    +0.000 A 
ATOM      9  C   UNL     1       1.557   6.186  20.594  0.00  0.00    +0.000 A 
ATOM     10  C   UNL     1       2.856   6.463  20.194  0.00  0.00    +0.000 A 
ATOM     11  C   UNL     1       3.609   5.480  19.547  0.00  0.00    +0.000 A 
ATOM     12  C   UNL     1       3.090   4.189  19.283  0.00  0.00    +0.000 A 
BRANCH   6  13
ATOM     13  O   UNL     1      -0.094   2.395  19.811  0.00  0.00    +0.000 OA
ATOM     14  H   UNL     1      -0.463   3.185  20.238  0.00  0.00    +0.000 HD
ENDBRANCH   6  13
ENDBRANCH   1   3
BRANCH   1  15
ATOM     15  S   UNL     1       5.437   4.080  16.736  0.00  0.00    +0.000 S 
ATOM     16  O   UNL     1       4.129   4.503  16.277  0.00  0.00    +0.000 OA
ATOM     17  O   UNL     1       6.306   3.275  15.908  0.00  0.00    +0.000 OA
BRANCH  15  22
ATOM     18  C   UNL     1       8.586   9.016  18.492  0.00  0.00    +0.000 C 
ATOM     19  C   UNL     1       7.820   7.803  18.048  0.00  0.00    +0.000 A 
ATOM     20  C   UNL     1       8.065   6.548  18.606  0.00  0.00    +0.000 A 
ATOM     21  C   UNL     1       7.334   5.435  18.183  0.00  0.00    +0.000 A 
ATOM     22  C   UNL     1       6.341   5.561  17.194  0.00  0.00    +0.000 A 
ATOM     23  C   UNL     1       6.072   6.818  16.624  0.00  0.00    +0.000 A 
ATOM     24  C   UNL     1       5.033   7.089  15.575  0.00  0.00    +0.000 C 
ATOM     25  C   UNL     1       6.830   7.925  17.063  0.00  0.00    +0.000 A 
ENDBRANCH  15  22
ENDBRANCH   1  15
TORSDOF 4
ENDMDL
MODEL 9
REMARK VINA RESULT:      -7.6      2.635      5.610
REMARK  Name = 
REMARK  6 active torsions:
REMARK  status: ('A' for Active; 'I' for Inactive)
REMARK    1  A    between atoms: C_1  and  C_2
REMARK    2  A    between atoms: C_5  and  S_6
REMARK    3  A    between atoms: S_6  and  N_9
REMARK    4  A    between atoms: N_9  and  C_10
REMARK    5  A    between atoms: C_13  and  O_14
REMARK    6  A    between atoms: C_21  and  C_22
REMARK                            x       y       z     vdW  Elec       q    Type
REMARK                         _______ _______ _______ _____ _____    ______ ____
ROOT
ATOM      1  N   UNL     1       4.767   5.254  16.806  0.00  0.00    +0.000 N 
ATOM      2  H   UNL     1       4.440   4.665  16.041  0.00  0.00    +0.000 HD
ENDROOT
BRANCH   1   3
ATOM      3  C   UNL     1       3.783   5.399  17.854  0.00  0.00    +0.000 A 
ATOM      4  C   UNL     1       3.714   6.638  18.498  0.00  0.00    +0.000 A 
ATOM      5  C   UNL     1       2.764   6.869  19.489  0.00  0.00    +0.000 A 
ATOM      6  C   UNL     1       1.886   5.848  19.845  0.00  0.00    +0.000 A 
ATOM      7  C   UNL     1       1.946   4.577  19.240  0.00  0.00    +0.000 A 
ATOM      8  C   UNL     1       1.064   3.540  19.615  0.00  0.00    +0.000 A 
ATOM      9  C   UNL     1       1.131   2.277  19.030  0.00  0.00    +0.000 A 
ATOM     10  C   UNL     1       2.085   2.025  18.056  0.00  0.00    +0.000 A 
ATOM     11  C   UNL     1       2.966   3.037  17.666  0.00  0.00    +0.000 A 
ATOM     12  C   UNL     1       2.918   4.333  18.234  0.00  0.00    +0.000 A 
BRANCH   6  13
ATOM     13  O   UNL     1       0.940   6.084  20.814  0.00  0.00    +0.000 OA
ATOM     14  H   UNL     1       0.323   5.335  20.848  0.00  0.00    +0.000 HD
ENDBRANCH   6  13
ENDBRANCH   1   3
BRANCH   1  15
ATOM     15  S   UNL     1       6.307   4.734  17.324  0.00  0.00    +0.000 S 
ATOM     16  O   UNL     1       6.988   4.216  16.155  0.00  0.00    +0.000 OA
ATOM     17  O   UNL     1       6.182   3.953  18.535  0.00  0.00    +0.000 OA
BRANCH  15  22
ATOM     18  C   UNL     1       8.965  10.093  18.579  0.00  0.00    +0.000 C 
ATOM     19  C   UNL     1       8.303   8.778  18.282  0.00  0.00    +0.000 A 
ATOM     20  C   UNL     1       7.433   8.633  17.201  0.00  0.00    +0.000 A 
ATOM     21  C   UNL     1       6.835   7.398  16.940  0.00  0.00    +0.000 A 
ATOM     22  C   UNL     1       7.101   6.284  17.756  0.00  0.00    +0.000 A 
ATOM     23  C   UNL     1       7.981   6.405  18.846  0.00  0.00    +0.000 A 
ATOM     24  C   UNL     1       8.359   5.293  19.782  0.00  0.00    +0.000 C 
ATOM     25  C   UNL     1       8.567   7.665  19.094  0.00  0.00    +0.000 A 
ENDBRANCH  15  22
ENDBRANCH   1  15
TORSDOF 4
ENDMDL
