MODEL 1
REMARK VINA RESULT:      -8.0      0.000      0.000
REMARK  Name = 
REMARK  8 active torsions:
REMARK  status: ('A' for Active; 'I' for Inactive)
REMARK    1  A    between atoms: C_1  and  O_2
REMARK    2  A    between atoms: O_2  and  C_3
REMARK    3  A    between atoms: C_7  and  C_8
REMARK    4  A    between atoms: N_10  and  C_11
REMARK    5  A    between atoms: C_14  and  C_15
REMARK    6  A    between atoms: C_16  and  O_17
REMARK    7  A    between atoms: O_17  and  C_18
REMARK    8  A    between atoms: C_22  and  C_24
REMARK                            x       y       z     vdW  Elec       q    Type
REMARK                         _______ _______ _______ _____ _____    ______ ____
ROOT
ATOM      1  C   UNL     1       3.401   3.684  17.179  0.00  0.00    +0.000 A 
ATOM      2  C   UNL     1       3.196   2.474  17.836  0.00  0.00    +0.000 A 
ATOM      3  C   UNL     1       2.466   2.428  19.027  0.00  0.00    +0.000 A 
ATOM      4  C   UNL     1       1.906   3.590  19.580  0.00  0.00    +0.000 A 
ATOM      5  C   UNL     1       1.109   3.477  20.847  0.00  0.00    +0.000 C 
ATOM      6  C   UNL     1       2.081   4.812  18.913  0.00  0.00    +0.000 A 
ATOM      7  C   UNL     1       2.872   4.854  17.749  0.00  0.00    +0.000 A 
ENDROOT
BRANCH   1  10
ATOM      8  C   UNL     1       5.419   4.221  15.798  0.00  0.00    +0.000 C 
ATOM      9  O   UNL     1       6.144   4.577  16.724  0.00  0.00    +0.000 OA
ATOM     10  N   UNL     1       4.101   3.796  15.945  0.00  0.00    +0.000 N 
ATOM     11  H   UNL     1       3.636   3.393  15.149  0.00  0.00    +0.000 HD
BRANCH   8  16
ATOM     12  C   UNL     1       6.253   3.347  12.153  0.00  0.00    +0.000 A 
ATOM     13  C   UNL     1       7.338   4.204  11.942  0.00  0.00    +0.000 A 
ATOM     14  C   UNL     1       7.771   5.051  12.959  0.00  0.00    +0.000 A 
ATOM     15  C   UNL     1       7.128   5.032  14.191  0.00  0.00    +0.000 A 
ATOM     16  C   UNL     1       6.025   4.183  14.425  0.00  0.00    +0.000 A 
ATOM     17  C   UNL     1       5.582   3.353  13.382  0.00  0.00    +0.000 A 
BRANCH  12  19
ATOM     18  C   UNL     1       6.411   1.212  11.097  0.00  0.00    +0.000 C 
ATOM     19  O   UNL     1       5.960   2.557  11.075  0.00  0.00    +0.000 OA
ENDBRANCH  12  19
ENDBRANCH   8  16
ENDBRANCH   1  10
BRANCH   6  20
ATOM     20  O   UNL     1       1.479   5.932  19.459  0.00  0.00    +0.000 OA
BRANCH  20  21
ATOM     21  C   UNL     1       2.389   6.954  19.920  0.00  0.00    +0.000 C 
ATOM     22  C   UNL     1       1.808   7.702  21.114  0.00  0.00    +0.000 C 
ATOM     23  C   UNL     1       0.679   8.645  20.743  0.00  0.00    +0.000 C 
ATOM     24  N   UNL     1       0.974   9.551  19.642  0.00  0.00    +0.000 N 
ATOM     25  C   UNL     1       0.323  10.793  19.454  0.00  0.00    +0.000 C 
ATOM     26  O   UNL     1       0.523  11.502  18.469  0.00  0.00    +0.000 OA
ATOM     27  C   UNL     1       1.603   8.944  18.468  0.00  0.00    +0.000 C 
ATOM     28  C   UNL     1       2.717   7.949  18.799  0.00  0.00    +0.000 C 
BRANCH  25  29
ATOM     29  C   UNL     1      -0.619  11.318  20.481  0.00  0.00    +0.000 A 
ATOM     30  C   UNL     1      -0.331  11.364  21.846  0.00  0.00    +0.000 A 
ATOM     31  C   UNL     1      -1.211  11.991  22.725  0.00  0.00    +0.000 A 
ATOM     32  C   UNL     1      -2.405  12.473  22.222  0.00  0.00    +0.000 A 
ATOM     33  N   UNL     1      -2.770  12.354  20.926  0.00  0.00    +0.000 NA
ATOM     34  C   UNL     1      -1.872  11.772  20.085  0.00  0.00    +0.000 A 
ENDBRANCH  25  29
ENDBRANCH  20  21
ENDBRANCH   6  20
TORSDOF 6
ENDMDL
MODEL 2
REMARK VINA RESULT:      -8.0      4.014      6.835
REMARK  Name = 
REMARK  8 active torsions:
REMARK  status: ('A' for Active; 'I' for Inactive)
REMARK    1  A    between atoms: C_1  and  O_2
REMARK    2  A    between atoms: O_2  and  C_3
REMARK    3  A    between atoms: C_7  and  C_8
REMARK    4  A    between atoms: N_10  and  C_11
REMARK    5  A    between atoms: C_14  and  C_15
REMARK    6  A    between atoms: C_16  and  O_17
REMARK    7  A    between atoms: O_17  and  C_18
REMARK    8  A    between atoms: C_22  and  C_24
REMARK                            x       y       z     vdW  Elec       q    Type
REMARK                         _______ _______ _______ _____ _____    ______ ____
ROOT
ATOM      1  C   UNL     1       1.364   8.560  20.862  0.00  0.00    +0.000 A 
ATOM      2  C   UNL     1       0.850   8.303  22.130  0.00  0.00    +0.000 A 
ATOM      3  C   UNL     1       0.023   9.235  22.764  0.00  0.00    +0.000 A 
ATOM      4  C   UNL     1      -0.325  10.441  22.135  0.00  0.00    +0.000 A 
ATOM      5  C   UNL     1      -1.236  11.395  22.853  0.00  0.00    +0.000 C 
ATOM      6  C   UNL     1       0.163  10.700  20.845  0.00  0.00    +0.000 A 
ATOM      7  C   UNL     1       1.045   9.782  20.245  0.00  0.00    +0.000 A 
ENDROOT
BRANCH   1  10
ATOM      8  C   UNL     1       2.044   6.253  20.169  0.00  0.00    +0.000 C 
ATOM      9  O   UNL     1       1.211   5.644  20.836  0.00  0.00    +0.000 OA
ATOM     10  N   UNL     1       2.177   7.639  20.145  0.00  0.00    +0.000 N 
ATOM     11  H   UNL     1       2.793   8.050  19.463  0.00  0.00    +0.000 HD
BRANCH   8  16
ATOM     12  C   UNL     1       5.068   4.552  18.522  0.00  0.00    +0.000 A 
ATOM     13  C   UNL     1       4.437   3.940  17.435  0.00  0.00    +0.000 A 
ATOM     14  C   UNL     1       3.062   4.070  17.258  0.00  0.00    +0.000 A 
ATOM     15  C   UNL     1       2.320   4.823  18.159  0.00  0.00    +0.000 A 
ATOM     16  C   UNL     1       2.931   5.442  19.270  0.00  0.00    +0.000 A 
ATOM     17  C   UNL     1       4.315   5.281  19.452  0.00  0.00    +0.000 A 
BRANCH  12  19
ATOM     18  C   UNL     1       7.159   4.660  17.378  0.00  0.00    +0.000 C 
ATOM     19  O   UNL     1       6.422   4.359  18.552  0.00  0.00    +0.000 OA
ENDBRANCH  12  19
ENDBRANCH   8  16
ENDBRANCH   1  10
BRANCH   6  20
ATOM     20  O   UNL     1      -0.234  11.877  20.234  0.00  0.00    +0.000 OA
BRANCH  20  21
ATOM     21  C   UNL     1       0.283  12.081  18.901  0.00  0.00    +0.000 C 
ATOM     22  C   UNL     1       1.767  12.422  18.939  0.00  0.00    +0.000 C 
ATOM     23  C   UNL     1       2.050  13.827  19.440  0.00  0.00    +0.000 C 
ATOM     24  N   UNL     1       1.280  14.876  18.787  0.00  0.00    +0.000 N 
ATOM     25  C   UNL     1       1.700  16.226  18.713  0.00  0.00    +0.000 C 
ATOM     26  O   UNL     1       0.995  17.113  18.236  0.00  0.00    +0.000 OA
ATOM     27  C   UNL     1      -0.152  14.616  18.634  0.00  0.00    +0.000 C 
ATOM     28  C   UNL     1      -0.484  13.194  18.176  0.00  0.00    +0.000 C 
BRANCH  25  29
ATOM     29  C   UNL     1       3.056  16.623  19.185  0.00  0.00    +0.000 A 
ATOM     30  C   UNL     1       4.223  16.422  18.447  0.00  0.00    +0.000 A 
ATOM     31  C   UNL     1       5.435  16.942  18.900  0.00  0.00    +0.000 A 
ATOM     32  C   UNL     1       5.457  17.569  20.132  0.00  0.00    +0.000 A 
ATOM     33  N   UNL     1       4.370  17.691  20.926  0.00  0.00    +0.000 NA
ATOM     34  C   UNL     1       3.194  17.208  20.438  0.00  0.00    +0.000 A 
ENDBRANCH  25  29
ENDBRANCH  20  21
ENDBRANCH   6  20
TORSDOF 6
ENDMDL
MODEL 3
REMARK VINA RESULT:      -7.9      4.268      7.801
REMARK  Name = 
REMARK  8 active torsions:
REMARK  status: ('A' for Active; 'I' for Inactive)
REMARK    1  A    between atoms: C_1  and  O_2
REMARK    2  A    between atoms: O_2  and  C_3
REMARK    3  A    between atoms: C_7  and  C_8
REMARK    4  A    between atoms: N_10  and  C_11
REMARK    5  A    between atoms: C_14  and  C_15
REMARK    6  A    between atoms: C_16  and  O_17
REMARK    7  A    between atoms: O_17  and  C_18
REMARK    8  A    between atoms: C_22  and  C_24
REMARK                            x       y       z     vdW  Elec       q    Type
REMARK                         _______ _______ _______ _____ _____    ______ ____
ROOT
ATOM      1  C   UNL     1       0.666   9.152  21.594  0.00  0.00    +0.000 A 
ATOM      2  C   UNL     1      -0.247   9.086  22.642  0.00  0.00    +0.000 A 
ATOM      3  C   UNL     1      -0.887  10.240  23.101  0.00  0.00    +0.000 A 
ATOM      4  C   UNL     1      -0.642  11.489  22.509  0.00  0.00    +0.000 A 
ATOM      5  C   UNL     1      -1.376  12.692  23.026  0.00  0.00    +0.000 C 
ATOM      6  C   UNL     1       0.256  11.566  21.432  0.00  0.00    +0.000 A 
ATOM      7  C   UNL     1       0.940  10.406  21.023  0.00  0.00    +0.000 A 
ENDROOT
BRANCH   1  10
ATOM      8  C   UNL     1       1.778   7.885  19.744  0.00  0.00    +0.000 C 
ATOM      9  O   UNL     1       1.650   8.745  18.875  0.00  0.00    +0.000 OA
ATOM     10  N   UNL     1       1.322   8.011  21.054  0.00  0.00    +0.000 N 
ATOM     11  H   UNL     1       1.598   7.314  21.726  0.00  0.00    +0.000 HD
BRANCH   8  16
ATOM     12  C   UNL     1       3.321   4.368  19.729  0.00  0.00    +0.000 A 
ATOM     13  C   UNL     1       4.085   4.446  18.559  0.00  0.00    +0.000 A 
ATOM     14  C   UNL     1       4.081   5.609  17.795  0.00  0.00    +0.000 A 
ATOM     15  C   UNL     1       3.324   6.700  18.205  0.00  0.00    +0.000 A 
ATOM     16  C   UNL     1       2.537   6.644  19.376  0.00  0.00    +0.000 A 
ATOM     17  C   UNL     1       2.530   5.454  20.123  0.00  0.00    +0.000 A 
BRANCH  12  19
ATOM     18  C   UNL     1       2.431   2.824  21.315  0.00  0.00    +0.000 C 
ATOM     19  O   UNL     1       3.444   3.176  20.387  0.00  0.00    +0.000 OA
ENDBRANCH  12  19
ENDBRANCH   8  16
ENDBRANCH   1  10
BRANCH   6  20
ATOM     20  O   UNL     1       0.442  12.803  20.841  0.00  0.00    +0.000 OA
BRANCH  20  21
ATOM     21  C   UNL     1       0.585  12.780  19.404  0.00  0.00    +0.000 C 
ATOM     22  C   UNL     1       2.042  12.580  19.005  0.00  0.00    +0.000 C 
ATOM     23  C   UNL     1       2.904  13.808  19.236  0.00  0.00    +0.000 C 
ATOM     24  N   UNL     1       2.368  15.044  18.685  0.00  0.00    +0.000 N 
ATOM     25  C   UNL     1       3.168  16.158  18.336  0.00  0.00    +0.000 C 
ATOM     26  O   UNL     1       2.688  17.224  17.956  0.00  0.00    +0.000 OA
ATOM     27  C   UNL     1       0.951  15.299  18.949  0.00  0.00    +0.000 C 
ATOM     28  C   UNL     1       0.052  14.074  18.775  0.00  0.00    +0.000 C 
BRANCH  25  29
ATOM     29  C   UNL     1       4.654  16.066  18.379  0.00  0.00    +0.000 A 
ATOM     30  C   UNL     1       5.469  16.983  19.044  0.00  0.00    +0.000 A 
ATOM     31  C   UNL     1       6.840  16.753  19.148  0.00  0.00    +0.000 A 
ATOM     32  C   UNL     1       7.369  15.652  18.499  0.00  0.00    +0.000 A 
ATOM     33  N   UNL     1       6.630  14.799  17.757  0.00  0.00    +0.000 NA
ATOM     34  C   UNL     1       5.290  15.028  17.706  0.00  0.00    +0.000 A 
ENDBRANCH  25  29
ENDBRANCH  20  21
ENDBRANCH   6  20
TORSDOF 6
ENDMDL
MODEL 4
REMARK VINA RESULT:      -7.9      1.101      1.398
REMARK  Name = 
REMARK  8 active torsions:
REMARK  status: ('A' for Active; 'I' for Inactive)
REMARK    1  A    between atoms: C_1  and  O_2
REMARK    2  A    between atoms: O_2  and  C_3
REMARK    3  A    between atoms: C_7  and  C_8
REMARK    4  A    between atoms: N_10  and  C_11
REMARK    5  A    between atoms: C_14  and  C_15
REMARK    6  A    between atoms: C_16  and  O_17
REMARK    7  A    between atoms: O_17  and  C_18
REMARK    8  A    between atoms: C_22  and  C_24
REMARK                            x       y       z     vdW  Elec       q    Type
REMARK                         _______ _______ _______ _____ _____    ______ ____
ROOT
ATOM      1  C   UNL     1       3.490   3.228  17.467  0.00  0.00    +0.000 A 
ATOM      2  C   UNL     1       3.397   2.012  18.139  0.00  0.00    +0.000 A 
ATOM      3  C   UNL     1       2.705   1.920  19.349  0.00  0.00    +0.000 A 
ATOM      4  C   UNL     1       2.073   3.041  19.910  0.00  0.00    +0.000 A 
ATOM      5  C   UNL     1       1.323   2.879  21.200  0.00  0.00    +0.000 C 
ATOM      6  C   UNL     1       2.135   4.267  19.229  0.00  0.00    +0.000 A 
ATOM      7  C   UNL     1       2.887   4.358  18.044  0.00  0.00    +0.000 A 
ENDROOT
BRANCH   1  10
ATOM      8  C   UNL     1       5.223   4.226  15.962  0.00  0.00    +0.000 C 
ATOM      9  O   UNL     1       5.738   4.966  16.797  0.00  0.00    +0.000 OA
ATOM     10  N   UNL     1       4.144   3.382  16.213  0.00  0.00    +0.000 N 
ATOM     11  H   UNL     1       3.884   2.713  15.507  0.00  0.00    +0.000 HD
BRANCH   8  16
ATOM     12  C   UNL     1       6.072   3.388  12.311  0.00  0.00    +0.000 A 
ATOM     13  C   UNL     1       7.204   4.191  12.138  0.00  0.00    +0.000 A 
ATOM     14  C   UNL     1       7.663   4.991  13.180  0.00  0.00    +0.000 A 
ATOM     15  C   UNL     1       6.999   4.979  14.401  0.00  0.00    +0.000 A 
ATOM     16  C   UNL     1       5.849   4.185  14.599  0.00  0.00    +0.000 A 
ATOM     17  C   UNL     1       5.381   3.403  13.529  0.00  0.00    +0.000 A 
BRANCH  12  19
ATOM     18  C   UNL     1       6.102   1.264  11.225  0.00  0.00    +0.000 C 
ATOM     19  O   UNL     1       5.755   2.639  11.212  0.00  0.00    +0.000 OA
ENDBRANCH  12  19
ENDBRANCH   8  16
ENDBRANCH   1  10
BRANCH   6  20
ATOM     20  O   UNL     1       1.463   5.342  19.784  0.00  0.00    +0.000 OA
BRANCH  20  21
ATOM     21  C   UNL     1       2.308   6.360  20.364  0.00  0.00    +0.000 C 
ATOM     22  C   UNL     1       1.474   7.428  21.061  0.00  0.00    +0.000 C 
ATOM     23  C   UNL     1       0.747   8.348  20.098  0.00  0.00    +0.000 C 
ATOM     24  N   UNL     1       1.582   8.925  19.053  0.00  0.00    +0.000 N 
ATOM     25  C   UNL     1       1.279  10.136  18.387  0.00  0.00    +0.000 C 
ATOM     26  O   UNL     1       1.948  10.560  17.447  0.00  0.00    +0.000 OA
ATOM     27  C   UNL     1       2.478   7.993  18.366  0.00  0.00    +0.000 C 
ATOM     28  C   UNL     1       3.196   7.015  19.297  0.00  0.00    +0.000 C 
BRANCH  25  29
ATOM     29  C   UNL     1       0.136  10.980  18.834  0.00  0.00    +0.000 A 
ATOM     30  C   UNL     1      -1.161  10.858  18.335  0.00  0.00    +0.000 A 
ATOM     31  C   UNL     1      -2.200  11.595  18.900  0.00  0.00    +0.000 A 
ATOM     32  C   UNL     1      -1.891  12.507  19.892  0.00  0.00    +0.000 A 
ATOM     33  N   UNL     1      -0.632  12.732  20.331  0.00  0.00    +0.000 NA
ATOM     34  C   UNL     1       0.355  11.970  19.787  0.00  0.00    +0.000 A 
ENDBRANCH  25  29
ENDBRANCH  20  21
ENDBRANCH   6  20
TORSDOF 6
ENDMDL
MODEL 5
REMARK VINA RESULT:      -7.9      2.190     10.357
REMARK  Name = 
REMARK  8 active torsions:
REMARK  status: ('A' for Active; 'I' for Inactive)
REMARK    1  A    between atoms: C_1  and  O_2
REMARK    2  A    between atoms: O_2  and  C_3
REMARK    3  A    between atoms: C_7  and  C_8
REMARK    4  A    between atoms: N_10  and  C_11
REMARK    5  A    between atoms: C_14  and  C_15
REMARK    6  A    between atoms: C_16  and  O_17
REMARK    7  A    between atoms: O_17  and  C_18
REMARK    8  A    between atoms: C_22  and  C_24
REMARK                            x       y       z     vdW  Elec       q    Type
REMARK                         _______ _______ _______ _____ _____    ______ ____
ROOT
ATOM      1  C   UNL     1       2.011   5.928  20.679  0.00  0.00    +0.000 A 
ATOM      2  C   UNL     1       1.643   4.609  20.927  0.00  0.00    +0.000 A 
ATOM      3  C   UNL     1       2.407   3.552  20.425  0.00  0.00    +0.000 A 
ATOM      4  C   UNL     1       3.570   3.789  19.676  0.00  0.00    +0.000 A 
ATOM      5  C   UNL     1       4.366   2.616  19.183  0.00  0.00    +0.000 C 
ATOM      6  C   UNL     1       3.968   5.115  19.442  0.00  0.00    +0.000 A 
ATOM      7  C   UNL     1       3.155   6.169  19.899  0.00  0.00    +0.000 A 
ENDROOT
BRANCH   1  10
ATOM      8  C   UNL     1       1.196   8.292  20.573  0.00  0.00    +0.000 C 
ATOM      9  O   UNL     1       1.726   8.587  19.504  0.00  0.00    +0.000 OA
ATOM     10  N   UNL     1       1.302   7.049  21.192  0.00  0.00    +0.000 N 
ATOM     11  H   UNL     1       0.719   6.861  21.991  0.00  0.00    +0.000 HD
BRANCH   8  16
ATOM     12  C   UNL     1      -1.041  11.345  21.228  0.00  0.00    +0.000 A 
ATOM     13  C   UNL     1      -1.222  11.218  22.610  0.00  0.00    +0.000 A 
ATOM     14  C   UNL     1      -0.641  10.157  23.299  0.00  0.00    +0.000 A 
ATOM     15  C   UNL     1       0.132   9.230  22.611  0.00  0.00    +0.000 A 
ATOM     16  C   UNL     1       0.322   9.330  21.216  0.00  0.00    +0.000 A 
ATOM     17  C   UNL     1      -0.292  10.391  20.529  0.00  0.00    +0.000 A 
BRANCH  12  19
ATOM     18  C   UNL     1      -2.385  12.281  19.493  0.00  0.00    +0.000 C 
ATOM     19  O   UNL     1      -1.648  12.447  20.694  0.00  0.00    +0.000 OA
ENDBRANCH  12  19
ENDBRANCH   8  16
ENDBRANCH   1  10
BRANCH   6  20
ATOM     20  O   UNL     1       5.143   5.316  18.739  0.00  0.00    +0.000 OA
BRANCH  20  21
ATOM     21  C   UNL     1       5.093   6.365  17.748  0.00  0.00    +0.000 C 
ATOM     22  C   UNL     1       4.296   5.923  16.527  0.00  0.00    +0.000 C 
ATOM     23  C   UNL     1       5.030   4.916  15.661  0.00  0.00    +0.000 C 
ATOM     24  N   UNL     1       6.389   5.294  15.299  0.00  0.00    +0.000 N 
ATOM     25  C   UNL     1       7.059   4.805  14.152  0.00  0.00    +0.000 C 
ATOM     26  O   UNL     1       8.236   5.066  13.913  0.00  0.00    +0.000 OA
ATOM     27  C   UNL     1       7.221   5.802  16.391  0.00  0.00    +0.000 C 
ATOM     28  C   UNL     1       6.504   6.786  17.317  0.00  0.00    +0.000 C 
BRANCH  25  29
ATOM     29  C   UNL     1       6.337   3.971  13.151  0.00  0.00    +0.000 A 
ATOM     30  C   UNL     1       4.970   4.079  12.894  0.00  0.00    +0.000 A 
ATOM     31  C   UNL     1       4.396   3.356  11.849  0.00  0.00    +0.000 A 
ATOM     32  C   UNL     1       5.196   2.470  11.151  0.00  0.00    +0.000 A 
ATOM     33  N   UNL     1       6.499   2.258  11.438  0.00  0.00    +0.000 NA
ATOM     34  C   UNL     1       7.040   3.007  12.437  0.00  0.00    +0.000 A 
ENDBRANCH  25  29
ENDBRANCH  20  21
ENDBRANCH   6  20
TORSDOF 6
ENDMDL
MODEL 6
REMARK VINA RESULT:      -7.9      3.789      6.757
REMARK  Name = 
REMARK  8 active torsions:
REMARK  status: ('A' for Active; 'I' for Inactive)
REMARK    1  A    between atoms: C_1  and  O_2
REMARK    2  A    between atoms: O_2  and  C_3
REMARK    3  A    between atoms: C_7  and  C_8
REMARK    4  A    between atoms: N_10  and  C_11
REMARK    5  A    between atoms: C_14  and  C_15
REMARK    6  A    between atoms: C_16  and  O_17
REMARK    7  A    between atoms: O_17  and  C_18
REMARK    8  A    between atoms: C_22  and  C_24
REMARK                            x       y       z     vdW  Elec       q    Type
REMARK                         _______ _______ _______ _____ _____    ______ ____
ROOT
ATOM      1  C   UNL     1       1.716   9.528  17.908  0.00  0.00    +0.000 A 
ATOM      2  C   UNL     1       2.272  10.766  18.217  0.00  0.00    +0.000 A 
ATOM      3  C   UNL     1       1.464  11.820  18.651  0.00  0.00    +0.000 A 
ATOM      4  C   UNL     1       0.079  11.655  18.806  0.00  0.00    +0.000 A 
ATOM      5  C   UNL     1      -0.738  12.814  19.300  0.00  0.00    +0.000 C 
ATOM      6  C   UNL     1      -0.492  10.404  18.525  0.00  0.00    +0.000 A 
ATOM      7  C   UNL     1       0.325   9.371  18.028  0.00  0.00    +0.000 A 
ENDROOT
BRANCH   1  10
ATOM      8  C   UNL     1       2.824   7.319  18.303  0.00  0.00    +0.000 C 
ATOM      9  O   UNL     1       2.516   7.206  19.488  0.00  0.00    +0.000 OA
ATOM     10  N   UNL     1       2.485   8.403  17.498  0.00  0.00    +0.000 N 
ATOM     11  H   UNL     1       2.660   8.339  16.509  0.00  0.00    +0.000 HD
BRANCH   8  16
ATOM     12  C   UNL     1       4.040   3.818  17.295  0.00  0.00    +0.000 A 
ATOM     13  C   UNL     1       5.102   4.166  16.454  0.00  0.00    +0.000 A 
ATOM     14  C   UNL     1       5.398   5.505  16.214  0.00  0.00    +0.000 A 
ATOM     15  C   UNL     1       4.642   6.497  16.826  0.00  0.00    +0.000 A 
ATOM     16  C   UNL     1       3.560   6.173  17.672  0.00  0.00    +0.000 A 
ATOM     17  C   UNL     1       3.255   4.817  17.884  0.00  0.00    +0.000 A 
BRANCH  12  19
ATOM     18  C   UNL     1       2.949   2.020  18.422  0.00  0.00    +0.000 C 
ATOM     19  O   UNL     1       3.886   2.469  17.456  0.00  0.00    +0.000 OA
ENDBRANCH  12  19
ENDBRANCH   8  16
ENDBRANCH   1  10
BRANCH   6  20
ATOM     20  O   UNL     1      -1.853  10.260  18.730  0.00  0.00    +0.000 OA
BRANCH  20  21
ATOM     21  C   UNL     1      -2.630  10.009  17.539  0.00  0.00    +0.000 C 
ATOM     22  C   UNL     1      -2.959  11.312  16.819  0.00  0.00    +0.000 C 
ATOM     23  C   UNL     1      -4.012  12.143  17.529  0.00  0.00    +0.000 C 
ATOM     24  N   UNL     1      -5.221  11.417  17.893  0.00  0.00    +0.000 N 
ATOM     25  C   UNL     1      -6.478  12.038  18.086  0.00  0.00    +0.000 C 
ATOM     26  O   UNL     1      -7.466  11.422  18.480  0.00  0.00    +0.000 OA
ATOM     27  C   UNL     1      -5.016  10.115  18.528  0.00  0.00    +0.000 C 
ATOM     28  C   UNL     1      -3.928   9.263  17.872  0.00  0.00    +0.000 C 
BRANCH  25  29
ATOM     29  C   UNL     1      -6.665  13.482  17.776  0.00  0.00    +0.000 A 
ATOM     30  C   UNL     1      -6.939  13.972  16.498  0.00  0.00    +0.000 A 
ATOM     31  C   UNL     1      -7.231  15.322  16.315  0.00  0.00    +0.000 A 
ATOM     32  C   UNL     1      -7.149  16.164  17.409  0.00  0.00    +0.000 A 
ATOM     33  N   UNL     1      -6.784  15.748  18.642  0.00  0.00    +0.000 NA
ATOM     34  C   UNL     1      -6.542  14.418  18.797  0.00  0.00    +0.000 A 
ENDBRANCH  25  29
ENDBRANCH  20  21
ENDBRANCH   6  20
TORSDOF 6
ENDMDL
MODEL 7
REMARK VINA RESULT:      -7.9      4.873      7.655
REMARK  Name = 
REMARK  8 active torsions:
REMARK  status: ('A' for Active; 'I' for Inactive)
REMARK    1  A    between atoms: C_1  and  O_2
REMARK    2  A    between atoms: O_2  and  C_3
REMARK    3  A    between atoms: C_7  and  C_8
REMARK    4  A    between atoms: N_10  and  C_11
REMARK    5  A    between atoms: C_14  and  C_15
REMARK    6  A    between atoms: C_16  and  O_17
REMARK    7  A    between atoms: O_17  and  C_18
REMARK    8  A    between atoms: C_22  and  C_24
REMARK                            x       y       z     vdW  Elec       q    Type
REMARK                         _______ _______ _______ _____ _____    ______ ____
ROOT
ATOM      1  C   UNL     1       0.978   9.809  18.233  0.00  0.00    +0.000 A 
ATOM      2  C   UNL     1      -0.402   9.735  18.061  0.00  0.00    +0.000 A 
ATOM      3  C   UNL     1      -1.227  10.781  18.482  0.00  0.00    +0.000 A 
ATOM      4  C   UNL     1      -0.690  11.937  19.070  0.00  0.00    +0.000 A 
ATOM      5  C   UNL     1      -1.622  13.040  19.480  0.00  0.00    +0.000 C 
ATOM      6  C   UNL     1       0.701  12.037  19.224  0.00  0.00    +0.000 A 
ATOM      7  C   UNL     1       1.515  10.949  18.854  0.00  0.00    +0.000 A 
ENDROOT
BRANCH   1  10
ATOM      8  C   UNL     1       2.380   7.765  18.578  0.00  0.00    +0.000 C 
ATOM      9  O   UNL     1       2.124   7.606  19.770  0.00  0.00    +0.000 OA
ATOM     10  N   UNL     1       1.877   8.799  17.793  0.00  0.00    +0.000 N 
ATOM     11  H   UNL     1       2.032   8.763  16.799  0.00  0.00    +0.000 HD
BRANCH   8  16
ATOM     12  C   UNL     1       5.133   5.981  16.580  0.00  0.00    +0.000 A 
ATOM     13  C   UNL     1       4.687   4.659  16.685  0.00  0.00    +0.000 A 
ATOM     14  C   UNL     1       3.530   4.363  17.400  0.00  0.00    +0.000 A 
ATOM     15  C   UNL     1       2.810   5.390  18.000  0.00  0.00    +0.000 A 
ATOM     16  C   UNL     1       3.244   6.730  17.917  0.00  0.00    +0.000 A 
ATOM     17  C   UNL     1       4.428   7.011  17.215  0.00  0.00    +0.000 A 
BRANCH  12  19
ATOM     18  C   UNL     1       6.789   4.963  15.197  0.00  0.00    +0.000 C 
ATOM     19  O   UNL     1       6.266   6.121  15.827  0.00  0.00    +0.000 OA
ENDBRANCH  12  19
ENDBRANCH   8  16
ENDBRANCH   1  10
BRANCH   6  20
ATOM     20  O   UNL     1       1.203  13.207  19.766  0.00  0.00    +0.000 OA
BRANCH  20  21
ATOM     21  C   UNL     1       1.420  14.277  18.820  0.00  0.00    +0.000 C 
ATOM     22  C   UNL     1       2.730  14.081  18.067  0.00  0.00    +0.000 C 
ATOM     23  C   UNL     1       3.959  14.360  18.913  0.00  0.00    +0.000 C 
ATOM     24  N   UNL     1       3.938  15.632  19.621  0.00  0.00    +0.000 N 
ATOM     25  C   UNL     1       5.106  16.316  20.037  0.00  0.00    +0.000 C 
ATOM     26  O   UNL     1       5.066  17.343  20.712  0.00  0.00    +0.000 OA
ATOM     27  C   UNL     1       2.694  15.952  20.322  0.00  0.00    +0.000 C 
ATOM     28  C   UNL     1       1.428  15.641  19.521  0.00  0.00    +0.000 C 
BRANCH  25  29
ATOM     29  C   UNL     1       6.454  15.828  19.632  0.00  0.00    +0.000 A 
ATOM     30  C   UNL     1       7.209  14.925  20.381  0.00  0.00    +0.000 A 
ATOM     31  C   UNL     1       8.401  14.417  19.868  0.00  0.00    +0.000 A 
ATOM     32  C   UNL     1       8.851  14.903  18.654  0.00  0.00    +0.000 A 
ATOM     33  N   UNL     1       8.203  15.856  17.948  0.00  0.00    +0.000 NA
ATOM     34  C   UNL     1       7.023  16.304  18.456  0.00  0.00    +0.000 A 
ENDBRANCH  25  29
ENDBRANCH  20  21
ENDBRANCH   6  20
TORSDOF 6
ENDMDL
MODEL 8
REMARK VINA RESULT:      -7.9      3.265     12.074
REMARK  Name = 
REMARK  8 active torsions:
REMARK  status: ('A' for Active; 'I' for Inactive)
REMARK    1  A    between atoms: C_1  and  O_2
REMARK    2  A    between atoms: O_2  and  C_3
REMARK    3  A    between atoms: C_7  and  C_8
REMARK    4  A    between atoms: N_10  and  C_11
REMARK    5  A    between atoms: C_14  and  C_15
REMARK    6  A    between atoms: C_16  and  O_17
REMARK    7  A    between atoms: O_17  and  C_18
REMARK    8  A    between atoms: C_22  and  C_24
REMARK                            x       y       z     vdW  Elec       q    Type
REMARK                         _______ _______ _______ _____ _____    ______ ____
ROOT
ATOM      1  C   UNL     1      -2.205  12.311  19.937  0.00  0.00    +0.000 A 
ATOM      2  C   UNL     1      -3.373  12.236  19.184  0.00  0.00    +0.000 A 
ATOM      3  C   UNL     1      -3.464  11.361  18.098  0.00  0.00    +0.000 A 
ATOM      4  C   UNL     1      -2.392  10.525  17.750  0.00  0.00    +0.000 A 
ATOM      5  C   UNL     1      -2.553   9.586  16.589  0.00  0.00    +0.000 C 
ATOM      6  C   UNL     1      -1.217  10.570  18.517  0.00  0.00    +0.000 A 
ATOM      7  C   UNL     1      -1.118  11.500  19.568  0.00  0.00    +0.000 A 
ENDROOT
BRANCH   1  10
ATOM      8  C   UNL     1      -2.780  13.035  22.263  0.00  0.00    +0.000 C 
ATOM      9  O   UNL     1      -3.656  12.198  22.468  0.00  0.00    +0.000 OA
ATOM     10  N   UNL     1      -2.060  13.150  21.076  0.00  0.00    +0.000 N 
ATOM     11  H   UNL     1      -1.269  13.773  21.055  0.00  0.00    +0.000 HD
BRANCH   8  16
ATOM     12  C   UNL     1      -0.978  15.500  24.592  0.00  0.00    +0.000 A 
ATOM     13  C   UNL     1      -1.897  15.549  25.646  0.00  0.00    +0.000 A 
ATOM     14  C   UNL     1      -3.074  14.809  25.586  0.00  0.00    +0.000 A 
ATOM     15  C   UNL     1      -3.328  14.009  24.479  0.00  0.00    +0.000 A 
ATOM     16  C   UNL     1      -2.423  13.949  23.398  0.00  0.00    +0.000 A 
ATOM     17  C   UNL     1      -1.251  14.722  23.460  0.00  0.00    +0.000 A 
BRANCH  12  19
ATOM     18  C   UNL     1       0.167  17.096  25.947  0.00  0.00    +0.000 C 
ATOM     19  O   UNL     1       0.141  16.257  24.803  0.00  0.00    +0.000 OA
ENDBRANCH  12  19
ENDBRANCH   8  16
ENDBRANCH   1  10
BRANCH   6  20
ATOM     20  O   UNL     1      -0.195   9.701  18.176  0.00  0.00    +0.000 OA
BRANCH  20  21
ATOM     21  C   UNL     1       1.062   9.941  18.845  0.00  0.00    +0.000 C 
ATOM     22  C   UNL     1       2.227   9.403  18.023  0.00  0.00    +0.000 C 
ATOM     23  C   UNL     1       2.323   7.888  18.033  0.00  0.00    +0.000 C 
ATOM     24  N   UNL     1       2.281   7.281  19.356  0.00  0.00    +0.000 N 
ATOM     25  C   UNL     1       2.834   6.013  19.654  0.00  0.00    +0.000 C 
ATOM     26  O   UNL     1       2.711   5.479  20.754  0.00  0.00    +0.000 OA
ATOM     27  C   UNL     1       1.239   7.781  20.254  0.00  0.00    +0.000 C 
ATOM     28  C   UNL     1       1.077   9.301  20.239  0.00  0.00    +0.000 C 
BRANCH  25  29
ATOM     29  C   UNL     1       3.637   5.280  18.636  0.00  0.00    +0.000 A 
ATOM     30  C   UNL     1       3.102   4.335  17.759  0.00  0.00    +0.000 A 
ATOM     31  C   UNL     1       3.894   3.791  16.749  0.00  0.00    +0.000 A 
ATOM     32  C   UNL     1       5.231   4.142  16.706  0.00  0.00    +0.000 A 
ATOM     33  N   UNL     1       5.813   4.971  17.600  0.00  0.00    +0.000 NA
ATOM     34  C   UNL     1       5.005   5.516  18.551  0.00  0.00    +0.000 A 
ENDBRANCH  25  29
ENDBRANCH  20  21
ENDBRANCH   6  20
TORSDOF 6
ENDMDL
MODEL 9
REMARK VINA RESULT:      -7.8      4.169      6.702
REMARK  Name = 
REMARK  8 active torsions:
REMARK  status: ('A' for Active; 'I' for Inactive)
REMARK    1  A    between atoms: C_1  and  O_2
REMARK    2  A    between atoms: O_2  and  C_3
REMARK    3  A    between atoms: C_7  and  C_8
REMARK    4  A    between atoms: N_10  and  C_11
REMARK    5  A    between atoms: C_14  and  C_15
REMARK    6  A    between atoms: C_16  and  O_17
REMARK    7  A    between atoms: O_17  and  C_18
REMARK    8  A    between atoms: C_22  and  C_24
REMARK                            x       y       z     vdW  Elec       q    Type
REMARK                         _______ _______ _______ _____ _____    ______ ____
ROOT
ATOM      1  C   UNL     1       1.190   8.563  20.671  0.00  0.00    +0.000 A 
ATOM      2  C   UNL     1       0.600   8.252  21.894  0.00  0.00    +0.000 A 
ATOM      3  C   UNL     1      -0.147   9.208  22.585  0.00  0.00    +0.000 A 
ATOM      4  C   UNL     1      -0.340  10.496  22.062  0.00  0.00    +0.000 A 
ATOM      5  C   UNL     1      -1.174  11.476  22.836  0.00  0.00    +0.000 C 
ATOM      6  C   UNL     1       0.225  10.814  20.817  0.00  0.00    +0.000 A 
ATOM      7  C   UNL     1       1.028   9.862  20.162  0.00  0.00    +0.000 A 
ENDROOT
BRANCH   1  10
ATOM      8  C   UNL     1       2.287   7.784  18.561  0.00  0.00    +0.000 C 
ATOM      9  O   UNL     1       1.987   8.754  17.869  0.00  0.00    +0.000 OA
ATOM     10  N   UNL     1       1.930   7.626  19.898  0.00  0.00    +0.000 N 
ATOM     11  H   UNL     1       2.341   6.868  20.417  0.00  0.00    +0.000 HD
BRANCH   8  16
ATOM     12  C   UNL     1       5.046   5.953  16.615  0.00  0.00    +0.000 A 
ATOM     13  C   UNL     1       4.609   4.632  16.766  0.00  0.00    +0.000 A 
ATOM     14  C   UNL     1       3.457   4.353  17.494  0.00  0.00    +0.000 A 
ATOM     15  C   UNL     1       2.731   5.394  18.061  0.00  0.00    +0.000 A 
ATOM     16  C   UNL     1       3.156   6.733  17.932  0.00  0.00    +0.000 A 
ATOM     17  C   UNL     1       4.336   6.999  17.217  0.00  0.00    +0.000 A 
BRANCH  12  19
ATOM     18  C   UNL     1       6.533   4.984  15.020  0.00  0.00    +0.000 C 
ATOM     19  O   UNL     1       6.175   6.075  15.854  0.00  0.00    +0.000 OA
ENDBRANCH  12  19
ENDBRANCH   8  16
ENDBRANCH   1  10
BRANCH   6  20
ATOM     20  O   UNL     1      -0.020  12.077  20.306  0.00  0.00    +0.000 OA
BRANCH  20  21
ATOM     21  C   UNL     1       0.441  12.292  18.954  0.00  0.00    +0.000 C 
ATOM     22  C   UNL     1       1.927  12.631  18.933  0.00  0.00    +0.000 C 
ATOM     23  C   UNL     1       2.233  14.030  19.434  0.00  0.00    +0.000 C 
ATOM     24  N   UNL     1       1.438  15.087  18.824  0.00  0.00    +0.000 N 
ATOM     25  C   UNL     1       1.859  16.436  18.744  0.00  0.00    +0.000 C 
ATOM     26  O   UNL     1       1.136  17.329  18.306  0.00  0.00    +0.000 OA
ATOM     27  C   UNL     1       0.001  14.830  18.729  0.00  0.00    +0.000 C 
ATOM     28  C   UNL     1      -0.353  13.414  18.272  0.00  0.00    +0.000 C 
BRANCH  25  29
ATOM     29  C   UNL     1       3.234  16.826  19.162  0.00  0.00    +0.000 A 
ATOM     30  C   UNL     1       4.389  16.452  18.475  0.00  0.00    +0.000 A 
ATOM     31  C   UNL     1       5.627  16.968  18.854  0.00  0.00    +0.000 A 
ATOM     32  C   UNL     1       5.683  17.775  19.976  0.00  0.00    +0.000 A 
ATOM     33  N   UNL     1       4.603  18.076  20.731  0.00  0.00    +0.000 NA
ATOM     34  C   UNL     1       3.403  17.589  20.313  0.00  0.00    +0.000 A 
ENDBRANCH  25  29
ENDBRANCH  20  21
ENDBRANCH   6  20
TORSDOF 6
ENDMDL
