MODEL 1
REMARK VINA RESULT:      -6.5      0.000      0.000
REMARK  Name = 
REMARK  5 active torsions:
REMARK  status: ('A' for Active; 'I' for Inactive)
REMARK    1  A    between atoms: C_2  and  O_3
REMARK    2  A    between atoms: C_2  and  C_4
REMARK    3  A    between atoms: C_4  and  C_6
REMARK    4  A    between atoms: C_6  and  C_7
REMARK    5  A    between atoms: C_7  and  C_9
REMARK                            x       y       z     vdW  Elec       q    Type
REMARK                         _______ _______ _______ _____ _____    ______ ____
ROOT
ATOM      1  C   UNL     1       4.738   4.580  18.293  0.00  0.00    +0.000 C 
ATOM      2  O   UNL     1       5.709   4.922  18.976  0.00  0.00    +0.000 OA
ENDROOT
BRANCH   1   3
ATOM      3  C   UNL     1       3.463   4.246  19.009  0.00  0.00    +0.000 A 
ATOM      4  C   UNL     1       2.915   5.299  19.773  0.00  0.00    +0.000 A 
ATOM      5  C   UNL     1       1.746   5.130  20.521  0.00  0.00    +0.000 A 
ATOM      6  C   UNL     1       1.094   3.905  20.516  0.00  0.00    +0.000 A 
ATOM      7  C   UNL     1       1.627   2.847  19.783  0.00  0.00    +0.000 A 
ATOM      8  C   UNL     1       2.813   3.003  19.044  0.00  0.00    +0.000 A 
ATOM      9 CL   UNL     1       3.404   1.554  18.318  0.00  0.00    +0.000 Cl
ENDBRANCH   1   3
BRANCH   1  10
ATOM     10  C   UNL     1       4.861   4.587  16.794  0.00  0.00    +0.000 C 
BRANCH  10  11
ATOM     11  C   UNL     1       5.789   5.620  16.240  0.00  0.00    +0.000 C 
ATOM     12  O   UNL     1       5.580   6.824  16.144  0.00  0.00    +0.000 OA
BRANCH  11  14
ATOM     13  O   UNL     1       7.532   5.254  14.611  0.00  0.00    +0.000 OA
ATOM     14  C   UNL     1       7.135   5.094  15.746  0.00  0.00    +0.000 C 
BRANCH  14  15
ATOM     15  O   UNL     1       7.801   4.465  16.731  0.00  0.00    +0.000 OA
ATOM     16  H   UNL     1       7.816   5.035  17.536  0.00  0.00    +0.000 HD
ENDBRANCH  14  15
ENDBRANCH  11  14
ENDBRANCH  10  11
ENDBRANCH   1  10
TORSDOF 5
ENDMDL
MODEL 2
REMARK VINA RESULT:      -6.4      1.779      2.247
REMARK  Name = 
REMARK  5 active torsions:
REMARK  status: ('A' for Active; 'I' for Inactive)
REMARK    1  A    between atoms: C_2  and  O_3
REMARK    2  A    between atoms: C_2  and  C_4
REMARK    3  A    between atoms: C_4  and  C_6
REMARK    4  A    between atoms: C_6  and  C_7
REMARK    5  A    between atoms: C_7  and  C_9
REMARK                            x       y       z     vdW  Elec       q    Type
REMARK                         _______ _______ _______ _____ _____    ______ ____
ROOT
ATOM      1  C   UNL     1       4.381   4.165  18.406  0.00  0.00    +0.000 C 
ATOM      2  O   UNL     1       4.795   3.347  17.578  0.00  0.00    +0.000 OA
ENDROOT
BRANCH   1   3
ATOM      3  C   UNL     1       3.229   3.757  19.276  0.00  0.00    +0.000 A 
ATOM      4  C   UNL     1       3.591   3.128  20.487  0.00  0.00    +0.000 A 
ATOM      5  C   UNL     1       2.628   2.664  21.387  0.00  0.00    +0.000 A 
ATOM      6  C   UNL     1       1.279   2.824  21.100  0.00  0.00    +0.000 A 
ATOM      7  C   UNL     1       0.900   3.426  19.902  0.00  0.00    +0.000 A 
ATOM      8  C   UNL     1       1.863   3.877  18.981  0.00  0.00    +0.000 A 
ATOM      9 CL   UNL     1       1.216   4.461  17.494  0.00  0.00    +0.000 Cl
ENDBRANCH   1   3
BRANCH   1  10
ATOM     10  C   UNL     1       5.091   5.484  18.548  0.00  0.00    +0.000 C 
BRANCH  10  11
ATOM     11  C   UNL     1       6.568   5.387  18.758  0.00  0.00    +0.000 C 
ATOM     12  O   UNL     1       7.159   5.335  19.831  0.00  0.00    +0.000 OA
BRANCH  11  14
ATOM     13  O   UNL     1       7.514   6.302  16.734  0.00  0.00    +0.000 OA
ATOM     14  C   UNL     1       7.410   5.354  17.485  0.00  0.00    +0.000 C 
BRANCH  14  15
ATOM     15  O   UNL     1       8.014   4.162  17.334  0.00  0.00    +0.000 OA
ATOM     16  H   UNL     1       7.454   3.577  16.771  0.00  0.00    +0.000 HD
ENDBRANCH  14  15
ENDBRANCH  11  14
ENDBRANCH  10  11
ENDBRANCH   1  10
TORSDOF 5
ENDMDL
MODEL 3
REMARK VINA RESULT:      -6.3      2.147      2.653
REMARK  Name = 
REMARK  5 active torsions:
REMARK  status: ('A' for Active; 'I' for Inactive)
REMARK    1  A    between atoms: C_2  and  O_3
REMARK    2  A    between atoms: C_2  and  C_4
REMARK    3  A    between atoms: C_4  and  C_6
REMARK    4  A    between atoms: C_6  and  C_7
REMARK    5  A    between atoms: C_7  and  C_9
REMARK                            x       y       z     vdW  Elec       q    Type
REMARK                         _______ _______ _______ _____ _____    ______ ____
ROOT
ATOM      1  C   UNL     1       5.554   5.125  18.593  0.00  0.00    +0.000 C 
ATOM      2  O   UNL     1       6.013   5.067  19.738  0.00  0.00    +0.000 OA
ENDROOT
BRANCH   1   3
ATOM      3  C   UNL     1       4.174   4.584  18.364  0.00  0.00    +0.000 A 
ATOM      4  C   UNL     1       4.096   3.178  18.259  0.00  0.00    +0.000 A 
ATOM      5  C   UNL     1       2.882   2.529  18.014  0.00  0.00    +0.000 A 
ATOM      6  C   UNL     1       1.718   3.270  17.875  0.00  0.00    +0.000 A 
ATOM      7  C   UNL     1       1.776   4.660  17.957  0.00  0.00    +0.000 A 
ATOM      8  C   UNL     1       2.995   5.322  18.183  0.00  0.00    +0.000 A 
ATOM      9 CL   UNL     1       2.904   7.043  18.109  0.00  0.00    +0.000 Cl
ENDBRANCH   1   3
BRANCH   1  10
ATOM     10  C   UNL     1       6.365   5.793  17.515  0.00  0.00    +0.000 C 
BRANCH  10  11
ATOM     11  C   UNL     1       7.255   4.879  16.735  0.00  0.00    +0.000 C 
ATOM     12  O   UNL     1       8.172   4.192  17.172  0.00  0.00    +0.000 OA
BRANCH  11  14
ATOM     13  O   UNL     1       7.683   5.338  14.404  0.00  0.00    +0.000 OA
ATOM     14  C   UNL     1       6.973   4.812  15.236  0.00  0.00    +0.000 C 
BRANCH  14  15
ATOM     15  O   UNL     1       5.867   4.090  14.983  0.00  0.00    +0.000 OA
ATOM     16  H   UNL     1       5.985   3.173  15.325  0.00  0.00    +0.000 HD
ENDBRANCH  14  15
ENDBRANCH  11  14
ENDBRANCH  10  11
ENDBRANCH   1  10
TORSDOF 5
ENDMDL
MODEL 4
REMARK VINA RESULT:      -6.3      0.857      1.601
REMARK  Name = 
REMARK  5 active torsions:
REMARK  status: ('A' for Active; 'I' for Inactive)
REMARK    1  A    between atoms: C_2  and  O_3
REMARK    2  A    between atoms: C_2  and  C_4
REMARK    3  A    between atoms: C_4  and  C_6
REMARK    4  A    between atoms: C_6  and  C_7
REMARK    5  A    between atoms: C_7  and  C_9
REMARK                            x       y       z     vdW  Elec       q    Type
REMARK                         _______ _______ _______ _____ _____    ______ ____
ROOT
ATOM      1  C   UNL     1       5.137   4.280  18.684  0.00  0.00    +0.000 C 
ATOM      2  O   UNL     1       6.021   4.500  19.519  0.00  0.00    +0.000 OA
ENDROOT
BRANCH   1   3
ATOM      3  C   UNL     1       3.734   4.098  19.182  0.00  0.00    +0.000 A 
ATOM      4  C   UNL     1       3.208   5.197  19.895  0.00  0.00    +0.000 A 
ATOM      5  C   UNL     1       1.925   5.165  20.448  0.00  0.00    +0.000 A 
ATOM      6  C   UNL     1       1.135   4.035  20.294  0.00  0.00    +0.000 A 
ATOM      7  C   UNL     1       1.641   2.932  19.609  0.00  0.00    +0.000 A 
ATOM      8  C   UNL     1       2.938   2.949  19.067  0.00  0.00    +0.000 A 
ATOM      9 CL   UNL     1       3.451   1.451  18.383  0.00  0.00    +0.000 Cl
ENDBRANCH   1   3
BRANCH   1  10
ATOM     10  C   UNL     1       5.498   4.277  17.223  0.00  0.00    +0.000 C 
BRANCH  10  11
ATOM     11  C   UNL     1       6.801   4.930  16.892  0.00  0.00    +0.000 C 
ATOM     12  O   UNL     1       7.899   4.389  16.816  0.00  0.00    +0.000 OA
BRANCH  11  14
ATOM     13  O   UNL     1       7.608   7.204  16.957  0.00  0.00    +0.000 OA
ATOM     14  C   UNL     1       6.733   6.432  16.625  0.00  0.00    +0.000 C 
BRANCH  14  15
ATOM     15  O   UNL     1       5.604   6.757  15.971  0.00  0.00    +0.000 OA
ATOM     16  H   UNL     1       4.842   6.267  16.362  0.00  0.00    +0.000 HD
ENDBRANCH  14  15
ENDBRANCH  11  14
ENDBRANCH  10  11
ENDBRANCH   1  10
TORSDOF 5
ENDMDL
MODEL 5
REMARK VINA RESULT:      -6.3      1.385      1.741
REMARK  Name = 
REMARK  5 active torsions:
REMARK  status: ('A' for Active; 'I' for Inactive)
REMARK    1  A    between atoms: C_2  and  O_3
REMARK    2  A    between atoms: C_2  and  C_4
REMARK    3  A    between atoms: C_4  and  C_6
REMARK    4  A    between atoms: C_6  and  C_7
REMARK    5  A    between atoms: C_7  and  C_9
REMARK                            x       y       z     vdW  Elec       q    Type
REMARK                         _______ _______ _______ _____ _____    ______ ____
ROOT
ATOM      1  C   UNL     1       5.054   4.629  18.729  0.00  0.00    +0.000 C 
ATOM      2  O   UNL     1       5.970   4.107  19.372  0.00  0.00    +0.000 OA
ENDROOT
BRANCH   1   3
ATOM      3  C   UNL     1       3.646   4.342  19.159  0.00  0.00    +0.000 A 
ATOM      4  C   UNL     1       3.063   5.328  19.985  0.00  0.00    +0.000 A 
ATOM      5  C   UNL     1       1.768   5.187  20.491  0.00  0.00    +0.000 A 
ATOM      6  C   UNL     1       1.023   4.059  20.179  0.00  0.00    +0.000 A 
ATOM      7  C   UNL     1       1.585   3.065  19.380  0.00  0.00    +0.000 A 
ATOM      8  C   UNL     1       2.895   3.190  18.883  0.00  0.00    +0.000 A 
ATOM      9 CL   UNL     1       3.477   1.805  18.037  0.00  0.00    +0.000 Cl
ENDBRANCH   1   3
BRANCH   1  10
ATOM     10  C   UNL     1       5.394   5.571  17.606  0.00  0.00    +0.000 C 
BRANCH  10  11
ATOM     11  C   UNL     1       6.848   5.660  17.273  0.00  0.00    +0.000 C 
ATOM     12  O   UNL     1       7.515   4.838  16.654  0.00  0.00    +0.000 OA
BRANCH  11  14
ATOM     13  O   UNL     1       7.530   7.973  17.172  0.00  0.00    +0.000 OA
ATOM     14  C   UNL     1       7.558   6.917  17.769  0.00  0.00    +0.000 C 
BRANCH  14  15
ATOM     15  O   UNL     1       8.184   6.692  18.938  0.00  0.00    +0.000 OA
ATOM     16  H   UNL     1       8.172   7.514  19.483  0.00  0.00    +0.000 HD
ENDBRANCH  14  15
ENDBRANCH  11  14
ENDBRANCH  10  11
ENDBRANCH   1  10
TORSDOF 5
ENDMDL
MODEL 6
REMARK VINA RESULT:      -6.3      1.561      2.129
REMARK  Name = 
REMARK  5 active torsions:
REMARK  status: ('A' for Active; 'I' for Inactive)
REMARK    1  A    between atoms: C_2  and  O_3
REMARK    2  A    between atoms: C_2  and  C_4
REMARK    3  A    between atoms: C_4  and  C_6
REMARK    4  A    between atoms: C_6  and  C_7
REMARK    5  A    between atoms: C_7  and  C_9
REMARK                            x       y       z     vdW  Elec       q    Type
REMARK                         _______ _______ _______ _____ _____    ______ ____
ROOT
ATOM      1  C   UNL     1       3.986   4.149  18.053  0.00  0.00    +0.000 C 
ATOM      2  O   UNL     1       3.976   3.429  17.049  0.00  0.00    +0.000 OA
ENDROOT
BRANCH   1   3
ATOM      3  C   UNL     1       3.114   3.753  19.207  0.00  0.00    +0.000 A 
ATOM      4  C   UNL     1       1.908   4.477  19.318  0.00  0.00    +0.000 A 
ATOM      5  C   UNL     1       1.006   4.243  20.360  0.00  0.00    +0.000 A 
ATOM      6  C   UNL     1       1.287   3.274  21.312  0.00  0.00    +0.000 A 
ATOM      7  C   UNL     1       2.481   2.560  21.232  0.00  0.00    +0.000 A 
ATOM      8  C   UNL     1       3.403   2.803  20.198  0.00  0.00    +0.000 A 
ATOM      9 CL   UNL     1       4.885   1.933  20.338  0.00  0.00    +0.000 Cl
ENDBRANCH   1   3
BRANCH   1  10
ATOM     10  C   UNL     1       4.916   5.331  18.093  0.00  0.00    +0.000 C 
BRANCH  10  11
ATOM     11  C   UNL     1       6.293   5.036  18.594  0.00  0.00    +0.000 C 
ATOM     12  O   UNL     1       6.693   5.123  19.749  0.00  0.00    +0.000 OA
BRANCH  11  14
ATOM     13  O   UNL     1       8.384   4.125  17.803  0.00  0.00    +0.000 OA
ATOM     14  C   UNL     1       7.292   4.580  17.532  0.00  0.00    +0.000 C 
BRANCH  14  15
ATOM     15  O   UNL     1       6.790   4.736  16.295  0.00  0.00    +0.000 OA
ATOM     16  H   UNL     1       7.429   4.381  15.632  0.00  0.00    +0.000 HD
ENDBRANCH  14  15
ENDBRANCH  11  14
ENDBRANCH  10  11
ENDBRANCH   1  10
TORSDOF 5
ENDMDL
MODEL 7
REMARK VINA RESULT:      -6.2      1.687      2.138
REMARK  Name = 
REMARK  5 active torsions:
REMARK  status: ('A' for Active; 'I' for Inactive)
REMARK    1  A    between atoms: C_2  and  O_3
REMARK    2  A    between atoms: C_2  and  C_4
REMARK    3  A    between atoms: C_4  and  C_6
REMARK    4  A    between atoms: C_6  and  C_7
REMARK    5  A    between atoms: C_7  and  C_9
REMARK                            x       y       z     vdW  Elec       q    Type
REMARK                         _______ _______ _______ _____ _____    ______ ____
ROOT
ATOM      1  C   UNL     1       4.380   5.091  18.456  0.00  0.00    +0.000 C 
ATOM      2  O   UNL     1       5.028   5.501  19.425  0.00  0.00    +0.000 OA
ENDROOT
BRANCH   1   3
ATOM      3  C   UNL     1       3.158   4.266  18.731  0.00  0.00    +0.000 A 
ATOM      4  C   UNL     1       3.073   3.064  17.995  0.00  0.00    +0.000 A 
ATOM      5  C   UNL     1       1.977   2.205  18.120  0.00  0.00    +0.000 A 
ATOM      6  C   UNL     1       0.944   2.525  18.989  0.00  0.00    +0.000 A 
ATOM      7  C   UNL     1       0.999   3.715  19.712  0.00  0.00    +0.000 A 
ATOM      8  C   UNL     1       2.088   4.594  19.577  0.00  0.00    +0.000 A 
ATOM      9 CL   UNL     1       1.920   6.082  20.433  0.00  0.00    +0.000 Cl
ENDBRANCH   1   3
BRANCH   1  10
ATOM     10  C   UNL     1       4.803   5.496  17.070  0.00  0.00    +0.000 C 
BRANCH  10  11
ATOM     11  C   UNL     1       6.216   5.969  16.953  0.00  0.00    +0.000 C 
ATOM     12  O   UNL     1       6.607   7.131  16.940  0.00  0.00    +0.000 OA
BRANCH  11  14
ATOM     13  O   UNL     1       7.815   4.580  15.795  0.00  0.00    +0.000 OA
ATOM     14  C   UNL     1       7.268   4.868  16.839  0.00  0.00    +0.000 C 
BRANCH  14  15
ATOM     15  O   UNL     1       7.504   4.297  18.034  0.00  0.00    +0.000 OA
ATOM     16  H   UNL     1       6.675   3.885  18.372  0.00  0.00    +0.000 HD
ENDBRANCH  14  15
ENDBRANCH  11  14
ENDBRANCH  10  11
ENDBRANCH   1  10
TORSDOF 5
ENDMDL
MODEL 8
REMARK VINA RESULT:      -6.2      1.088      1.288
REMARK  Name = 
REMARK  5 active torsions:
REMARK  status: ('A' for Active; 'I' for Inactive)
REMARK    1  A    between atoms: C_2  and  O_3
REMARK    2  A    between atoms: C_2  and  C_4
REMARK    3  A    between atoms: C_4  and  C_6
REMARK    4  A    between atoms: C_6  and  C_7
REMARK    5  A    between atoms: C_7  and  C_9
REMARK                            x       y       z     vdW  Elec       q    Type
REMARK                         _______ _______ _______ _____ _____    ______ ____
ROOT
ATOM      1  C   UNL     1       4.597   5.163  18.806  0.00  0.00    +0.000 C 
ATOM      2  O   UNL     1       5.492   5.251  19.652  0.00  0.00    +0.000 OA
ENDROOT
BRANCH   1   3
ATOM      3  C   UNL     1       3.308   4.515  19.217  0.00  0.00    +0.000 A 
ATOM      4  C   UNL     1       2.529   5.263  20.127  0.00  0.00    +0.000 A 
ATOM      5  C   UNL     1       1.317   4.777  20.626  0.00  0.00    +0.000 A 
ATOM      6  C   UNL     1       0.853   3.534  20.221  0.00  0.00    +0.000 A 
ATOM      7  C   UNL     1       1.614   2.771  19.337  0.00  0.00    +0.000 A 
ATOM      8  C   UNL     1       2.844   3.244  18.846  0.00  0.00    +0.000 A 
ATOM      9 CL   UNL     1       3.716   2.112  17.882  0.00  0.00    +0.000 Cl
ENDBRANCH   1   3
BRANCH   1  10
ATOM     10  C   UNL     1       4.816   5.766  17.445  0.00  0.00    +0.000 C 
BRANCH  10  11
ATOM     11  C   UNL     1       5.671   4.957  16.525  0.00  0.00    +0.000 C 
ATOM     12  O   UNL     1       5.293   4.138  15.694  0.00  0.00    +0.000 OA
BRANCH  11  14
ATOM     13  O   UNL     1       7.950   4.336  17.022  0.00  0.00    +0.000 OA
ATOM     14  C   UNL     1       7.174   5.193  16.651  0.00  0.00    +0.000 C 
BRANCH  14  15
ATOM     15  O   UNL     1       7.502   6.444  16.284  0.00  0.00    +0.000 OA
ATOM     16  H   UNL     1       8.019   6.875  17.005  0.00  0.00    +0.000 HD
ENDBRANCH  14  15
ENDBRANCH  11  14
ENDBRANCH  10  11
ENDBRANCH   1  10
TORSDOF 5
ENDMDL
MODEL 9
REMARK VINA RESULT:      -6.2      1.613      2.179
REMARK  Name = 
REMARK  5 active torsions:
REMARK  status: ('A' for Active; 'I' for Inactive)
REMARK    1  A    between atoms: C_2  and  O_3
REMARK    2  A    between atoms: C_2  and  C_4
REMARK    3  A    between atoms: C_4  and  C_6
REMARK    4  A    between atoms: C_6  and  C_7
REMARK    5  A    between atoms: C_7  and  C_9
REMARK                            x       y       z     vdW  Elec       q    Type
REMARK                         _______ _______ _______ _____ _____    ______ ____
ROOT
ATOM      1  C   UNL     1       4.580   5.162  18.453  0.00  0.00    +0.000 C 
ATOM      2  O   UNL     1       4.549   5.503  17.267  0.00  0.00    +0.000 OA
ENDROOT
BRANCH   1   3
ATOM      3  C   UNL     1       3.335   4.570  19.044  0.00  0.00    +0.000 A 
ATOM      4  C   UNL     1       2.651   5.407  19.953  0.00  0.00    +0.000 A 
ATOM      5  C   UNL     1       1.492   4.984  20.609  0.00  0.00    +0.000 A 
ATOM      6  C   UNL     1       0.984   3.715  20.365  0.00  0.00    +0.000 A 
ATOM      7  C   UNL     1       1.653   2.867  19.485  0.00  0.00    +0.000 A 
ATOM      8  C   UNL     1       2.831   3.277  18.837  0.00  0.00    +0.000 A 
ATOM      9 CL   UNL     1       3.601   2.052  17.900  0.00  0.00    +0.000 Cl
ENDBRANCH   1   3
BRANCH   1  10
ATOM     10  C   UNL     1       5.871   5.288  19.216  0.00  0.00    +0.000 C 
BRANCH  10  11
ATOM     11  C   UNL     1       7.103   5.335  18.370  0.00  0.00    +0.000 C 
ATOM     12  O   UNL     1       7.748   4.379  17.952  0.00  0.00    +0.000 OA
BRANCH  11  14
ATOM     13  O   UNL     1       8.330   7.386  18.710  0.00  0.00    +0.000 OA
ATOM     14  C   UNL     1       7.592   6.733  18.001  0.00  0.00    +0.000 C 
BRANCH  14  15
ATOM     15  O   UNL     1       7.113   7.115  16.804  0.00  0.00    +0.000 OA
ATOM     16  H   UNL     1       6.971   8.091  16.801  0.00  0.00    +0.000 HD
ENDBRANCH  14  15
ENDBRANCH  11  14
ENDBRANCH  10  11
ENDBRANCH   1  10
TORSDOF 5
ENDMDL
