MODEL 1
REMARK VINA RESULT:      -8.3      0.000      0.000
REMARK  Name = 
REMARK  8 active torsions:
REMARK  status: ('A' for Active; 'I' for Inactive)
REMARK    1  A    between atoms: C_1  and  C_2
REMARK    2  A    between atoms: C_2  and  C_3
REMARK    3  A    between atoms: C_2  and  N_4
REMARK    4  A    between atoms: N_4  and  C_5
REMARK    5  A    between atoms: C_5  and  C_6
REMARK    6  A    between atoms: C_6  and  C_7
REMARK    7  A    between atoms: N_9  and  C_10
REMARK    8  A    between atoms: C_14  and  C_15
REMARK                            x       y       z     vdW  Elec       q    Type
REMARK                         _______ _______ _______ _____ _____    ______ ____
ROOT
ATOM      1  C   UNL     1       4.355   5.570  17.456  0.00  0.00    +0.000 A 
ATOM      2  S   UNL     1       4.724   3.979  16.973  0.00  0.00    +0.000 S 
ATOM      3  C   UNL     1       3.418   3.358  17.856  0.00  0.00    +0.000 A 
ATOM      4  C   UNL     1       2.664   4.348  18.467  0.00  0.00    +0.000 A 
ATOM      5  C   UNL     1       3.222   5.657  18.250  0.00  0.00    +0.000 A 
ATOM      6  C   UNL     1       1.412   3.970  19.207  0.00  0.00    +0.000 C 
ATOM      7  C   UNL     1       1.380   2.452  19.505  0.00  0.00    +0.000 C 
ATOM      8  N   UNL     1       1.763   1.620  18.346  0.00  0.00    +0.000 NA
ATOM      9  C   UNL     1       3.161   1.887  17.958  0.00  0.00    +0.000 C 
ATOM     10  H   UNL     1       1.174   1.880  17.554  0.00  0.00    +0.000 HD
ENDROOT
BRANCH   5  11
ATOM     11  C   UNL     1       2.616   6.956  18.753  0.00  0.00    +0.000 A 
ATOM     12  N   UNL     1       2.253   7.123  20.011  0.00  0.00    +0.000 NA
ATOM     13  C   UNL     1       1.649   8.367  20.189  0.00  0.00    +0.000 A 
ATOM     14  C   UNL     1       1.120   8.895  21.374  0.00  0.00    +0.000 A 
ATOM     15  N   UNL     1       0.533  10.120  21.396  0.00  0.00    +0.000 NA
ATOM     16  C   UNL     1       0.466  10.835  20.254  0.00  0.00    +0.000 A 
ATOM     17  C   UNL     1       0.970  10.415  19.038  0.00  0.00    +0.000 A 
ATOM     18  C   UNL     1       1.566   9.152  19.040  0.00  0.00    +0.000 A 
ATOM     19  S   UNL     1       2.287   8.307  17.744  0.00  0.00    +0.000 S 
ENDBRANCH   5  11
BRANCH   1  22
ATOM     20  C   UNL     1       6.522   6.577  17.792  0.00  0.00    +0.000 C 
ATOM     21  O   UNL     1       6.841   5.907  18.772  0.00  0.00    +0.000 OA
ATOM     22  N   UNL     1       5.304   6.520  17.141  0.00  0.00    +0.000 N 
ATOM     23  H   UNL     1       5.304   6.875  16.186  0.00  0.00    +0.000 HD
BRANCH  20  24
ATOM     24  C   UNL     1       7.502   7.593  17.213  0.00  0.00    +0.000 C 
BRANCH  24  25
ATOM     25  C   UNL     1       8.212   8.501  18.224  0.00  0.00    +0.000 C 
BRANCH  25  26
ATOM     26  N   UNL     1       8.118   9.943  17.929  0.00  0.00    +0.000 NA
ATOM     27  H   UNL     1       7.967  10.070  16.924  0.00  0.00    +0.000 HD
BRANCH  26  29
ATOM     28  C   UNL     1       9.225  12.172  17.898  0.00  0.00    +0.000 C 
ATOM     29  C   UNL     1       9.319  10.707  18.322  0.00  0.00    +0.000 C 
ATOM     30  C   UNL     1       9.509  10.609  19.837  0.00  0.00    +0.000 C 
ENDBRANCH  26  29
ENDBRANCH  25  26
ENDBRANCH  24  25
ENDBRANCH  20  24
ENDBRANCH   1  22
TORSDOF 6
ENDMDL
MODEL 2
REMARK VINA RESULT:      -8.1      0.970      1.257
REMARK  Name = 
REMARK  8 active torsions:
REMARK  status: ('A' for Active; 'I' for Inactive)
REMARK    1  A    between atoms: C_1  and  C_2
REMARK    2  A    between atoms: C_2  and  C_3
REMARK    3  A    between atoms: C_2  and  N_4
REMARK    4  A    between atoms: N_4  and  C_5
REMARK    5  A    between atoms: C_5  and  C_6
REMARK    6  A    between atoms: C_6  and  C_7
REMARK    7  A    between atoms: N_9  and  C_10
REMARK    8  A    between atoms: C_14  and  C_15
REMARK                            x       y       z     vdW  Elec       q    Type
REMARK                         _______ _______ _______ _____ _____    ______ ____
ROOT
ATOM      1  C   UNL     1       4.346   5.539  17.480  0.00  0.00    +0.000 A 
ATOM      2  S   UNL     1       4.775   3.945  17.061  0.00  0.00    +0.000 S 
ATOM      3  C   UNL     1       3.456   3.315  17.918  0.00  0.00    +0.000 A 
ATOM      4  C   UNL     1       2.654   4.301  18.470  0.00  0.00    +0.000 A 
ATOM      5  C   UNL     1       3.183   5.618  18.231  0.00  0.00    +0.000 A 
ATOM      6  C   UNL     1       1.388   3.911  19.177  0.00  0.00    +0.000 C 
ATOM      7  C   UNL     1       1.386   2.403  19.522  0.00  0.00    +0.000 C 
ATOM      8  N   UNL     1       1.832   1.547  18.404  0.00  0.00    +0.000 NA
ATOM      9  C   UNL     1       3.235   1.841  18.057  0.00  0.00    +0.000 C 
ATOM     10  H   UNL     1       1.265   1.765  17.584  0.00  0.00    +0.000 HD
ENDROOT
BRANCH   5  11
ATOM     11  C   UNL     1       2.524   6.915  18.671  0.00  0.00    +0.000 A 
ATOM     12  N   UNL     1       2.447   7.969  17.881  0.00  0.00    +0.000 NA
ATOM     13  C   UNL     1       1.877   9.049  18.555  0.00  0.00    +0.000 A 
ATOM     14  C   UNL     1       1.647  10.338  18.056  0.00  0.00    +0.000 A 
ATOM     15  N   UNL     1       1.103  11.307  18.838  0.00  0.00    +0.000 NA
ATOM     16  C   UNL     1       0.778  11.013  20.114  0.00  0.00    +0.000 A 
ATOM     17  C   UNL     1       0.948   9.772  20.698  0.00  0.00    +0.000 A 
ATOM     18  C   UNL     1       1.511   8.794  19.875  0.00  0.00    +0.000 A 
ATOM     19  S   UNL     1       1.871   7.166  20.240  0.00  0.00    +0.000 S 
ENDBRANCH   5  11
BRANCH   1  22
ATOM     20  C   UNL     1       6.496   6.581  17.820  0.00  0.00    +0.000 C 
ATOM     21  O   UNL     1       6.825   5.915  18.799  0.00  0.00    +0.000 OA
ATOM     22  N   UNL     1       5.279   6.505  17.168  0.00  0.00    +0.000 N 
ATOM     23  H   UNL     1       5.275   6.863  16.214  0.00  0.00    +0.000 HD
BRANCH  20  24
ATOM     24  C   UNL     1       7.459   7.615  17.245  0.00  0.00    +0.000 C 
BRANCH  24  25
ATOM     25  C   UNL     1       8.279   8.416  18.262  0.00  0.00    +0.000 C 
BRANCH  25  26
ATOM     26  N   UNL     1       8.301   9.872  18.026  0.00  0.00    +0.000 NA
ATOM     27  H   UNL     1       8.246  10.048  17.018  0.00  0.00    +0.000 HD
BRANCH  26  29
ATOM     28  C   UNL     1       9.739  11.900  17.896  0.00  0.00    +0.000 C 
ATOM     29  C   UNL     1       9.509  10.539  18.552  0.00  0.00    +0.000 C 
ATOM     30  C   UNL     1       9.378  10.701  20.067  0.00  0.00    +0.000 C 
ENDBRANCH  26  29
ENDBRANCH  25  26
ENDBRANCH  24  25
ENDBRANCH  20  24
ENDBRANCH   1  22
TORSDOF 6
ENDMDL
MODEL 3
REMARK VINA RESULT:      -7.6      3.361      7.383
REMARK  Name = 
REMARK  8 active torsions:
REMARK  status: ('A' for Active; 'I' for Inactive)
REMARK    1  A    between atoms: C_1  and  C_2
REMARK    2  A    between atoms: C_2  and  C_3
REMARK    3  A    between atoms: C_2  and  N_4
REMARK    4  A    between atoms: N_4  and  C_5
REMARK    5  A    between atoms: C_5  and  C_6
REMARK    6  A    between atoms: C_6  and  C_7
REMARK    7  A    between atoms: N_9  and  C_10
REMARK    8  A    between atoms: C_14  and  C_15
REMARK                            x       y       z     vdW  Elec       q    Type
REMARK                         _______ _______ _______ _____ _____    ______ ____
ROOT
ATOM      1  C   UNL     1       1.882   6.809  20.485  0.00  0.00    +0.000 A 
ATOM      2  S   UNL     1       0.677   7.775  21.202  0.00  0.00    +0.000 S 
ATOM      3  C   UNL     1       0.952   9.025  20.093  0.00  0.00    +0.000 A 
ATOM      4  C   UNL     1       1.905   8.698  19.141  0.00  0.00    +0.000 A 
ATOM      5  C   UNL     1       2.473   7.397  19.377  0.00  0.00    +0.000 A 
ATOM      6  C   UNL     1       2.193   9.662  18.025  0.00  0.00    +0.000 C 
ATOM      7  C   UNL     1       1.641  11.070  18.350  0.00  0.00    +0.000 C 
ATOM      8  N   UNL     1       0.268  11.049  18.894  0.00  0.00    +0.000 NA
ATOM      9  C   UNL     1       0.235  10.335  20.185  0.00  0.00    +0.000 C 
ATOM     10  H   UNL     1      -0.327  10.531  18.246  0.00  0.00    +0.000 HD
ENDROOT
BRANCH   5  11
ATOM     11  C   UNL     1       3.515   6.729  18.496  0.00  0.00    +0.000 A 
ATOM     12  N   UNL     1       4.426   5.907  18.982  0.00  0.00    +0.000 NA
ATOM     13  C   UNL     1       5.310   5.503  17.982  0.00  0.00    +0.000 A 
ATOM     14  C   UNL     1       6.414   4.651  18.116  0.00  0.00    +0.000 A 
ATOM     15  N   UNL     1       7.210   4.362  17.053  0.00  0.00    +0.000 NA
ATOM     16  C   UNL     1       6.923   4.906  15.852  0.00  0.00    +0.000 A 
ATOM     17  C   UNL     1       5.851   5.743  15.610  0.00  0.00    +0.000 A 
ATOM     18  C   UNL     1       5.050   6.028  16.718  0.00  0.00    +0.000 A 
ATOM     19  S   UNL     1       3.658   7.012  16.807  0.00  0.00    +0.000 S 
ENDBRANCH   5  11
BRANCH   1  22
ATOM     20  C   UNL     1       1.584   4.461  20.959  0.00  0.00    +0.000 C 
ATOM     21  O   UNL     1       0.597   4.295  20.245  0.00  0.00    +0.000 OA
ATOM     22  N   UNL     1       2.221   5.668  21.181  0.00  0.00    +0.000 N 
ATOM     23  H   UNL     1       3.181   5.597  21.515  0.00  0.00    +0.000 HD
BRANCH  20  24
ATOM     24  C   UNL     1       2.188   3.279  21.709  0.00  0.00    +0.000 C 
BRANCH  24  25
ATOM     25  C   UNL     1       3.299   2.512  20.984  0.00  0.00    +0.000 C 
BRANCH  25  26
ATOM     26  N   UNL     1       3.606   3.009  19.629  0.00  0.00    +0.000 NA
ATOM     27  H   UNL     1       3.304   3.984  19.554  0.00  0.00    +0.000 HD
BRANCH  26  29
ATOM     28  C   UNL     1       2.551   3.121  17.377  0.00  0.00    +0.000 C 
ATOM     29  C   UNL     1       2.958   2.233  18.553  0.00  0.00    +0.000 C 
ATOM     30  C   UNL     1       3.909   1.134  18.077  0.00  0.00    +0.000 C 
ENDBRANCH  26  29
ENDBRANCH  25  26
ENDBRANCH  24  25
ENDBRANCH  20  24
ENDBRANCH   1  22
TORSDOF 6
ENDMDL
MODEL 4
REMARK VINA RESULT:      -7.4      1.038      1.217
REMARK  Name = 
REMARK  8 active torsions:
REMARK  status: ('A' for Active; 'I' for Inactive)
REMARK    1  A    between atoms: C_1  and  C_2
REMARK    2  A    between atoms: C_2  and  C_3
REMARK    3  A    between atoms: C_2  and  N_4
REMARK    4  A    between atoms: N_4  and  C_5
REMARK    5  A    between atoms: C_5  and  C_6
REMARK    6  A    between atoms: C_6  and  C_7
REMARK    7  A    between atoms: N_9  and  C_10
REMARK    8  A    between atoms: C_14  and  C_15
REMARK                            x       y       z     vdW  Elec       q    Type
REMARK                         _______ _______ _______ _____ _____    ______ ____
ROOT
ATOM      1  C   UNL     1       4.376   5.606  18.291  0.00  0.00    +0.000 A 
ATOM      2  S   UNL     1       4.785   3.954  18.295  0.00  0.00    +0.000 S 
ATOM      3  C   UNL     1       3.451   3.576  19.269  0.00  0.00    +0.000 A 
ATOM      4  C   UNL     1       2.658   4.680  19.544  0.00  0.00    +0.000 A 
ATOM      5  C   UNL     1       3.208   5.887  18.985  0.00  0.00    +0.000 A 
ATOM      6  C   UNL     1       1.382   4.496  20.313  0.00  0.00    +0.000 C 
ATOM      7  C   UNL     1       1.356   3.125  21.029  0.00  0.00    +0.000 C 
ATOM      8  N   UNL     1       1.799   2.009  20.170  0.00  0.00    +0.000 NA
ATOM      9  C   UNL     1       3.208   2.189  19.774  0.00  0.00    +0.000 C 
ATOM     10  H   UNL     1       1.240   2.018  19.315  0.00  0.00    +0.000 HD
ENDROOT
BRANCH   5  11
ATOM     11  C   UNL     1       2.565   7.260  19.075  0.00  0.00    +0.000 A 
ATOM     12  N   UNL     1       1.978   7.691  20.176  0.00  0.00    +0.000 NA
ATOM     13  C   UNL     1       1.395   8.941  19.967  0.00  0.00    +0.000 A 
ATOM     14  C   UNL     1       0.671   9.708  20.889  0.00  0.00    +0.000 A 
ATOM     15  N   UNL     1       0.134  10.906  20.537  0.00  0.00    +0.000 NA
ATOM     16  C   UNL     1       0.309  11.358  19.279  0.00  0.00    +0.000 A 
ATOM     17  C   UNL     1       1.018  10.690  18.299  0.00  0.00    +0.000 A 
ATOM     18  C   UNL     1       1.558   9.460  18.684  0.00  0.00    +0.000 A 
ATOM     19  S   UNL     1       2.480   8.361  17.759  0.00  0.00    +0.000 S 
ENDBRANCH   5  11
BRANCH   1  22
ATOM     20  C   UNL     1       6.631   6.462  18.209  0.00  0.00    +0.000 C 
ATOM     21  O   UNL     1       7.053   5.847  19.186  0.00  0.00    +0.000 OA
ATOM     22  N   UNL     1       5.325   6.451  17.756  0.00  0.00    +0.000 N 
ATOM     23  H   UNL     1       5.200   6.731  16.783  0.00  0.00    +0.000 HD
BRANCH  20  24
ATOM     24  C   UNL     1       7.573   7.350  17.403  0.00  0.00    +0.000 C 
BRANCH  24  25
ATOM     25  C   UNL     1       7.687   8.808  17.860  0.00  0.00    +0.000 C 
BRANCH  25  26
ATOM     26  N   UNL     1       8.808   9.079  18.781  0.00  0.00    +0.000 NA
ATOM     27  H   UNL     1       8.645   8.583  19.661  0.00  0.00    +0.000 HD
BRANCH  26  29
ATOM     28  C   UNL     1       9.664  10.729  20.436  0.00  0.00    +0.000 C 
ATOM     29  C   UNL     1       8.995  10.513  19.079  0.00  0.00    +0.000 C 
ATOM     30  C   UNL     1       9.832  11.156  17.972  0.00  0.00    +0.000 C 
ENDBRANCH  26  29
ENDBRANCH  25  26
ENDBRANCH  24  25
ENDBRANCH  20  24
ENDBRANCH   1  22
TORSDOF 6
ENDMDL
MODEL 5
REMARK VINA RESULT:      -7.4      1.988      3.070
REMARK  Name = 
REMARK  8 active torsions:
REMARK  status: ('A' for Active; 'I' for Inactive)
REMARK    1  A    between atoms: C_1  and  C_2
REMARK    2  A    between atoms: C_2  and  C_3
REMARK    3  A    between atoms: C_2  and  N_4
REMARK    4  A    between atoms: N_4  and  C_5
REMARK    5  A    between atoms: C_5  and  C_6
REMARK    6  A    between atoms: C_6  and  C_7
REMARK    7  A    between atoms: N_9  and  C_10
REMARK    8  A    between atoms: C_14  and  C_15
REMARK                            x       y       z     vdW  Elec       q    Type
REMARK                         _______ _______ _______ _____ _____    ______ ____
ROOT
ATOM      1  C   UNL     1       3.991   5.262  17.847  0.00  0.00    +0.000 A 
ATOM      2  S   UNL     1       4.220   3.627  17.430  0.00  0.00    +0.000 S 
ATOM      3  C   UNL     1       2.890   3.152  18.364  0.00  0.00    +0.000 A 
ATOM      4  C   UNL     1       2.230   4.225  18.943  0.00  0.00    +0.000 A 
ATOM      5  C   UNL     1       2.886   5.474  18.658  0.00  0.00    +0.000 A 
ATOM      6  C   UNL     1       0.969   3.981  19.723  0.00  0.00    +0.000 C 
ATOM      7  C   UNL     1       0.822   2.485  20.089  0.00  0.00    +0.000 C 
ATOM      8  N   UNL     1       1.112   1.576  18.962  0.00  0.00    +0.000 NA
ATOM      9  C   UNL     1       2.518   1.713  18.536  0.00  0.00    +0.000 C 
ATOM     10  H   UNL     1       0.528   1.848  18.170  0.00  0.00    +0.000 HD
ENDROOT
BRANCH   5  11
ATOM     11  C   UNL     1       2.397   6.838  19.114  0.00  0.00    +0.000 A 
ATOM     12  N   UNL     1       2.094   7.093  20.372  0.00  0.00    +0.000 NA
ATOM     13  C   UNL     1       1.591   8.387  20.507  0.00  0.00    +0.000 A 
ATOM     14  C   UNL     1       1.147   9.010  21.680  0.00  0.00    +0.000 A 
ATOM     15  N   UNL     1       0.653  10.277  21.659  0.00  0.00    +0.000 NA
ATOM     16  C   UNL     1       0.597  10.938  20.485  0.00  0.00    +0.000 A 
ATOM     17  C   UNL     1       1.023  10.422  19.276  0.00  0.00    +0.000 A 
ATOM     18  C   UNL     1       1.523   9.119  19.323  0.00  0.00    +0.000 A 
ATOM     19  S   UNL     1       2.132   8.160  18.049  0.00  0.00    +0.000 S 
ENDBRANCH   5  11
BRANCH   1  22
ATOM     20  C   UNL     1       6.199   6.181  18.167  0.00  0.00    +0.000 C 
ATOM     21  O   UNL     1       6.441   5.609  19.228  0.00  0.00    +0.000 OA
ATOM     22  N   UNL     1       5.005   6.118  17.473  0.00  0.00    +0.000 N 
ATOM     23  H   UNL     1       5.063   6.363  16.485  0.00  0.00    +0.000 HD
BRANCH  20  24
ATOM     24  C   UNL     1       7.258   7.072  17.525  0.00  0.00    +0.000 C 
BRANCH  24  25
ATOM     25  C   UNL     1       7.664   6.715  16.090  0.00  0.00    +0.000 C 
BRANCH  25  26
ATOM     26  N   UNL     1       7.419   5.310  15.712  0.00  0.00    +0.000 NA
ATOM     27  H   UNL     1       8.306   4.800  15.727  0.00  0.00    +0.000 HD
BRANCH  26  29
ATOM     28  C   UNL     1       7.840   5.329  13.259  0.00  0.00    +0.000 C 
ATOM     29  C   UNL     1       6.811   5.154  14.375  0.00  0.00    +0.000 C 
ATOM     30  C   UNL     1       6.155   3.776  14.275  0.00  0.00    +0.000 C 
ENDBRANCH  26  29
ENDBRANCH  25  26
ENDBRANCH  24  25
ENDBRANCH  20  24
ENDBRANCH   1  22
TORSDOF 6
ENDMDL
MODEL 6
REMARK VINA RESULT:      -7.3      3.341      7.578
REMARK  Name = 
REMARK  8 active torsions:
REMARK  status: ('A' for Active; 'I' for Inactive)
REMARK    1  A    between atoms: C_1  and  C_2
REMARK    2  A    between atoms: C_2  and  C_3
REMARK    3  A    between atoms: C_2  and  N_4
REMARK    4  A    between atoms: N_4  and  C_5
REMARK    5  A    between atoms: C_5  and  C_6
REMARK    6  A    between atoms: C_6  and  C_7
REMARK    7  A    between atoms: N_9  and  C_10
REMARK    8  A    between atoms: C_14  and  C_15
REMARK                            x       y       z     vdW  Elec       q    Type
REMARK                         _______ _______ _______ _____ _____    ______ ____
ROOT
ATOM      1  C   UNL     1       1.943   6.868  20.299  0.00  0.00    +0.000 A 
ATOM      2  S   UNL     1       0.694   7.832  20.940  0.00  0.00    +0.000 S 
ATOM      3  C   UNL     1       1.018   9.072  19.833  0.00  0.00    +0.000 A 
ATOM      4  C   UNL     1       2.023   8.743  18.938  0.00  0.00    +0.000 A 
ATOM      5  C   UNL     1       2.588   7.450  19.218  0.00  0.00    +0.000 A 
ATOM      6  C   UNL     1       2.363   9.697  17.828  0.00  0.00    +0.000 C 
ATOM      7  C   UNL     1       1.783  11.104  18.107  0.00  0.00    +0.000 C 
ATOM      8  N   UNL     1       0.383  11.077  18.577  0.00  0.00    +0.000 NA
ATOM      9  C   UNL     1       0.286  10.377  19.871  0.00  0.00    +0.000 C 
ATOM     10  H   UNL     1      -0.173  10.547  17.904  0.00  0.00    +0.000 HD
ENDROOT
BRANCH   5  11
ATOM     11  C   UNL     1       3.682   6.781  18.402  0.00  0.00    +0.000 A 
ATOM     12  N   UNL     1       3.853   7.030  17.118  0.00  0.00    +0.000 NA
ATOM     13  C   UNL     1       4.864   6.226  16.590  0.00  0.00    +0.000 A 
ATOM     14  C   UNL     1       5.318   6.190  15.265  0.00  0.00    +0.000 A 
ATOM     15  N   UNL     1       6.300   5.331  14.884  0.00  0.00    +0.000 NA
ATOM     16  C   UNL     1       6.842   4.505  15.803  0.00  0.00    +0.000 A 
ATOM     17  C   UNL     1       6.478   4.473  17.135  0.00  0.00    +0.000 A 
ATOM     18  C   UNL     1       5.466   5.362  17.502  0.00  0.00    +0.000 A 
ATOM     19  S   UNL     1       4.760   5.604  19.037  0.00  0.00    +0.000 S 
ENDBRANCH   5  11
BRANCH   1  22
ATOM     20  C   UNL     1       1.552   4.557  20.873  0.00  0.00    +0.000 C 
ATOM     21  O   UNL     1       0.532   4.414  20.202  0.00  0.00    +0.000 OA
ATOM     22  N   UNL     1       2.253   5.739  21.026  0.00  0.00    +0.000 N 
ATOM     23  H   UNL     1       3.221   5.633  21.327  0.00  0.00    +0.000 HD
BRANCH  20  24
ATOM     24  C   UNL     1       2.127   3.374  21.645  0.00  0.00    +0.000 C 
BRANCH  24  25
ATOM     25  C   UNL     1       2.529   2.152  20.812  0.00  0.00    +0.000 C 
BRANCH  25  26
ATOM     26  N   UNL     1       1.771   1.985  19.558  0.00  0.00    +0.000 NA
ATOM     27  H   UNL     1       1.239   1.112  19.602  0.00  0.00    +0.000 HD
BRANCH  26  29
ATOM     28  C   UNL     1       2.396   3.176  17.462  0.00  0.00    +0.000 C 
ATOM     29  C   UNL     1       2.622   1.953  18.351  0.00  0.00    +0.000 C 
ATOM     30  C   UNL     1       4.091   1.873  18.770  0.00  0.00    +0.000 C 
ENDBRANCH  26  29
ENDBRANCH  25  26
ENDBRANCH  24  25
ENDBRANCH  20  24
ENDBRANCH   1  22
TORSDOF 6
ENDMDL
MODEL 7
REMARK VINA RESULT:      -7.1      2.335      3.169
REMARK  Name = 
REMARK  8 active torsions:
REMARK  status: ('A' for Active; 'I' for Inactive)
REMARK    1  A    between atoms: C_1  and  C_2
REMARK    2  A    between atoms: C_2  and  C_3
REMARK    3  A    between atoms: C_2  and  N_4
REMARK    4  A    between atoms: N_4  and  C_5
REMARK    5  A    between atoms: C_5  and  C_6
REMARK    6  A    between atoms: C_6  and  C_7
REMARK    7  A    between atoms: N_9  and  C_10
REMARK    8  A    between atoms: C_14  and  C_15
REMARK                            x       y       z     vdW  Elec       q    Type
REMARK                         _______ _______ _______ _____ _____    ______ ____
ROOT
ATOM      1  C   UNL     1       4.461   5.155  18.947  0.00  0.00    +0.000 A 
ATOM      2  S   UNL     1       4.849   3.512  19.166  0.00  0.00    +0.000 S 
ATOM      3  C   UNL     1       3.437   3.249  20.065  0.00  0.00    +0.000 A 
ATOM      4  C   UNL     1       2.638   4.378  20.151  0.00  0.00    +0.000 A 
ATOM      5  C   UNL     1       3.245   5.514  19.508  0.00  0.00    +0.000 A 
ATOM      6  C   UNL     1       1.302   4.286  20.831  0.00  0.00    +0.000 C 
ATOM      7  C   UNL     1       1.203   3.002  21.690  0.00  0.00    +0.000 C 
ATOM      8  N   UNL     1       1.700   1.796  20.997  0.00  0.00    +0.000 NA
ATOM      9  C   UNL     1       3.138   1.927  20.699  0.00  0.00    +0.000 C 
ATOM     10  H   UNL     1       1.212   1.713  20.105  0.00  0.00    +0.000 HD
ENDROOT
BRANCH   5  11
ATOM     11  C   UNL     1       2.613   6.891  19.394  0.00  0.00    +0.000 A 
ATOM     12  N   UNL     1       2.008   7.474  20.411  0.00  0.00    +0.000 NA
ATOM     13  C   UNL     1       1.442   8.687  20.019  0.00  0.00    +0.000 A 
ATOM     14  C   UNL     1       0.706   9.579  20.810  0.00  0.00    +0.000 A 
ATOM     15  N   UNL     1       0.188  10.720  20.285  0.00  0.00    +0.000 NA
ATOM     16  C   UNL     1       0.392  10.993  18.980  0.00  0.00    +0.000 A 
ATOM     17  C   UNL     1       1.115  10.190  18.118  0.00  0.00    +0.000 A 
ATOM     18  C   UNL     1       1.635   9.022  18.680  0.00  0.00    +0.000 A 
ATOM     19  S   UNL     1       2.566   7.800  17.937  0.00  0.00    +0.000 S 
ENDBRANCH   5  11
BRANCH   1  22
ATOM     20  C   UNL     1       6.742   5.943  18.916  0.00  0.00    +0.000 C 
ATOM     21  O   UNL     1       7.098   5.393  19.957  0.00  0.00    +0.000 OA
ATOM     22  N   UNL     1       5.460   5.932  18.399  0.00  0.00    +0.000 N 
ATOM     23  H   UNL     1       5.392   6.140  17.403  0.00  0.00    +0.000 HD
BRANCH  20  24
ATOM     24  C   UNL     1       7.749   6.743  18.096  0.00  0.00    +0.000 C 
BRANCH  24  25
ATOM     25  C   UNL     1       7.416   6.931  16.612  0.00  0.00    +0.000 C 
BRANCH  25  26
ATOM     26  N   UNL     1       7.576   5.718  15.787  0.00  0.00    +0.000 NA
ATOM     27  H   UNL     1       8.322   5.875  15.103  0.00  0.00    +0.000 HD
BRANCH  26  29
ATOM     28  C   UNL     1       5.871   3.934  15.457  0.00  0.00    +0.000 C 
ATOM     29  C   UNL     1       6.350   5.331  15.061  0.00  0.00    +0.000 C 
ATOM     30  C   UNL     1       5.252   6.360  15.335  0.00  0.00    +0.000 C 
ENDBRANCH  26  29
ENDBRANCH  25  26
ENDBRANCH  24  25
ENDBRANCH  20  24
ENDBRANCH   1  22
TORSDOF 6
ENDMDL
MODEL 8
REMARK VINA RESULT:      -7.0      3.332      7.471
REMARK  Name = 
REMARK  8 active torsions:
REMARK  status: ('A' for Active; 'I' for Inactive)
REMARK    1  A    between atoms: C_1  and  C_2
REMARK    2  A    between atoms: C_2  and  C_3
REMARK    3  A    between atoms: C_2  and  N_4
REMARK    4  A    between atoms: N_4  and  C_5
REMARK    5  A    between atoms: C_5  and  C_6
REMARK    6  A    between atoms: C_6  and  C_7
REMARK    7  A    between atoms: N_9  and  C_10
REMARK    8  A    between atoms: C_14  and  C_15
REMARK                            x       y       z     vdW  Elec       q    Type
REMARK                         _______ _______ _______ _____ _____    ______ ____
ROOT
ATOM      1  C   UNL     1       2.189   6.550  20.126  0.00  0.00    +0.000 A 
ATOM      2  S   UNL     1       0.977   7.440  20.924  0.00  0.00    +0.000 S 
ATOM      3  C   UNL     1       1.162   8.742  19.857  0.00  0.00    +0.000 A 
ATOM      4  C   UNL     1       2.091   8.490  18.859  0.00  0.00    +0.000 A 
ATOM      5  C   UNL     1       2.715   7.204  19.022  0.00  0.00    +0.000 A 
ATOM      6  C   UNL     1       2.300   9.507  17.774  0.00  0.00    +0.000 C 
ATOM      7  C   UNL     1       1.708  10.879  18.175  0.00  0.00    +0.000 C 
ATOM      8  N   UNL     1       0.358  10.782  18.766  0.00  0.00    +0.000 NA
ATOM      9  C   UNL     1       0.400  10.019  20.027  0.00  0.00    +0.000 C 
ATOM     10  H   UNL     1      -0.241  10.268  18.120  0.00  0.00    +0.000 HD
ENDROOT
BRANCH   5  11
ATOM     11  C   UNL     1       3.749   6.612  18.078  0.00  0.00    +0.000 A 
ATOM     12  N   UNL     1       3.516   5.520  17.375  0.00  0.00    +0.000 NA
ATOM     13  C   UNL     1       4.653   5.142  16.659  0.00  0.00    +0.000 A 
ATOM     14  C   UNL     1       4.799   4.031  15.819  0.00  0.00    +0.000 A 
ATOM     15  N   UNL     1       5.981   3.770  15.200  0.00  0.00    +0.000 NA
ATOM     16  C   UNL     1       7.024   4.601  15.403  0.00  0.00    +0.000 A 
ATOM     17  C   UNL     1       6.980   5.731  16.198  0.00  0.00    +0.000 A 
ATOM     18  C   UNL     1       5.757   5.977  16.824  0.00  0.00    +0.000 A 
ATOM     19  S   UNL     1       5.328   7.256  17.869  0.00  0.00    +0.000 S 
ENDBRANCH   5  11
BRANCH   1  22
ATOM     20  C   UNL     1       1.809   4.261  20.789  0.00  0.00    +0.000 C 
ATOM     21  O   UNL     1       0.651   4.185  20.384  0.00  0.00    +0.000 OA
ATOM     22  N   UNL     1       2.597   5.397  20.763  0.00  0.00    +0.000 N 
ATOM     23  H   UNL     1       3.600   5.232  20.824  0.00  0.00    +0.000 HD
BRANCH  20  24
ATOM     24  C   UNL     1       2.481   3.040  21.408  0.00  0.00    +0.000 C 
BRANCH  24  25
ATOM     25  C   UNL     1       3.754   2.542  20.714  0.00  0.00    +0.000 C 
BRANCH  25  26
ATOM     26  N   UNL     1       3.964   3.077  19.355  0.00  0.00    +0.000 NA
ATOM     27  H   UNL     1       3.348   3.884  19.215  0.00  0.00    +0.000 HD
BRANCH  26  29
ATOM     28  C   UNL     1       4.026   0.669  18.728  0.00  0.00    +0.000 C 
ATOM     29  C   UNL     1       3.700   2.095  18.285  0.00  0.00    +0.000 C 
ATOM     30  C   UNL     1       2.233   2.191  17.860  0.00  0.00    +0.000 C 
ENDBRANCH  26  29
ENDBRANCH  25  26
ENDBRANCH  24  25
ENDBRANCH  20  24
ENDBRANCH   1  22
TORSDOF 6
ENDMDL
MODEL 9
REMARK VINA RESULT:      -6.8      2.202      3.290
REMARK  Name = 
REMARK  8 active torsions:
REMARK  status: ('A' for Active; 'I' for Inactive)
REMARK    1  A    between atoms: C_1  and  C_2
REMARK    2  A    between atoms: C_2  and  C_3
REMARK    3  A    between atoms: C_2  and  N_4
REMARK    4  A    between atoms: N_4  and  C_5
REMARK    5  A    between atoms: C_5  and  C_6
REMARK    6  A    between atoms: C_6  and  C_7
REMARK    7  A    between atoms: N_9  and  C_10
REMARK    8  A    between atoms: C_14  and  C_15
REMARK                            x       y       z     vdW  Elec       q    Type
REMARK                         _______ _______ _______ _____ _____    ______ ____
ROOT
ATOM      1  C   UNL     1       3.878   5.356  17.821  0.00  0.00    +0.000 A 
ATOM      2  S   UNL     1       4.203   3.718  17.492  0.00  0.00    +0.000 S 
ATOM      3  C   UNL     1       2.925   3.216  18.484  0.00  0.00    +0.000 A 
ATOM      4  C   UNL     1       2.210   4.278  19.016  0.00  0.00    +0.000 A 
ATOM      5  C   UNL     1       2.778   5.546  18.644  0.00  0.00    +0.000 A 
ATOM      6  C   UNL     1       0.983   4.002  19.838  0.00  0.00    +0.000 C 
ATOM      7  C   UNL     1       0.939   2.524  20.293  0.00  0.00    +0.000 C 
ATOM      8  N   UNL     1       1.264   1.570  19.213  0.00  0.00    +0.000 NA
ATOM      9  C   UNL     1       2.649   1.769  18.747  0.00  0.00    +0.000 C 
ATOM     10  H   UNL     1       0.648   1.758  18.421  0.00  0.00    +0.000 HD
ENDROOT
BRANCH   5  11
ATOM     11  C   UNL     1       2.213   6.902  19.032  0.00  0.00    +0.000 A 
ATOM     12  N   UNL     1       2.159   7.912  18.185  0.00  0.00    +0.000 NA
ATOM     13  C   UNL     1       1.679   9.060  18.815  0.00  0.00    +0.000 A 
ATOM     14  C   UNL     1       1.499  10.329  18.249  0.00  0.00    +0.000 A 
ATOM     15  N   UNL     1       1.045  11.371  18.994  0.00  0.00    +0.000 NA
ATOM     16  C   UNL     1       0.762  11.171  20.298  0.00  0.00    +0.000 A 
ATOM     17  C   UNL     1       0.889   9.957  20.947  0.00  0.00    +0.000 A 
ATOM     18  C   UNL     1       1.360   8.903  20.162  0.00  0.00    +0.000 A 
ATOM     19  S   UNL     1       1.645   7.281  20.609  0.00  0.00    +0.000 S 
ENDBRANCH   5  11
BRANCH   1  22
ATOM     20  C   UNL     1       6.072   6.351  17.968  0.00  0.00    +0.000 C 
ATOM     21  O   UNL     1       6.420   5.779  18.999  0.00  0.00    +0.000 OA
ATOM     22  N   UNL     1       4.828   6.251  17.374  0.00  0.00    +0.000 N 
ATOM     23  H   UNL     1       4.796   6.507  16.388  0.00  0.00    +0.000 HD
BRANCH  20  24
ATOM     24  C   UNL     1       7.043   7.283  17.251  0.00  0.00    +0.000 C 
BRANCH  24  25
ATOM     25  C   UNL     1       7.868   6.662  16.118  0.00  0.00    +0.000 C 
BRANCH  25  26
ATOM     26  N   UNL     1       7.473   5.288  15.751  0.00  0.00    +0.000 NA
ATOM     27  H   UNL     1       8.303   4.688  15.763  0.00  0.00    +0.000 HD
BRANCH  26  29
ATOM     28  C   UNL     1       7.861   5.370  13.293  0.00  0.00    +0.000 C 
ATOM     29  C   UNL     1       6.844   5.189  14.419  0.00  0.00    +0.000 C 
ATOM     30  C   UNL     1       6.150   3.832  14.287  0.00  0.00    +0.000 C 
ENDBRANCH  26  29
ENDBRANCH  25  26
ENDBRANCH  24  25
ENDBRANCH  20  24
ENDBRANCH   1  22
TORSDOF 6
ENDMDL
