MODEL 1
REMARK VINA RESULT:      -7.7      0.000      0.000
REMARK  Name = 
REMARK  10 active torsions:
REMARK  status: ('A' for Active; 'I' for Inactive)
REMARK    1  A    between atoms: N_1  and  S_2
REMARK    2  A    between atoms: S_2  and  C_5
REMARK    3  A    between atoms: C_8  and  C_9
REMARK    4  A    between atoms: C_9  and  C_10
REMARK    5  A    between atoms: C_10  and  N_11
REMARK    6  A    between atoms: N_11  and  C_12
REMARK    7  A    between atoms: C_12  and  C_13
REMARK    8  A    between atoms: C_18  and  O_19
REMARK    9  A    between atoms: O_19  and  C_20
REMARK   10  A    between atoms: C_20  and  C_21
REMARK                            x       y       z     vdW  Elec       q    Type
REMARK                         _______ _______ _______ _____ _____    ______ ____
ROOT
ATOM      1  N   UNL     1       1.023   4.551  20.395  0.00  0.00    +0.000 NA
ATOM      2  H   UNL     1       0.034   4.647  20.727  0.00  0.00    +0.000 HD
ENDROOT
BRANCH   1   3
ATOM      3  C   UNL     1       1.552   3.252  20.812  0.00  0.00    +0.000 C 
BRANCH   3   4
ATOM      4  C   UNL     1       1.863   2.347  19.614  0.00  0.00    +0.000 C 
BRANCH   4   8
ATOM      5  C   UNL     1       5.122   4.009  17.413  0.00  0.00    +0.000 A 
ATOM      6  C   UNL     1       3.951   3.633  16.748  0.00  0.00    +0.000 A 
ATOM      7  C   UNL     1       2.899   3.094  17.465  0.00  0.00    +0.000 A 
ATOM      8  C   UNL     1       3.007   2.909  18.853  0.00  0.00    +0.000 A 
ATOM      9  C   UNL     1       4.187   3.284  19.515  0.00  0.00    +0.000 A 
ATOM     10  C   UNL     1       5.236   3.829  18.797  0.00  0.00    +0.000 A 
BRANCH   5  11
ATOM     11  S   UNL     1       6.426   4.780  16.499  0.00  0.00    +0.000 S 
ATOM     12  O   UNL     1       6.598   4.253  15.067  0.00  0.00    +0.000 OA
ATOM     13  O   UNL     1       7.813   4.583  17.129  0.00  0.00    +0.000 OA
BRANCH  11  14
ATOM     14  N   UNL     1       6.222   6.524  16.355  0.00  0.00    +0.000 NA
ATOM     15  H   UNL     1       5.954   6.901  17.289  0.00  0.00    +0.000 HD
ATOM     16  H   UNL     1       5.407   6.671  15.714  0.00  0.00    +0.000 HD
ENDBRANCH  11  14
ENDBRANCH   5  11
ENDBRANCH   4   8
ENDBRANCH   3   4
ENDBRANCH   1   3
BRANCH   1  17
ATOM     17  C   UNL     1       1.806   5.694  20.887  0.00  0.00    +0.000 C 
BRANCH  17  18
ATOM     18  C   UNL     1       1.948   6.820  19.877  0.00  0.00    +0.000 A 
ATOM     19  C   UNL     1       2.625   6.536  18.674  0.00  0.00    +0.000 A 
ATOM     20  C   UNL     1       2.836   7.527  17.719  0.00  0.00    +0.000 A 
ATOM     21  C   UNL     1       2.372   8.819  17.943  0.00  0.00    +0.000 A 
ATOM     22  C   UNL     1       1.667   9.118  19.108  0.00  0.00    +0.000 A 
ATOM     23  C   UNL     1       1.436   8.133  20.091  0.00  0.00    +0.000 A 
BRANCH  23  24
ATOM     24  O   UNL     1       0.706   8.419  21.215  0.00  0.00    +0.000 OA
BRANCH  24  25
ATOM     25  C   UNL     1       0.965   9.484  22.073  0.00  0.00    +0.000 C 
BRANCH  25  26
ATOM     26  C   UNL     1      -0.151  10.495  22.055  0.00  0.00    +0.000 A 
ATOM     27  C   UNL     1      -0.354  11.316  20.931  0.00  0.00    +0.000 A 
ATOM     28  C   UNL     1      -1.395  12.252  20.918  0.00  0.00    +0.000 A 
ATOM     29  C   UNL     1      -2.242  12.373  22.022  0.00  0.00    +0.000 A 
ATOM     30 CL   UNL     1      -3.542  13.553  22.012  0.00  0.00    +0.000 Cl
ATOM     31  C   UNL     1      -2.053  11.553  23.138  0.00  0.00    +0.000 A 
ATOM     32  C   UNL     1      -1.016  10.614  23.154  0.00  0.00    +0.000 A 
ENDBRANCH  25  26
ENDBRANCH  24  25
ENDBRANCH  23  24
ENDBRANCH  17  18
ENDBRANCH   1  17
TORSDOF 10
ENDMDL
MODEL 2
REMARK VINA RESULT:      -7.7      4.574      9.168
REMARK  Name = 
REMARK  10 active torsions:
REMARK  status: ('A' for Active; 'I' for Inactive)
REMARK    1  A    between atoms: N_1  and  S_2
REMARK    2  A    between atoms: S_2  and  C_5
REMARK    3  A    between atoms: C_8  and  C_9
REMARK    4  A    between atoms: C_9  and  C_10
REMARK    5  A    between atoms: C_10  and  N_11
REMARK    6  A    between atoms: N_11  and  C_12
REMARK    7  A    between atoms: C_12  and  C_13
REMARK    8  A    between atoms: C_18  and  O_19
REMARK    9  A    between atoms: O_19  and  C_20
REMARK   10  A    between atoms: C_20  and  C_21
REMARK                            x       y       z     vdW  Elec       q    Type
REMARK                         _______ _______ _______ _____ _____    ______ ____
ROOT
ATOM      1  N   UNL     1       2.244   7.127  18.305  0.00  0.00    +0.000 NA
ATOM      2  H   UNL     1       2.858   7.411  17.505  0.00  0.00    +0.000 HD
ENDROOT
BRANCH   1   3
ATOM      3  C   UNL     1       1.851   8.317  19.062  0.00  0.00    +0.000 C 
BRANCH   3   4
ATOM      4  C   UNL     1       1.545   7.989  20.529  0.00  0.00    +0.000 C 
BRANCH   4   8
ATOM      5  C   UNL     1      -0.877  11.095  22.174  0.00  0.00    +0.000 A 
ATOM      6  C   UNL     1      -0.257  11.277  20.935  0.00  0.00    +0.000 A 
ATOM      7  C   UNL     1       0.528  10.268  20.406  0.00  0.00    +0.000 A 
ATOM      8  C   UNL     1       0.716   9.071  21.116  0.00  0.00    +0.000 A 
ATOM      9  C   UNL     1       0.096   8.896  22.362  0.00  0.00    +0.000 A 
ATOM     10  C   UNL     1      -0.694   9.903  22.886  0.00  0.00    +0.000 A 
BRANCH   5  11
ATOM     11  S   UNL     1      -1.950  12.356  22.798  0.00  0.00    +0.000 S 
ATOM     12  O   UNL     1      -3.084  11.842  23.696  0.00  0.00    +0.000 OA
ATOM     13  O   UNL     1      -2.682  13.136  21.696  0.00  0.00    +0.000 OA
BRANCH  11  14
ATOM     14  N   UNL     1      -1.096  13.574  23.743  0.00  0.00    +0.000 NA
ATOM     15  H   UNL     1      -0.491  14.124  23.097  0.00  0.00    +0.000 HD
ATOM     16  H   UNL     1      -0.465  13.051  24.393  0.00  0.00    +0.000 HD
ENDBRANCH  11  14
ENDBRANCH   5  11
ENDBRANCH   4   8
ENDBRANCH   3   4
ENDBRANCH   1   3
BRANCH   1  17
ATOM     17  C   UNL     1       2.944   6.117  19.111  0.00  0.00    +0.000 C 
BRANCH  17  18
ATOM     18  C   UNL     1       2.327   4.731  19.029  0.00  0.00    +0.000 A 
ATOM     19  C   UNL     1       1.403   4.368  20.029  0.00  0.00    +0.000 A 
ATOM     20  C   UNL     1       0.830   3.099  20.050  0.00  0.00    +0.000 A 
ATOM     21  C   UNL     1       1.163   2.170  19.069  0.00  0.00    +0.000 A 
ATOM     22  C   UNL     1       2.045   2.516  18.047  0.00  0.00    +0.000 A 
ATOM     23  C   UNL     1       2.639   3.795  18.001  0.00  0.00    +0.000 A 
BRANCH  23  24
ATOM     24  O   UNL     1       3.472   4.146  16.972  0.00  0.00    +0.000 OA
BRANCH  24  25
ATOM     25  C   UNL     1       4.809   3.767  16.875  0.00  0.00    +0.000 C 
BRANCH  25  26
ATOM     26  C   UNL     1       5.733   4.896  17.248  0.00  0.00    +0.000 A 
ATOM     27  C   UNL     1       5.584   6.166  16.662  0.00  0.00    +0.000 A 
ATOM     28  C   UNL     1       6.445   7.213  17.015  0.00  0.00    +0.000 A 
ATOM     29  C   UNL     1       7.455   7.002  17.955  0.00  0.00    +0.000 A 
ATOM     30 CL   UNL     1       8.542   8.310  18.392  0.00  0.00    +0.000 Cl
ATOM     31  C   UNL     1       7.603   5.745  18.549  0.00  0.00    +0.000 A 
ATOM     32  C   UNL     1       6.744   4.697  18.202  0.00  0.00    +0.000 A 
ENDBRANCH  25  26
ENDBRANCH  24  25
ENDBRANCH  23  24
ENDBRANCH  17  18
ENDBRANCH   1  17
TORSDOF 10
ENDMDL
MODEL 3
REMARK VINA RESULT:      -7.7      4.638      9.351
REMARK  Name = 
REMARK  10 active torsions:
REMARK  status: ('A' for Active; 'I' for Inactive)
REMARK    1  A    between atoms: N_1  and  S_2
REMARK    2  A    between atoms: S_2  and  C_5
REMARK    3  A    between atoms: C_8  and  C_9
REMARK    4  A    between atoms: C_9  and  C_10
REMARK    5  A    between atoms: C_10  and  N_11
REMARK    6  A    between atoms: N_11  and  C_12
REMARK    7  A    between atoms: C_12  and  C_13
REMARK    8  A    between atoms: C_18  and  O_19
REMARK    9  A    between atoms: O_19  and  C_20
REMARK   10  A    between atoms: C_20  and  C_21
REMARK                            x       y       z     vdW  Elec       q    Type
REMARK                         _______ _______ _______ _____ _____    ______ ____
ROOT
ATOM      1  N   UNL     1       2.682   6.863  19.859  0.00  0.00    +0.000 NA
ATOM      2  H   UNL     1       2.609   6.185  20.654  0.00  0.00    +0.000 HD
ENDROOT
BRANCH   1   3
ATOM      3  C   UNL     1       1.753   7.973  20.080  0.00  0.00    +0.000 C 
BRANCH   3   4
ATOM      4  C   UNL     1       1.155   7.948  21.492  0.00  0.00    +0.000 C 
BRANCH   4   8
ATOM      5  C   UNL     1      -0.740  11.677  22.343  0.00  0.00    +0.000 A 
ATOM      6  C   UNL     1      -1.009  10.561  23.139  0.00  0.00    +0.000 A 
ATOM      7  C   UNL     1      -0.393   9.355  22.859  0.00  0.00    +0.000 A 
ATOM      8  C   UNL     1       0.487   9.244  21.770  0.00  0.00    +0.000 A 
ATOM      9  C   UNL     1       0.749  10.367  20.971  0.00  0.00    +0.000 A 
ATOM     10  C   UNL     1       0.138  11.574  21.257  0.00  0.00    +0.000 A 
BRANCH   5  11
ATOM     11  S   UNL     1      -1.464  13.236  22.765  0.00  0.00    +0.000 S 
ATOM     12  O   UNL     1      -0.734  13.996  23.882  0.00  0.00    +0.000 OA
ATOM     13  O   UNL     1      -2.904  13.121  23.283  0.00  0.00    +0.000 OA
BRANCH  11  14
ATOM     14  N   UNL     1      -1.547  14.344  21.397  0.00  0.00    +0.000 NA
ATOM     15  H   UNL     1      -2.458  14.198  20.913  0.00  0.00    +0.000 HD
ATOM     16  H   UNL     1      -0.790  14.050  20.736  0.00  0.00    +0.000 HD
ENDBRANCH  11  14
ENDBRANCH   5  11
ENDBRANCH   4   8
ENDBRANCH   3   4
ENDBRANCH   1   3
BRANCH   1  17
ATOM     17  C   UNL     1       2.457   6.146  18.596  0.00  0.00    +0.000 C 
BRANCH  17  18
ATOM     18  C   UNL     1       2.156   4.668  18.774  0.00  0.00    +0.000 A 
ATOM     19  C   UNL     1       1.295   4.300  19.827  0.00  0.00    +0.000 A 
ATOM     20  C   UNL     1       1.008   2.962  20.085  0.00  0.00    +0.000 A 
ATOM     21  C   UNL     1       1.569   1.966  19.293  0.00  0.00    +0.000 A 
ATOM     22  C   UNL     1       2.395   2.305  18.221  0.00  0.00    +0.000 A 
ATOM     23  C   UNL     1       2.701   3.652  17.937  0.00  0.00    +0.000 A 
BRANCH  23  24
ATOM     24  O   UNL     1       3.477   3.983  16.858  0.00  0.00    +0.000 OA
BRANCH  24  25
ATOM     25  C   UNL     1       4.827   3.666  16.731  0.00  0.00    +0.000 C 
BRANCH  25  26
ATOM     26  C   UNL     1       5.708   4.824  17.122  0.00  0.00    +0.000 A 
ATOM     27  C   UNL     1       6.807   4.629  17.978  0.00  0.00    +0.000 A 
ATOM     28  C   UNL     1       7.624   5.708  18.336  0.00  0.00    +0.000 A 
ATOM     29  C   UNL     1       7.354   6.986  17.840  0.00  0.00    +0.000 A 
ATOM     30 CL   UNL     1       8.371   8.343  18.294  0.00  0.00    +0.000 Cl
ATOM     31  C   UNL     1       6.270   7.184  16.979  0.00  0.00    +0.000 A 
ATOM     32  C   UNL     1       5.453   6.108  16.617  0.00  0.00    +0.000 A 
ENDBRANCH  25  26
ENDBRANCH  24  25
ENDBRANCH  23  24
ENDBRANCH  17  18
ENDBRANCH   1  17
TORSDOF 10
ENDMDL
MODEL 4
REMARK VINA RESULT:      -7.5      0.959      1.692
REMARK  Name = 
REMARK  10 active torsions:
REMARK  status: ('A' for Active; 'I' for Inactive)
REMARK    1  A    between atoms: N_1  and  S_2
REMARK    2  A    between atoms: S_2  and  C_5
REMARK    3  A    between atoms: C_8  and  C_9
REMARK    4  A    between atoms: C_9  and  C_10
REMARK    5  A    between atoms: C_10  and  N_11
REMARK    6  A    between atoms: N_11  and  C_12
REMARK    7  A    between atoms: C_12  and  C_13
REMARK    8  A    between atoms: C_18  and  O_19
REMARK    9  A    between atoms: O_19  and  C_20
REMARK   10  A    between atoms: C_20  and  C_21
REMARK                            x       y       z     vdW  Elec       q    Type
REMARK                         _______ _______ _______ _____ _____    ______ ____
ROOT
ATOM      1  N   UNL     1       1.783   4.562  20.214  0.00  0.00    +0.000 NA
ATOM      2  H   UNL     1       0.770   4.329  20.085  0.00  0.00    +0.000 HD
ENDROOT
BRANCH   1   3
ATOM      3  C   UNL     1       2.425   3.515  21.009  0.00  0.00    +0.000 C 
BRANCH   3   4
ATOM      4  C   UNL     1       3.201   2.523  20.134  0.00  0.00    +0.000 C 
BRANCH   4   8
ATOM      5  C   UNL     1       5.264   4.607  17.033  0.00  0.00    +0.000 A 
ATOM      6  C   UNL     1       5.722   4.688  18.351  0.00  0.00    +0.000 A 
ATOM      7  C   UNL     1       5.050   4.012  19.352  0.00  0.00    +0.000 A 
ATOM      8  C   UNL     1       3.902   3.259  19.053  0.00  0.00    +0.000 A 
ATOM      9  C   UNL     1       3.444   3.186  17.729  0.00  0.00    +0.000 A 
ATOM     10  C   UNL     1       4.122   3.858  16.727  0.00  0.00    +0.000 A 
BRANCH   5  11
ATOM     11  S   UNL     1       6.184   5.403  15.747  0.00  0.00    +0.000 S 
ATOM     12  O   UNL     1       7.515   6.019  16.203  0.00  0.00    +0.000 OA
ATOM     13  O   UNL     1       5.440   6.581  15.102  0.00  0.00    +0.000 OA
BRANCH  11  14
ATOM     14  N   UNL     1       6.581   4.317  14.418  0.00  0.00    +0.000 NA
ATOM     15  H   UNL     1       7.304   3.644  14.750  0.00  0.00    +0.000 HD
ATOM     16  H   UNL     1       7.022   4.910  13.677  0.00  0.00    +0.000 HD
ENDBRANCH  11  14
ENDBRANCH   5  11
ENDBRANCH   4   8
ENDBRANCH   3   4
ENDBRANCH   1   3
BRANCH   1  17
ATOM     17  C   UNL     1       1.895   5.905  20.801  0.00  0.00    +0.000 C 
BRANCH  17  18
ATOM     18  C   UNL     1       1.987   7.019  19.773  0.00  0.00    +0.000 A 
ATOM     19  C   UNL     1       2.722   6.763  18.598  0.00  0.00    +0.000 A 
ATOM     20  C   UNL     1       2.891   7.749  17.629  0.00  0.00    +0.000 A 
ATOM     21  C   UNL     1       2.326   9.007  17.811  0.00  0.00    +0.000 A 
ATOM     22  C   UNL     1       1.563   9.274  18.947  0.00  0.00    +0.000 A 
ATOM     23  C   UNL     1       1.374   8.294  19.943  0.00  0.00    +0.000 A 
BRANCH  23  24
ATOM     24  O   UNL     1       0.588   8.546  21.036  0.00  0.00    +0.000 OA
BRANCH  24  25
ATOM     25  C   UNL     1       0.811   9.576  21.947  0.00  0.00    +0.000 C 
BRANCH  25  26
ATOM     26  C   UNL     1      -0.333  10.555  21.967  0.00  0.00    +0.000 A 
ATOM     27  C   UNL     1      -1.046  10.798  23.155  0.00  0.00    +0.000 A 
ATOM     28  C   UNL     1      -2.107  11.712  23.168  0.00  0.00    +0.000 A 
ATOM     29  C   UNL     1      -2.461  12.391  22.000  0.00  0.00    +0.000 A 
ATOM     30 CL   UNL     1      -3.796  13.531  22.012  0.00  0.00    +0.000 Cl
ATOM     31  C   UNL     1      -1.749  12.163  20.819  0.00  0.00    +0.000 A 
ATOM     32  C   UNL     1      -0.687  11.254  20.801  0.00  0.00    +0.000 A 
ENDBRANCH  25  26
ENDBRANCH  24  25
ENDBRANCH  23  24
ENDBRANCH  17  18
ENDBRANCH   1  17
TORSDOF 10
ENDMDL
MODEL 5
REMARK VINA RESULT:      -7.3      4.516      8.945
REMARK  Name = 
REMARK  10 active torsions:
REMARK  status: ('A' for Active; 'I' for Inactive)
REMARK    1  A    between atoms: N_1  and  S_2
REMARK    2  A    between atoms: S_2  and  C_5
REMARK    3  A    between atoms: C_8  and  C_9
REMARK    4  A    between atoms: C_9  and  C_10
REMARK    5  A    between atoms: C_10  and  N_11
REMARK    6  A    between atoms: N_11  and  C_12
REMARK    7  A    between atoms: C_12  and  C_13
REMARK    8  A    between atoms: C_18  and  O_19
REMARK    9  A    between atoms: O_19  and  C_20
REMARK   10  A    between atoms: C_20  and  C_21
REMARK                            x       y       z     vdW  Elec       q    Type
REMARK                         _______ _______ _______ _____ _____    ______ ____
ROOT
ATOM      1  N   UNL     1       2.160   7.398  19.266  0.00  0.00    +0.000 NA
ATOM      2  H   UNL     1       1.193   7.036  19.090  0.00  0.00    +0.000 HD
ENDROOT
BRANCH   1   3
ATOM      3  C   UNL     1       2.528   8.336  18.204  0.00  0.00    +0.000 C 
BRANCH   3   4
ATOM      4  C   UNL     1       1.320   9.140  17.705  0.00  0.00    +0.000 C 
BRANCH   4   8
ATOM      5  C   UNL     1       0.597  12.366  20.404  0.00  0.00    +0.000 A 
ATOM      6  C   UNL     1      -0.201  11.220  20.458  0.00  0.00    +0.000 A 
ATOM      7  C   UNL     1       0.037  10.178  19.581  0.00  0.00    +0.000 A 
ATOM      8  C   UNL     1       1.064  10.273  18.628  0.00  0.00    +0.000 A 
ATOM      9  C   UNL     1       1.859  11.429  18.575  0.00  0.00    +0.000 A 
ATOM     10  C   UNL     1       1.624  12.467  19.458  0.00  0.00    +0.000 A 
BRANCH   5  11
ATOM     11  S   UNL     1       0.342  13.655  21.590  0.00  0.00    +0.000 S 
ATOM     12  O   UNL     1      -0.484  14.841  21.075  0.00  0.00    +0.000 OA
ATOM     13  O   UNL     1       1.645  14.303  22.079  0.00  0.00    +0.000 OA
BRANCH  11  14
ATOM     14  N   UNL     1      -0.474  13.091  23.047  0.00  0.00    +0.000 NA
ATOM     15  H   UNL     1       0.135  13.304  23.866  0.00  0.00    +0.000 HD
ATOM     16  H   UNL     1      -0.533  12.049  22.965  0.00  0.00    +0.000 HD
ENDBRANCH  11  14
ENDBRANCH   5  11
ENDBRANCH   4   8
ENDBRANCH   3   4
ENDBRANCH   1   3
BRANCH   1  17
ATOM     17  C   UNL     1       3.082   6.261  19.397  0.00  0.00    +0.000 C 
BRANCH  17  18
ATOM     18  C   UNL     1       2.390   4.908  19.405  0.00  0.00    +0.000 A 
ATOM     19  C   UNL     1       1.655   4.559  20.556  0.00  0.00    +0.000 A 
ATOM     20  C   UNL     1       1.032   3.318  20.659  0.00  0.00    +0.000 A 
ATOM     21  C   UNL     1       1.125   2.404  19.614  0.00  0.00    +0.000 A 
ATOM     22  C   UNL     1       1.814   2.740  18.450  0.00  0.00    +0.000 A 
ATOM     23  C   UNL     1       2.453   3.990  18.318  0.00  0.00    +0.000 A 
BRANCH  23  24
ATOM     24  O   UNL     1       3.094   4.333  17.156  0.00  0.00    +0.000 OA
BRANCH  24  25
ATOM     25  C   UNL     1       4.385   3.934  16.821  0.00  0.00    +0.000 C 
BRANCH  25  26
ATOM     26  C   UNL     1       5.406   4.963  17.231  0.00  0.00    +0.000 A 
ATOM     27  C   UNL     1       6.348   4.675  18.236  0.00  0.00    +0.000 A 
ATOM     28  C   UNL     1       7.297   5.633  18.612  0.00  0.00    +0.000 A 
ATOM     29  C   UNL     1       7.315   6.882  17.987  0.00  0.00    +0.000 A 
ATOM     30 CL   UNL     1       8.498   8.090  18.462  0.00  0.00    +0.000 Cl
ATOM     31  C   UNL     1       6.389   7.172  16.980  0.00  0.00    +0.000 A 
ATOM     32  C   UNL     1       5.442   6.216  16.600  0.00  0.00    +0.000 A 
ENDBRANCH  25  26
ENDBRANCH  24  25
ENDBRANCH  23  24
ENDBRANCH  17  18
ENDBRANCH   1  17
TORSDOF 10
ENDMDL
MODEL 6
REMARK VINA RESULT:      -7.3      4.584      9.317
REMARK  Name = 
REMARK  10 active torsions:
REMARK  status: ('A' for Active; 'I' for Inactive)
REMARK    1  A    between atoms: N_1  and  S_2
REMARK    2  A    between atoms: S_2  and  C_5
REMARK    3  A    between atoms: C_8  and  C_9
REMARK    4  A    between atoms: C_9  and  C_10
REMARK    5  A    between atoms: C_10  and  N_11
REMARK    6  A    between atoms: N_11  and  C_12
REMARK    7  A    between atoms: C_12  and  C_13
REMARK    8  A    between atoms: C_18  and  O_19
REMARK    9  A    between atoms: O_19  and  C_20
REMARK   10  A    between atoms: C_20  and  C_21
REMARK                            x       y       z     vdW  Elec       q    Type
REMARK                         _______ _______ _______ _____ _____    ______ ____
ROOT
ATOM      1  N   UNL     1       2.671   7.193  19.409  0.00  0.00    +0.000 NA
ATOM      2  H   UNL     1       2.979   6.728  20.295  0.00  0.00    +0.000 HD
ENDROOT
BRANCH   1   3
ATOM      3  C   UNL     1       1.734   8.272  19.728  0.00  0.00    +0.000 C 
BRANCH   3   4
ATOM      4  C   UNL     1       1.216   8.175  21.168  0.00  0.00    +0.000 C 
BRANCH   4   8
ATOM      5  C   UNL     1      -1.348  11.484  22.003  0.00  0.00    +0.000 A 
ATOM      6  C   UNL     1      -0.986  10.607  23.029  0.00  0.00    +0.000 A 
ATOM      7  C   UNL     1      -0.156   9.535  22.754  0.00  0.00    +0.000 A 
ATOM      8  C   UNL     1       0.310   9.317  21.446  0.00  0.00    +0.000 A 
ATOM      9  C   UNL     1      -0.061  10.199  20.420  0.00  0.00    +0.000 A 
ATOM     10  C   UNL     1      -0.886  11.273  20.699  0.00  0.00    +0.000 A 
BRANCH   5  11
ATOM     11  S   UNL     1      -2.337  12.901  22.386  0.00  0.00    +0.000 S 
ATOM     12  O   UNL     1      -1.684  14.246  22.039  0.00  0.00    +0.000 OA
ATOM     13  O   UNL     1      -2.667  13.031  23.880  0.00  0.00    +0.000 OA
BRANCH  11  14
ATOM     14  N   UNL     1      -3.895  12.889  21.564  0.00  0.00    +0.000 NA
ATOM     15  H   UNL     1      -4.138  11.902  21.335  0.00  0.00    +0.000 HD
ATOM     16  H   UNL     1      -3.752  13.394  20.658  0.00  0.00    +0.000 HD
ENDBRANCH  11  14
ENDBRANCH   5  11
ENDBRANCH   4   8
ENDBRANCH   3   4
ENDBRANCH   1   3
BRANCH   1  17
ATOM     17  C   UNL     1       2.118   6.178  18.501  0.00  0.00    +0.000 C 
BRANCH  17  18
ATOM     18  C   UNL     1       2.022   4.792  19.116  0.00  0.00    +0.000 A 
ATOM     19  C   UNL     1       1.381   4.676  20.366  0.00  0.00    +0.000 A 
ATOM     20  C   UNL     1       1.295   3.448  21.016  0.00  0.00    +0.000 A 
ATOM     21  C   UNL     1       1.840   2.310  20.429  0.00  0.00    +0.000 A 
ATOM     22  C   UNL     1       2.447   2.391  19.177  0.00  0.00    +0.000 A 
ATOM     23  C   UNL     1       2.547   3.622  18.495  0.00  0.00    +0.000 A 
BRANCH  23  24
ATOM     24  O   UNL     1       3.105   3.690  17.246  0.00  0.00    +0.000 OA
BRANCH  24  25
ATOM     25  C   UNL     1       4.441   3.418  16.964  0.00  0.00    +0.000 C 
BRANCH  25  26
ATOM     26  C   UNL     1       5.307   4.636  17.154  0.00  0.00    +0.000 A 
ATOM     27  C   UNL     1       5.034   5.824  16.453  0.00  0.00    +0.000 A 
ATOM     28  C   UNL     1       5.840   6.954  16.636  0.00  0.00    +0.000 A 
ATOM     29  C   UNL     1       6.920   6.908  17.521  0.00  0.00    +0.000 A 
ATOM     30 CL   UNL     1       7.939   8.320  17.745  0.00  0.00    +0.000 Cl
ATOM     31  C   UNL     1       7.191   5.733  18.229  0.00  0.00    +0.000 A 
ATOM     32  C   UNL     1       6.386   4.603  18.052  0.00  0.00    +0.000 A 
ENDBRANCH  25  26
ENDBRANCH  24  25
ENDBRANCH  23  24
ENDBRANCH  17  18
ENDBRANCH   1  17
TORSDOF 10
ENDMDL
MODEL 7
REMARK VINA RESULT:      -7.3      4.977      9.708
REMARK  Name = 
REMARK  10 active torsions:
REMARK  status: ('A' for Active; 'I' for Inactive)
REMARK    1  A    between atoms: N_1  and  S_2
REMARK    2  A    between atoms: S_2  and  C_5
REMARK    3  A    between atoms: C_8  and  C_9
REMARK    4  A    between atoms: C_9  and  C_10
REMARK    5  A    between atoms: C_10  and  N_11
REMARK    6  A    between atoms: N_11  and  C_12
REMARK    7  A    between atoms: C_12  and  C_13
REMARK    8  A    between atoms: C_18  and  O_19
REMARK    9  A    between atoms: O_19  and  C_20
REMARK   10  A    between atoms: C_20  and  C_21
REMARK                            x       y       z     vdW  Elec       q    Type
REMARK                         _______ _______ _______ _____ _____    ______ ____
ROOT
ATOM      1  N   UNL     1       2.175   6.634  20.487  0.00  0.00    +0.000 NA
ATOM      2  H   UNL     1       3.129   7.016  20.692  0.00  0.00    +0.000 HD
ENDROOT
BRANCH   1   3
ATOM      3  C   UNL     1       1.162   7.540  21.030  0.00  0.00    +0.000 C 
BRANCH   3   4
ATOM      4  C   UNL     1       1.675   8.982  21.129  0.00  0.00    +0.000 C 
BRANCH   4   8
ATOM      5  C   UNL     1      -1.484  11.498  22.511  0.00  0.00    +0.000 A 
ATOM      6  C   UNL     1      -0.834  11.792  21.309  0.00  0.00    +0.000 A 
ATOM      7  C   UNL     1       0.189  10.974  20.866  0.00  0.00    +0.000 A 
ATOM      8  C   UNL     1       0.588   9.862  21.626  0.00  0.00    +0.000 A 
ATOM      9  C   UNL     1      -0.065   9.575  22.834  0.00  0.00    +0.000 A 
ATOM     10  C   UNL     1      -1.093  10.390  23.272  0.00  0.00    +0.000 A 
BRANCH   5  11
ATOM     11  S   UNL     1      -2.851  12.499  23.023  0.00  0.00    +0.000 S 
ATOM     12  O   UNL     1      -3.731  11.868  24.111  0.00  0.00    +0.000 OA
ATOM     13  O   UNL     1      -3.839  12.809  21.889  0.00  0.00    +0.000 OA
BRANCH  11  14
ATOM     14  N   UNL     1      -2.352  14.068  23.650  0.00  0.00    +0.000 NA
ATOM     15  H   UNL     1      -3.167  14.716  23.597  0.00  0.00    +0.000 HD
ATOM     16  H   UNL     1      -1.624  14.429  22.990  0.00  0.00    +0.000 HD
ENDBRANCH  11  14
ENDBRANCH   5  11
ENDBRANCH   4   8
ENDBRANCH   3   4
ENDBRANCH   1   3
BRANCH   1  17
ATOM     17  C   UNL     1       2.085   5.264  21.010  0.00  0.00    +0.000 C 
BRANCH  17  18
ATOM     18  C   UNL     1       2.212   4.190  19.943  0.00  0.00    +0.000 A 
ATOM     19  C   UNL     1       1.032   3.546  19.522  0.00  0.00    +0.000 A 
ATOM     20  C   UNL     1       1.071   2.519  18.582  0.00  0.00    +0.000 A 
ATOM     21  C   UNL     1       2.288   2.119  18.039  0.00  0.00    +0.000 A 
ATOM     22  C   UNL     1       3.466   2.766  18.411  0.00  0.00    +0.000 A 
ATOM     23  C   UNL     1       3.455   3.810  19.359  0.00  0.00    +0.000 A 
BRANCH  23  24
ATOM     24  O   UNL     1       4.609   4.471  19.690  0.00  0.00    +0.000 OA
BRANCH  24  25
ATOM     25  C   UNL     1       5.039   5.652  19.091  0.00  0.00    +0.000 C 
BRANCH  25  26
ATOM     26  C   UNL     1       5.543   5.412  17.692  0.00  0.00    +0.000 A 
ATOM     27  C   UNL     1       6.685   4.621  17.469  0.00  0.00    +0.000 A 
ATOM     28  C   UNL     1       7.148   4.399  16.166  0.00  0.00    +0.000 A 
ATOM     29  C   UNL     1       6.474   4.961  15.079  0.00  0.00    +0.000 A 
ATOM     30 CL   UNL     1       7.057   4.692  13.445  0.00  0.00    +0.000 Cl
ATOM     31  C   UNL     1       5.333   5.740  15.293  0.00  0.00    +0.000 A 
ATOM     32  C   UNL     1       4.866   5.962  16.592  0.00  0.00    +0.000 A 
ENDBRANCH  25  26
ENDBRANCH  24  25
ENDBRANCH  23  24
ENDBRANCH  17  18
ENDBRANCH   1  17
TORSDOF 10
ENDMDL
MODEL 8
REMARK VINA RESULT:      -7.2      4.623      9.196
REMARK  Name = 
REMARK  10 active torsions:
REMARK  status: ('A' for Active; 'I' for Inactive)
REMARK    1  A    between atoms: N_1  and  S_2
REMARK    2  A    between atoms: S_2  and  C_5
REMARK    3  A    between atoms: C_8  and  C_9
REMARK    4  A    between atoms: C_9  and  C_10
REMARK    5  A    between atoms: C_10  and  N_11
REMARK    6  A    between atoms: N_11  and  C_12
REMARK    7  A    between atoms: C_12  and  C_13
REMARK    8  A    between atoms: C_18  and  O_19
REMARK    9  A    between atoms: O_19  and  C_20
REMARK   10  A    between atoms: C_20  and  C_21
REMARK                            x       y       z     vdW  Elec       q    Type
REMARK                         _______ _______ _______ _____ _____    ______ ____
ROOT
ATOM      1  N   UNL     1       2.174   7.025  18.375  0.00  0.00    +0.000 NA
ATOM      2  H   UNL     1       2.625   6.907  17.437  0.00  0.00    +0.000 HD
ENDROOT
BRANCH   1   3
ATOM      3  C   UNL     1       2.247   8.430  18.776  0.00  0.00    +0.000 C 
BRANCH   3   4
ATOM      4  C   UNL     1       1.546   9.352  17.770  0.00  0.00    +0.000 C 
BRANCH   4   8
ATOM      5  C   UNL     1      -1.401  11.712  19.759  0.00  0.00    +0.000 A 
ATOM      6  C   UNL     1      -0.059  11.811  20.135  0.00  0.00    +0.000 A 
ATOM      7  C   UNL     1       0.892  11.044  19.488  0.00  0.00    +0.000 A 
ATOM      8  C   UNL     1       0.513  10.155  18.469  0.00  0.00    +0.000 A 
ATOM      9  C   UNL     1      -0.837  10.056  18.099  0.00  0.00    +0.000 A 
ATOM     10  C   UNL     1      -1.786  10.829  18.743  0.00  0.00    +0.000 A 
BRANCH   5  11
ATOM     11  S   UNL     1      -2.596  12.764  20.533  0.00  0.00    +0.000 S 
ATOM     12  O   UNL     1      -3.982  12.748  19.872  0.00  0.00    +0.000 OA
ATOM     13  O   UNL     1      -2.203  14.248  20.519  0.00  0.00    +0.000 OA
BRANCH  11  14
ATOM     14  N   UNL     1      -2.861  12.367  22.229  0.00  0.00    +0.000 NA
ATOM     15  H   UNL     1      -1.935  12.327  22.704  0.00  0.00    +0.000 HD
ATOM     16  H   UNL     1      -3.262  11.400  22.244  0.00  0.00    +0.000 HD
ENDBRANCH  11  14
ENDBRANCH   5  11
ENDBRANCH   4   8
ENDBRANCH   3   4
ENDBRANCH   1   3
BRANCH   1  17
ATOM     17  C   UNL     1       2.807   6.103  19.329  0.00  0.00    +0.000 C 
BRANCH  17  18
ATOM     18  C   UNL     1       2.276   4.682  19.254  0.00  0.00    +0.000 A 
ATOM     19  C   UNL     1       1.448   4.239  20.305  0.00  0.00    +0.000 A 
ATOM     20  C   UNL     1       0.960   2.935  20.332  0.00  0.00    +0.000 A 
ATOM     21  C   UNL     1       1.284   2.049  19.308  0.00  0.00    +0.000 A 
ATOM     22  C   UNL     1       2.072   2.474  18.239  0.00  0.00    +0.000 A 
ATOM     23  C   UNL     1       2.577   3.789  18.185  0.00  0.00    +0.000 A 
BRANCH  23  24
ATOM     24  O   UNL     1       3.314   4.215  17.112  0.00  0.00    +0.000 OA
BRANCH  24  25
ATOM     25  C   UNL     1       4.641   3.864  16.877  0.00  0.00    +0.000 C 
BRANCH  25  26
ATOM     26  C   UNL     1       5.582   4.990  17.217  0.00  0.00    +0.000 A 
ATOM     27  C   UNL     1       5.384   6.275  16.678  0.00  0.00    +0.000 A 
ATOM     28  C   UNL     1       6.259   7.319  16.999  0.00  0.00    +0.000 A 
ATOM     29  C   UNL     1       7.334   7.091  17.862  0.00  0.00    +0.000 A 
ATOM     30 CL   UNL     1       8.439   8.397  18.259  0.00  0.00    +0.000 Cl
ATOM     31  C   UNL     1       7.530   5.820  18.410  0.00  0.00    +0.000 A 
ATOM     32  C   UNL     1       6.656   4.775  18.094  0.00  0.00    +0.000 A 
ENDBRANCH  25  26
ENDBRANCH  24  25
ENDBRANCH  23  24
ENDBRANCH  17  18
ENDBRANCH   1  17
TORSDOF 10
ENDMDL
MODEL 9
REMARK VINA RESULT:      -7.2      4.947      9.643
REMARK  Name = 
REMARK  10 active torsions:
REMARK  status: ('A' for Active; 'I' for Inactive)
REMARK    1  A    between atoms: N_1  and  S_2
REMARK    2  A    between atoms: S_2  and  C_5
REMARK    3  A    between atoms: C_8  and  C_9
REMARK    4  A    between atoms: C_9  and  C_10
REMARK    5  A    between atoms: C_10  and  N_11
REMARK    6  A    between atoms: N_11  and  C_12
REMARK    7  A    between atoms: C_12  and  C_13
REMARK    8  A    between atoms: C_18  and  O_19
REMARK    9  A    between atoms: O_19  and  C_20
REMARK   10  A    between atoms: C_20  and  C_21
REMARK                            x       y       z     vdW  Elec       q    Type
REMARK                         _______ _______ _______ _____ _____    ______ ____
ROOT
ATOM      1  N   UNL     1       2.297   6.587  20.518  0.00  0.00    +0.000 NA
ATOM      2  H   UNL     1       3.191   6.949  20.926  0.00  0.00    +0.000 HD
ENDROOT
BRANCH   1   3
ATOM      3  C   UNL     1       1.211   7.518  20.825  0.00  0.00    +0.000 C 
BRANCH   3   4
ATOM      4  C   UNL     1       1.647   8.603  21.818  0.00  0.00    +0.000 C 
BRANCH   4   8
ATOM      5  C   UNL     1      -1.418  11.543  22.240  0.00  0.00    +0.000 A 
ATOM      6  C   UNL     1      -1.215  10.598  23.250  0.00  0.00    +0.000 A 
ATOM      7  C   UNL     1      -0.221   9.647  23.108  0.00  0.00    +0.000 A 
ATOM      8  C   UNL     1       0.572   9.617  21.949  0.00  0.00    +0.000 A 
ATOM      9  C   UNL     1       0.360  10.565  20.936  0.00  0.00    +0.000 A 
ATOM     10  C   UNL     1      -0.630  11.520  21.083  0.00  0.00    +0.000 A 
BRANCH   5  11
ATOM     11  S   UNL     1      -2.632  12.810  22.473  0.00  0.00    +0.000 S 
ATOM     12  O   UNL     1      -3.941  12.328  23.115  0.00  0.00    +0.000 OA
ATOM     13  O   UNL     1      -3.088  13.467  21.162  0.00  0.00    +0.000 OA
BRANCH  11  14
ATOM     14  N   UNL     1      -2.053  14.133  23.482  0.00  0.00    +0.000 NA
ATOM     15  H   UNL     1      -1.039  14.273  23.290  0.00  0.00    +0.000 HD
ATOM     16  H   UNL     1      -2.141  13.806  24.473  0.00  0.00    +0.000 HD
ENDBRANCH  11  14
ENDBRANCH   5  11
ENDBRANCH   4   8
ENDBRANCH   3   4
ENDBRANCH   1   3
BRANCH   1  17
ATOM     17  C   UNL     1       2.064   5.222  21.011  0.00  0.00    +0.000 C 
BRANCH  17  18
ATOM     18  C   UNL     1       2.193   4.152  19.940  0.00  0.00    +0.000 A 
ATOM     19  C   UNL     1       1.011   3.520  19.505  0.00  0.00    +0.000 A 
ATOM     20  C   UNL     1       1.051   2.498  18.560  0.00  0.00    +0.000 A 
ATOM     21  C   UNL     1       2.270   2.090  18.027  0.00  0.00    +0.000 A 
ATOM     22  C   UNL     1       3.450   2.724  18.414  0.00  0.00    +0.000 A 
ATOM     23  C   UNL     1       3.438   3.764  19.367  0.00  0.00    +0.000 A 
BRANCH  23  24
ATOM     24  O   UNL     1       4.594   4.413  19.712  0.00  0.00    +0.000 OA
BRANCH  24  25
ATOM     25  C   UNL     1       5.033   5.602  19.134  0.00  0.00    +0.000 C 
BRANCH  25  26
ATOM     26  C   UNL     1       5.538   5.382  17.732  0.00  0.00    +0.000 A 
ATOM     27  C   UNL     1       4.845   5.917  16.630  0.00  0.00    +0.000 A 
ATOM     28  C   UNL     1       5.319   5.712  15.329  0.00  0.00    +0.000 A 
ATOM     29  C   UNL     1       6.488   4.977  15.118  0.00  0.00    +0.000 A 
ATOM     30 CL   UNL     1       7.081   4.711  13.487  0.00  0.00    +0.000 Cl
ATOM     31  C   UNL     1       7.188   4.452  16.209  0.00  0.00    +0.000 A 
ATOM     32  C   UNL     1       6.719   4.656  17.510  0.00  0.00    +0.000 A 
ENDBRANCH  25  26
ENDBRANCH  24  25
ENDBRANCH  23  24
ENDBRANCH  17  18
ENDBRANCH   1  17
TORSDOF 10
ENDMDL
