MODEL 1
REMARK VINA RESULT:      -8.0      0.000      0.000
REMARK  Name = 
REMARK  2 active torsions:
REMARK  status: ('A' for Active; 'I' for Inactive)
REMARK    1  A    between atoms: C_2  and  C_3
REMARK    2  A    between atoms: C_9  and  C_10
REMARK                            x       y       z     vdW  Elec       q    Type
REMARK                         _______ _______ _______ _____ _____    ______ ____
ROOT
ATOM      1  C   UNL     1       4.597   3.860  18.622  0.00  0.00    +0.000 A 
ATOM      2  N   UNL     1       4.501   2.692  19.276  0.00  0.00    +0.000 NA
ATOM      3  N   UNL     1       3.563   2.910  20.215  0.00  0.00    +0.000 N 
ATOM      4  C   UNL     1       3.020   4.162  20.187  0.00  0.00    +0.000 A 
ATOM      5  C   UNL     1       2.049   4.779  20.955  0.00  0.00    +0.000 A 
ATOM      6  N   UNL     1       1.707   6.062  20.669  0.00  0.00    +0.000 NA
ATOM      7  C   UNL     1       2.303   6.721  19.642  0.00  0.00    +0.000 A 
ATOM      8  C   UNL     1       3.266   6.119  18.835  0.00  0.00    +0.000 A 
ATOM      9  C   UNL     1       3.656   4.808  19.137  0.00  0.00    +0.000 A 
ATOM     10  H   UNL     1       3.334   2.149  20.846  0.00  0.00    +0.000 HD
ENDROOT
BRANCH   1  12
ATOM     11  C   UNL     1       6.795   4.483  17.700  0.00  0.00    +0.000 C 
ATOM     12  C   UNL     1       5.513   4.111  17.538  0.00  0.00    +0.000 C 
ATOM     13  C   UNL     1       4.951   3.916  16.153  0.00  0.00    +0.000 C 
ATOM     14  C   UNL     1       6.052   3.987  15.092  0.00  0.00    +0.000 C 
ATOM     15  C   UNL     1       7.042   5.085  15.445  0.00  0.00    +0.000 C 
ATOM     16  O   UNL     1       7.671   4.835  16.707  0.00  0.00    +0.000 OA
ENDBRANCH   1  12
BRANCH   7  17
ATOM     17  C   UNL     1       1.869   8.109  19.409  0.00  0.00    +0.000 A 
ATOM     18  C   UNL     1       2.070   8.771  18.186  0.00  0.00    +0.000 A 
ATOM     19  C   UNL     1       1.593  10.067  17.990  0.00  0.00    +0.000 A 
ATOM     20  C   UNL     1       0.927  10.682  19.033  0.00  0.00    +0.000 A 
ATOM     21  N   UNL     1       0.725  10.104  20.234  0.00  0.00    +0.000 NA
ATOM     22  C   UNL     1       1.205   8.842  20.392  0.00  0.00    +0.000 A 
ENDBRANCH   7  17
TORSDOF 2
ENDMDL
MODEL 2
REMARK VINA RESULT:      -7.9      0.691      1.074
REMARK  Name = 
REMARK  2 active torsions:
REMARK  status: ('A' for Active; 'I' for Inactive)
REMARK    1  A    between atoms: C_2  and  C_3
REMARK    2  A    between atoms: C_9  and  C_10
REMARK                            x       y       z     vdW  Elec       q    Type
REMARK                         _______ _______ _______ _____ _____    ______ ____
ROOT
ATOM      1  C   UNL     1       4.724   3.923  18.496  0.00  0.00    +0.000 A 
ATOM      2  N   UNL     1       4.675   2.784  19.205  0.00  0.00    +0.000 NA
ATOM      3  N   UNL     1       3.766   3.026  20.166  0.00  0.00    +0.000 N 
ATOM      4  C   UNL     1       3.196   4.264  20.101  0.00  0.00    +0.000 A 
ATOM      5  C   UNL     1       2.239   4.896  20.875  0.00  0.00    +0.000 A 
ATOM      6  N   UNL     1       1.860   6.158  20.545  0.00  0.00    +0.000 NA
ATOM      7  C   UNL     1       2.406   6.781  19.468  0.00  0.00    +0.000 A 
ATOM      8  C   UNL     1       3.353   6.162  18.655  0.00  0.00    +0.000 A 
ATOM      9  C   UNL     1       3.781   4.874  19.001  0.00  0.00    +0.000 A 
ATOM     10  H   UNL     1       3.576   2.290  20.837  0.00  0.00    +0.000 HD
ENDROOT
BRANCH   1  12
ATOM     11  C   UNL     1       6.899   4.458  17.472  0.00  0.00    +0.000 C 
ATOM     12  C   UNL     1       5.596   4.142  17.370  0.00  0.00    +0.000 C 
ATOM     13  C   UNL     1       4.959   3.983  16.013  0.00  0.00    +0.000 C 
ATOM     14  C   UNL     1       6.009   4.015  14.899  0.00  0.00    +0.000 C 
ATOM     15  C   UNL     1       7.062   5.066  15.210  0.00  0.00    +0.000 C 
ATOM     16  O   UNL     1       7.741   4.779  16.438  0.00  0.00    +0.000 OA
ENDBRANCH   1  12
BRANCH   7  17
ATOM     17  C   UNL     1       1.933   8.149  19.189  0.00  0.00    +0.000 A 
ATOM     18  C   UNL     1       1.186   8.897  20.113  0.00  0.00    +0.000 A 
ATOM     19  C   UNL     1       0.806  10.208  19.828  0.00  0.00    +0.000 A 
ATOM     20  C   UNL     1       1.177  10.745  18.612  0.00  0.00    +0.000 A 
ATOM     21  N   UNL     1       1.875  10.067  17.678  0.00  0.00    +0.000 NA
ATOM     22  C   UNL     1       2.226   8.791  17.987  0.00  0.00    +0.000 A 
ENDBRANCH   7  17
TORSDOF 2
ENDMDL
MODEL 3
REMARK VINA RESULT:      -7.9      2.271      6.287
REMARK  Name = 
REMARK  2 active torsions:
REMARK  status: ('A' for Active; 'I' for Inactive)
REMARK    1  A    between atoms: C_2  and  C_3
REMARK    2  A    between atoms: C_9  and  C_10
REMARK                            x       y       z     vdW  Elec       q    Type
REMARK                         _______ _______ _______ _____ _____    ______ ____
ROOT
ATOM      1  C   UNL     1       2.265   6.862  19.691  0.00  0.00    +0.000 A 
ATOM      2  N   UNL     1       1.804   6.325  20.832  0.00  0.00    +0.000 NA
ATOM      3  N   UNL     1       2.378   5.110  20.887  0.00  0.00    +0.000 N 
ATOM      4  C   UNL     1       3.218   4.839  19.847  0.00  0.00    +0.000 A 
ATOM      5  C   UNL     1       3.992   3.735  19.532  0.00  0.00    +0.000 A 
ATOM      6  N   UNL     1       4.750   3.769  18.405  0.00  0.00    +0.000 NA
ATOM      7  C   UNL     1       4.754   4.871  17.610  0.00  0.00    +0.000 A 
ATOM      8  C   UNL     1       4.005   6.006  17.915  0.00  0.00    +0.000 A 
ATOM      9  C   UNL     1       3.190   5.976  19.053  0.00  0.00    +0.000 A 
ATOM     10  H   UNL     1       2.155   4.514  21.676  0.00  0.00    +0.000 HD
ENDROOT
BRANCH   1  12
ATOM     11  C   UNL     1       2.174   8.612  17.960  0.00  0.00    +0.000 C 
ATOM     12  C   UNL     1       1.890   8.162  19.196  0.00  0.00    +0.000 C 
ATOM     13  C   UNL     1       1.121   9.029  20.158  0.00  0.00    +0.000 C 
ATOM     14  C   UNL     1       0.582  10.284  19.467  0.00  0.00    +0.000 C 
ATOM     15  C   UNL     1       1.619  10.828  18.499  0.00  0.00    +0.000 C 
ATOM     16  O   UNL     1       1.934   9.873  17.479  0.00  0.00    +0.000 OA
ENDBRANCH   1  12
BRANCH   7  17
ATOM     17  C   UNL     1       5.606   4.815  16.410  0.00  0.00    +0.000 A 
ATOM     18  C   UNL     1       5.267   4.061  15.274  0.00  0.00    +0.000 A 
ATOM     19  C   UNL     1       6.076   4.080  14.138  0.00  0.00    +0.000 A 
ATOM     20  C   UNL     1       7.221   4.852  14.166  0.00  0.00    +0.000 A 
ATOM     21  N   UNL     1       7.607   5.577  15.234  0.00  0.00    +0.000 NA
ATOM     22  C   UNL     1       6.797   5.534  16.326  0.00  0.00    +0.000 A 
ENDBRANCH   7  17
TORSDOF 2
ENDMDL
MODEL 4
REMARK VINA RESULT:      -7.8      2.505      6.192
REMARK  Name = 
REMARK  2 active torsions:
REMARK  status: ('A' for Active; 'I' for Inactive)
REMARK    1  A    between atoms: C_2  and  C_3
REMARK    2  A    between atoms: C_9  and  C_10
REMARK                            x       y       z     vdW  Elec       q    Type
REMARK                         _______ _______ _______ _____ _____    ______ ____
ROOT
ATOM      1  C   UNL     1       2.279   6.363  19.854  0.00  0.00    +0.000 A 
ATOM      2  N   UNL     1       1.806   5.706  20.924  0.00  0.00    +0.000 NA
ATOM      3  N   UNL     1       2.367   4.486  20.844  0.00  0.00    +0.000 N 
ATOM      4  C   UNL     1       3.210   4.325  19.783  0.00  0.00    +0.000 A 
ATOM      5  C   UNL     1       3.973   3.256  19.347  0.00  0.00    +0.000 A 
ATOM      6  N   UNL     1       4.737   3.409  18.235  0.00  0.00    +0.000 NA
ATOM      7  C   UNL     1       4.757   4.594  17.570  0.00  0.00    +0.000 A 
ATOM      8  C   UNL     1       4.020   5.696  17.999  0.00  0.00    +0.000 A 
ATOM      9  C   UNL     1       3.198   5.545  19.124  0.00  0.00    +0.000 A 
ATOM     10  H   UNL     1       2.133   3.806  21.559  0.00  0.00    +0.000 HD
ENDROOT
BRANCH   1  12
ATOM     11  C   UNL     1       1.437   8.617  20.381  0.00  0.00    +0.000 C 
ATOM     12  C   UNL     1       1.921   7.715  19.508  0.00  0.00    +0.000 C 
ATOM     13  C   UNL     1       2.133   8.096  18.065  0.00  0.00    +0.000 C 
ATOM     14  C   UNL     1       1.937   9.599  17.853  0.00  0.00    +0.000 C 
ATOM     15  C   UNL     1       0.762  10.091  18.682  0.00  0.00    +0.000 C 
ATOM     16  O   UNL     1       0.983   9.876  20.081  0.00  0.00    +0.000 OA
ENDBRANCH   1  12
BRANCH   7  17
ATOM     17  C   UNL     1       5.615   4.665  16.375  0.00  0.00    +0.000 A 
ATOM     18  C   UNL     1       5.318   3.979  15.186  0.00  0.00    +0.000 A 
ATOM     19  C   UNL     1       6.129   4.118  14.060  0.00  0.00    +0.000 A 
ATOM     20  C   UNL     1       7.234   4.941  14.151  0.00  0.00    +0.000 A 
ATOM     21  N   UNL     1       7.581   5.606  15.271  0.00  0.00    +0.000 NA
ATOM     22  C   UNL     1       6.770   5.446  16.351  0.00  0.00    +0.000 A 
ENDBRANCH   7  17
TORSDOF 2
ENDMDL
MODEL 5
REMARK VINA RESULT:      -7.6      3.709      6.892
REMARK  Name = 
REMARK  2 active torsions:
REMARK  status: ('A' for Active; 'I' for Inactive)
REMARK    1  A    between atoms: C_2  and  C_3
REMARK    2  A    between atoms: C_9  and  C_10
REMARK                            x       y       z     vdW  Elec       q    Type
REMARK                         _______ _______ _______ _____ _____    ______ ____
ROOT
ATOM      1  C   UNL     1       4.305   4.623  18.686  0.00  0.00    +0.000 A 
ATOM      2  N   UNL     1       4.716   5.260  19.793  0.00  0.00    +0.000 NA
ATOM      3  N   UNL     1       5.891   5.814  19.446  0.00  0.00    +0.000 N 
ATOM      4  C   UNL     1       6.254   5.592  18.149  0.00  0.00    +0.000 A 
ATOM      5  C   UNL     1       7.356   5.978  17.406  0.00  0.00    +0.000 A 
ATOM      6  N   UNL     1       7.430   5.601  16.104  0.00  0.00    +0.000 NA
ATOM      7  C   UNL     1       6.436   4.867  15.541  0.00  0.00    +0.000 A 
ATOM      8  C   UNL     1       5.302   4.485  16.256  0.00  0.00    +0.000 A 
ATOM      9  C   UNL     1       5.225   4.834  17.610  0.00  0.00    +0.000 A 
ATOM     10  H   UNL     1       6.395   6.343  20.149  0.00  0.00    +0.000 HD
ENDROOT
BRANCH   1  12
ATOM     11  C   UNL     1       2.025   4.201  17.854  0.00  0.00    +0.000 C 
ATOM     12  C   UNL     1       3.092   3.851  18.595  0.00  0.00    +0.000 C 
ATOM     13  C   UNL     1       3.073   2.571  19.392  0.00  0.00    +0.000 C 
ATOM     14  C   UNL     1       1.844   1.724  19.054  0.00  0.00    +0.000 C 
ATOM     15  C   UNL     1       0.628   2.621  18.885  0.00  0.00    +0.000 C 
ATOM     16  O   UNL     1       0.814   3.559  17.819  0.00  0.00    +0.000 OA
ENDBRANCH   1  12
BRANCH   7  17
ATOM     17  C   UNL     1       6.604   4.505  14.123  0.00  0.00    +0.000 A 
ATOM     18  C   UNL     1       5.796   3.552  13.482  0.00  0.00    +0.000 A 
ATOM     19  C   UNL     1       5.954   3.279  12.124  0.00  0.00    +0.000 A 
ATOM     20  C   UNL     1       6.932   3.966  11.431  0.00  0.00    +0.000 A 
ATOM     21  N   UNL     1       7.751   4.874  11.998  0.00  0.00    +0.000 NA
ATOM     22  C   UNL     1       7.571   5.113  13.324  0.00  0.00    +0.000 A 
ENDBRANCH   7  17
TORSDOF 2
ENDMDL
MODEL 6
REMARK VINA RESULT:      -7.5      3.552      5.440
REMARK  Name = 
REMARK  2 active torsions:
REMARK  status: ('A' for Active; 'I' for Inactive)
REMARK    1  A    between atoms: C_2  and  C_3
REMARK    2  A    between atoms: C_9  and  C_10
REMARK                            x       y       z     vdW  Elec       q    Type
REMARK                         _______ _______ _______ _____ _____    ______ ____
ROOT
ATOM      1  C   UNL     1       6.588   4.754  14.535  0.00  0.00    +0.000 A 
ATOM      2  N   UNL     1       7.683   5.526  14.616  0.00  0.00    +0.000 NA
ATOM      3  N   UNL     1       7.622   6.065  15.847  0.00  0.00    +0.000 N 
ATOM      4  C   UNL     1       6.550   5.657  16.586  0.00  0.00    +0.000 A 
ATOM      5  C   UNL     1       6.128   5.960  17.869  0.00  0.00    +0.000 A 
ATOM      6  N   UNL     1       4.998   5.372  18.340  0.00  0.00    +0.000 NA
ATOM      7  C   UNL     1       4.304   4.496  17.569  0.00  0.00    +0.000 A 
ATOM      8  C   UNL     1       4.718   4.151  16.283  0.00  0.00    +0.000 A 
ATOM      9  C   UNL     1       5.861   4.775  15.767  0.00  0.00    +0.000 A 
ATOM     10  H   UNL     1       8.358   6.706  16.123  0.00  0.00    +0.000 HD
ENDROOT
BRANCH   1  12
ATOM     11  C   UNL     1       4.950   3.845  12.935  0.00  0.00    +0.000 C 
ATOM     12  C   UNL     1       6.214   3.995  13.368  0.00  0.00    +0.000 C 
ATOM     13  C   UNL     1       7.353   3.359  12.613  0.00  0.00    +0.000 C 
ATOM     14  C   UNL     1       6.878   2.772  11.282  0.00  0.00    +0.000 C 
ATOM     15  C   UNL     1       5.522   2.109  11.463  0.00  0.00    +0.000 C 
ATOM     16  O   UNL     1       4.534   3.050  11.899  0.00  0.00    +0.000 OA
ENDBRANCH   1  12
BRANCH   7  17
ATOM     17  C   UNL     1       3.091   3.909  18.165  0.00  0.00    +0.000 A 
ATOM     18  C   UNL     1       2.397   4.516  19.224  0.00  0.00    +0.000 A 
ATOM     19  C   UNL     1       1.222   3.953  19.722  0.00  0.00    +0.000 A 
ATOM     20  C   UNL     1       0.768   2.781  19.151  0.00  0.00    +0.000 A 
ATOM     21  N   UNL     1       1.404   2.142  18.149  0.00  0.00    +0.000 NA
ATOM     22  C   UNL     1       2.548   2.716  17.689  0.00  0.00    +0.000 A 
ENDBRANCH   7  17
TORSDOF 2
ENDMDL
MODEL 7
REMARK VINA RESULT:      -7.5      3.374      5.378
REMARK  Name = 
REMARK  2 active torsions:
REMARK  status: ('A' for Active; 'I' for Inactive)
REMARK    1  A    between atoms: C_2  and  C_3
REMARK    2  A    between atoms: C_9  and  C_10
REMARK                            x       y       z     vdW  Elec       q    Type
REMARK                         _______ _______ _______ _____ _____    ______ ____
ROOT
ATOM      1  C   UNL     1       6.582   4.737  14.522  0.00  0.00    +0.000 A 
ATOM      2  N   UNL     1       7.677   5.509  14.604  0.00  0.00    +0.000 NA
ATOM      3  N   UNL     1       7.615   6.049  15.834  0.00  0.00    +0.000 N 
ATOM      4  C   UNL     1       6.541   5.643  16.572  0.00  0.00    +0.000 A 
ATOM      5  C   UNL     1       6.117   5.947  17.854  0.00  0.00    +0.000 A 
ATOM      6  N   UNL     1       4.986   5.360  18.324  0.00  0.00    +0.000 NA
ATOM      7  C   UNL     1       4.292   4.484  17.552  0.00  0.00    +0.000 A 
ATOM      8  C   UNL     1       4.709   4.138  16.268  0.00  0.00    +0.000 A 
ATOM      9  C   UNL     1       5.853   4.760  15.753  0.00  0.00    +0.000 A 
ATOM     10  H   UNL     1       8.351   6.689  16.111  0.00  0.00    +0.000 HD
ENDROOT
BRANCH   1  12
ATOM     11  C   UNL     1       4.945   3.829  12.920  0.00  0.00    +0.000 C 
ATOM     12  C   UNL     1       6.209   3.977  13.356  0.00  0.00    +0.000 C 
ATOM     13  C   UNL     1       7.349   3.339  12.603  0.00  0.00    +0.000 C 
ATOM     14  C   UNL     1       6.875   2.750  11.272  0.00  0.00    +0.000 C 
ATOM     15  C   UNL     1       5.518   2.090  11.451  0.00  0.00    +0.000 C 
ATOM     16  O   UNL     1       4.530   3.033  11.884  0.00  0.00    +0.000 OA
ENDBRANCH   1  12
BRANCH   7  17
ATOM     17  C   UNL     1       3.079   3.899  18.147  0.00  0.00    +0.000 A 
ATOM     18  C   UNL     1       2.647   2.593  17.859  0.00  0.00    +0.000 A 
ATOM     19  C   UNL     1       1.522   2.059  18.488  0.00  0.00    +0.000 A 
ATOM     20  C   UNL     1       0.842   2.852  19.391  0.00  0.00    +0.000 A 
ATOM     21  N   UNL     1       1.197   4.118  19.689  0.00  0.00    +0.000 NA
ATOM     22  C   UNL     1       2.296   4.608  19.057  0.00  0.00    +0.000 A 
ENDBRANCH   7  17
TORSDOF 2
ENDMDL
MODEL 8
REMARK VINA RESULT:      -7.4      3.326      7.663
REMARK  Name = 
REMARK  2 active torsions:
REMARK  status: ('A' for Active; 'I' for Inactive)
REMARK    1  A    between atoms: C_2  and  C_3
REMARK    2  A    between atoms: C_9  and  C_10
REMARK                            x       y       z     vdW  Elec       q    Type
REMARK                         _______ _______ _______ _____ _____    ______ ____
ROOT
ATOM      1  C   UNL     1       1.112   9.890  19.723  0.00  0.00    +0.000 A 
ATOM      2  N   UNL     1       1.213  10.738  18.687  0.00  0.00    +0.000 NA
ATOM      3  N   UNL     1       1.885  10.045  17.751  0.00  0.00    +0.000 N 
ATOM      4  C   UNL     1       2.205   8.770  18.117  0.00  0.00    +0.000 A 
ATOM      5  C   UNL     1       2.872   7.748  17.465  0.00  0.00    +0.000 A 
ATOM      6  N   UNL     1       3.029   6.559  18.103  0.00  0.00    +0.000 NA
ATOM      7  C   UNL     1       2.530   6.376  19.353  0.00  0.00    +0.000 A 
ATOM      8  C   UNL     1       1.831   7.378  20.025  0.00  0.00    +0.000 A 
ATOM      9  C   UNL     1       1.691   8.622  19.397  0.00  0.00    +0.000 A 
ATOM     10  H   UNL     1       2.089  10.507  16.871  0.00  0.00    +0.000 HD
ENDROOT
BRANCH   1  12
ATOM     11  C   UNL     1       0.870   9.710  22.168  0.00  0.00    +0.000 C 
ATOM     12  C   UNL     1       0.488  10.214  20.980  0.00  0.00    +0.000 C 
ATOM     13  C   UNL     1      -0.655  11.194  20.906  0.00  0.00    +0.000 C 
ATOM     14  C   UNL     1      -1.097  11.638  22.303  0.00  0.00    +0.000 C 
ATOM     15  C   UNL     1      -1.074  10.454  23.255  0.00  0.00    +0.000 C 
ATOM     16  O   UNL     1       0.244   9.903  23.372  0.00  0.00    +0.000 OA
ENDBRANCH   1  12
BRANCH   7  17
ATOM     17  C   UNL     1       2.749   5.054  19.964  0.00  0.00    +0.000 A 
ATOM     18  C   UNL     1       1.977   4.577  21.036  0.00  0.00    +0.000 A 
ATOM     19  C   UNL     1       2.183   3.296  21.548  0.00  0.00    +0.000 A 
ATOM     20  C   UNL     1       3.169   2.517  20.978  0.00  0.00    +0.000 A 
ATOM     21  N   UNL     1       3.955   2.930  19.964  0.00  0.00    +0.000 NA
ATOM     22  C   UNL     1       3.730   4.184  19.490  0.00  0.00    +0.000 A 
ENDBRANCH   7  17
TORSDOF 2
ENDMDL
MODEL 9
REMARK VINA RESULT:      -7.4      3.717      6.877
REMARK  Name = 
REMARK  2 active torsions:
REMARK  status: ('A' for Active; 'I' for Inactive)
REMARK    1  A    between atoms: C_2  and  C_3
REMARK    2  A    between atoms: C_9  and  C_10
REMARK                            x       y       z     vdW  Elec       q    Type
REMARK                         _______ _______ _______ _____ _____    ______ ____
ROOT
ATOM      1  C   UNL     1       4.329   4.607  18.661  0.00  0.00    +0.000 A 
ATOM      2  N   UNL     1       4.754   5.223  19.775  0.00  0.00    +0.000 NA
ATOM      3  N   UNL     1       5.929   5.777  19.424  0.00  0.00    +0.000 N 
ATOM      4  C   UNL     1       6.278   5.574  18.121  0.00  0.00    +0.000 A 
ATOM      5  C   UNL     1       7.374   5.967  17.373  0.00  0.00    +0.000 A 
ATOM      6  N   UNL     1       7.434   5.611  16.064  0.00  0.00    +0.000 NA
ATOM      7  C   UNL     1       6.430   4.891  15.499  0.00  0.00    +0.000 A 
ATOM      8  C   UNL     1       5.301   4.503  16.219  0.00  0.00    +0.000 A 
ATOM      9  C   UNL     1       5.240   4.831  17.580  0.00  0.00    +0.000 A 
ATOM     10  H   UNL     1       6.442   6.292  20.131  0.00  0.00    +0.000 HD
ENDROOT
BRANCH   1  12
ATOM     11  C   UNL     1       2.044   4.202  17.835  0.00  0.00    +0.000 C 
ATOM     12  C   UNL     1       3.112   3.842  18.570  0.00  0.00    +0.000 C 
ATOM     13  C   UNL     1       3.088   2.558  19.359  0.00  0.00    +0.000 C 
ATOM     14  C   UNL     1       1.853   1.720  19.021  0.00  0.00    +0.000 C 
ATOM     15  C   UNL     1       0.641   2.624  18.861  0.00  0.00    +0.000 C 
ATOM     16  O   UNL     1       0.830   3.567  17.800  0.00  0.00    +0.000 OA
ENDBRANCH   1  12
BRANCH   7  17
ATOM     17  C   UNL     1       6.582   4.551  14.074  0.00  0.00    +0.000 A 
ATOM     18  C   UNL     1       7.537   5.165  13.246  0.00  0.00    +0.000 A 
ATOM     19  C   UNL     1       7.684   4.774  11.916  0.00  0.00    +0.000 A 
ATOM     20  C   UNL     1       6.861   3.775  11.435  0.00  0.00    +0.000 A 
ATOM     21  N   UNL     1       5.913   3.167  12.176  0.00  0.00    +0.000 NA
ATOM     22  C   UNL     1       5.795   3.574  13.468  0.00  0.00    +0.000 A 
ENDBRANCH   7  17
TORSDOF 2
ENDMDL
