MODEL 1
REMARK VINA RESULT:      -7.2      0.000      0.000
REMARK  Name = 
REMARK  6 active torsions:
REMARK  status: ('A' for Active; 'I' for Inactive)
REMARK    1  A    between atoms: C_1  and  C_2
REMARK    2  A    between atoms: C_5  and  C_6
REMARK    3  A    between atoms: C_6  and  C_7
REMARK    4  A    between atoms: C_6  and  N_8
REMARK    5  A    between atoms: N_8  and  C_9
REMARK    6  A    between atoms: C_10  and  C_12
REMARK                            x       y       z     vdW  Elec       q    Type
REMARK                         _______ _______ _______ _____ _____    ______ ____
ROOT
ATOM      1  N   UNL     1       3.058   4.897  18.364  0.00  0.00    +0.000 N 
ATOM      2  C   UNL     1       1.785   4.691  17.684  0.00  0.00    +0.000 C 
ATOM      3  C   UNL     1       3.508   6.133  18.870  0.00  0.00    +0.000 C 
ATOM      4  O   UNL     1       4.666   6.297  19.251  0.00  0.00    +0.000 OA
ENDROOT
BRANCH   3   5
ATOM      5  C   UNL     1       2.592   7.298  18.984  0.00  0.00    +0.000 A 
ATOM      6  C   UNL     1       2.261   8.135  17.923  0.00  0.00    +0.000 A 
ATOM      7  C   UNL     1       1.425   9.235  18.123  0.00  0.00    +0.000 A 
ATOM      8  C   UNL     1       0.860   9.433  19.379  0.00  0.00    +0.000 A 
ATOM      9  N   UNL     1      -0.005  10.534  19.588  0.00  0.00    +0.000 N 
ATOM     10  C   UNL     1      -0.391  11.510  18.702  0.00  0.00    +0.000 A 
ATOM     11  N   UNL     1      -1.210  12.355  19.280  0.00  0.00    +0.000 NA
ATOM     12  N   UNL     1      -1.378  11.942  20.580  0.00  0.00    +0.000 NA
ATOM     13  C   UNL     1      -0.657  10.855  20.749  0.00  0.00    +0.000 A 
ATOM     14  N   UNL     1       1.105   8.595  20.416  0.00  0.00    +0.000 NA
ATOM     15  C   UNL     1       1.955   7.548  20.196  0.00  0.00    +0.000 A 
ENDBRANCH   3   5
BRANCH   1  16
ATOM     16  C   UNL     1       4.045   3.791  18.328  0.00  0.00    +0.000 C 
ATOM     17  C   UNL     1       3.416   2.400  18.162  0.00  0.00    +0.000 C 
BRANCH  16  22
ATOM     18  C   UNL     1       5.960   3.949  13.734  0.00  0.00    +0.000 C 
ATOM     19  C   UNL     1       5.995   4.108  15.210  0.00  0.00    +0.000 A 
ATOM     20  C   UNL     1       7.092   4.451  15.973  0.00  0.00    +0.000 A 
ATOM     21  S   UNL     1       6.676   4.482  17.631  0.00  0.00    +0.000 S 
ATOM     22  C   UNL     1       5.062   4.035  17.226  0.00  0.00    +0.000 A 
ATOM     23  N   UNL     1       4.833   3.878  15.933  0.00  0.00    +0.000 NA
ENDBRANCH  16  22
ENDBRANCH   1  16
TORSDOF 3
ENDMDL
MODEL 2
REMARK VINA RESULT:      -7.1      0.605      1.278
REMARK  Name = 
REMARK  6 active torsions:
REMARK  status: ('A' for Active; 'I' for Inactive)
REMARK    1  A    between atoms: C_1  and  C_2
REMARK    2  A    between atoms: C_5  and  C_6
REMARK    3  A    between atoms: C_6  and  C_7
REMARK    4  A    between atoms: C_6  and  N_8
REMARK    5  A    between atoms: N_8  and  C_9
REMARK    6  A    between atoms: C_10  and  C_12
REMARK                            x       y       z     vdW  Elec       q    Type
REMARK                         _______ _______ _______ _____ _____    ______ ____
ROOT
ATOM      1  N   UNL     1       3.024   4.739  18.433  0.00  0.00    +0.000 N 
ATOM      2  C   UNL     1       1.789   4.677  17.659  0.00  0.00    +0.000 C 
ATOM      3  C   UNL     1       3.472   5.872  19.142  0.00  0.00    +0.000 C 
ATOM      4  O   UNL     1       4.608   5.939  19.607  0.00  0.00    +0.000 OA
ENDROOT
BRANCH   3   5
ATOM      5  C   UNL     1       2.579   7.036  19.377  0.00  0.00    +0.000 A 
ATOM      6  C   UNL     1       1.919   7.282  20.576  0.00  0.00    +0.000 A 
ATOM      7  C   UNL     1       1.062   8.377  20.703  0.00  0.00    +0.000 A 
ATOM      8  C   UNL     1       0.944   9.266  19.638  0.00  0.00    +0.000 A 
ATOM      9  N   UNL     1       0.094  10.392  19.762  0.00  0.00    +0.000 N 
ATOM     10  C   UNL     1      -0.696  10.765  20.822  0.00  0.00    +0.000 A 
ATOM     11  N   UNL     1      -1.333  11.878  20.548  0.00  0.00    +0.000 NA
ATOM     12  N   UNL     1      -0.967  12.260  19.280  0.00  0.00    +0.000 NA
ATOM     13  C   UNL     1      -0.115  11.367  18.824  0.00  0.00    +0.000 A 
ATOM     14  N   UNL     1       1.629   9.095  18.481  0.00  0.00    +0.000 NA
ATOM     15  C   UNL     1       2.431   7.994  18.378  0.00  0.00    +0.000 A 
ENDBRANCH   3   5
BRANCH   1  16
ATOM     16  C   UNL     1       3.983   3.618  18.287  0.00  0.00    +0.000 C 
ATOM     17  C   UNL     1       3.321   2.264  18.000  0.00  0.00    +0.000 C 
BRANCH  16  22
ATOM     18  C   UNL     1       5.946   3.966  13.724  0.00  0.00    +0.000 C 
ATOM     19  C   UNL     1       5.953   4.100  15.203  0.00  0.00    +0.000 A 
ATOM     20  C   UNL     1       7.019   4.492  15.986  0.00  0.00    +0.000 A 
ATOM     21  S   UNL     1       6.580   4.470  17.639  0.00  0.00    +0.000 S 
ATOM     22  C   UNL     1       4.999   3.939  17.203  0.00  0.00    +0.000 A 
ATOM     23  N   UNL     1       4.797   3.792  15.905  0.00  0.00    +0.000 NA
ENDBRANCH  16  22
ENDBRANCH   1  16
TORSDOF 3
ENDMDL
MODEL 3
REMARK VINA RESULT:      -6.6      1.097      1.239
REMARK  Name = 
REMARK  6 active torsions:
REMARK  status: ('A' for Active; 'I' for Inactive)
REMARK    1  A    between atoms: C_1  and  C_2
REMARK    2  A    between atoms: C_5  and  C_6
REMARK    3  A    between atoms: C_6  and  C_7
REMARK    4  A    between atoms: C_6  and  N_8
REMARK    5  A    between atoms: N_8  and  C_9
REMARK    6  A    between atoms: C_10  and  C_12
REMARK                            x       y       z     vdW  Elec       q    Type
REMARK                         _______ _______ _______ _____ _____    ______ ____
ROOT
ATOM      1  N   UNL     1       3.581   6.054  18.034  0.00  0.00    +0.000 N 
ATOM      2  C   UNL     1       4.181   7.039  17.140  0.00  0.00    +0.000 C 
ATOM      3  C   UNL     1       2.689   6.358  19.081  0.00  0.00    +0.000 C 
ATOM      4  O   UNL     1       2.373   5.524  19.927  0.00  0.00    +0.000 OA
ENDROOT
BRANCH   3   5
ATOM      5  C   UNL     1       2.072   7.705  19.201  0.00  0.00    +0.000 A 
ATOM      6  C   UNL     1       1.841   8.554  18.124  0.00  0.00    +0.000 A 
ATOM      7  C   UNL     1       1.295   9.823  18.326  0.00  0.00    +0.000 A 
ATOM      8  C   UNL     1       0.908  10.193  19.611  0.00  0.00    +0.000 A 
ATOM      9  N   UNL     1       0.335  11.470  19.825  0.00  0.00    +0.000 N 
ATOM     10  C   UNL     1       0.098  12.474  18.918  0.00  0.00    +0.000 A 
ATOM     11  N   UNL     1      -0.454  13.505  19.511  0.00  0.00    +0.000 NA
ATOM     12  N   UNL     1      -0.588  13.191  20.842  0.00  0.00    +0.000 NA
ATOM     13  C   UNL     1      -0.117  11.976  21.015  0.00  0.00    +0.000 A 
ATOM     14  N   UNL     1       1.053   9.361  20.672  0.00  0.00    +0.000 NA
ATOM     15  C   UNL     1       1.623   8.140  20.445  0.00  0.00    +0.000 A 
ENDBRANCH   3   5
BRANCH   1  16
ATOM     16  C   UNL     1       4.111   4.670  17.986  0.00  0.00    +0.000 C 
ATOM     17  C   UNL     1       3.040   3.601  17.728  0.00  0.00    +0.000 C 
BRANCH  16  22
ATOM     18  C   UNL     1       6.242   3.834  13.564  0.00  0.00    +0.000 C 
ATOM     19  C   UNL     1       6.235   4.187  15.007  0.00  0.00    +0.000 A 
ATOM     20  C   UNL     1       7.340   4.425  15.799  0.00  0.00    +0.000 A 
ATOM     21  S   UNL     1       6.856   4.762  17.405  0.00  0.00    +0.000 S 
ATOM     22  C   UNL     1       5.208   4.568  16.940  0.00  0.00    +0.000 A 
ATOM     23  N   UNL     1       5.017   4.277  15.665  0.00  0.00    +0.000 NA
ENDBRANCH  16  22
ENDBRANCH   1  16
TORSDOF 3
ENDMDL
MODEL 4
REMARK VINA RESULT:      -6.5      3.548      9.177
REMARK  Name = 
REMARK  6 active torsions:
REMARK  status: ('A' for Active; 'I' for Inactive)
REMARK    1  A    between atoms: C_1  and  C_2
REMARK    2  A    between atoms: C_5  and  C_6
REMARK    3  A    between atoms: C_6  and  C_7
REMARK    4  A    between atoms: C_6  and  N_8
REMARK    5  A    between atoms: N_8  and  C_9
REMARK    6  A    between atoms: C_10  and  C_12
REMARK                            x       y       z     vdW  Elec       q    Type
REMARK                         _______ _______ _______ _____ _____    ______ ____
ROOT
ATOM      1  N   UNL     1      -0.280  11.225  19.713  0.00  0.00    +0.000 N 
ATOM      2  C   UNL     1      -1.236  10.507  18.876  0.00  0.00    +0.000 C 
ATOM      3  C   UNL     1       0.878  10.655  20.279  0.00  0.00    +0.000 C 
ATOM      4  O   UNL     1       1.538  11.242  21.135  0.00  0.00    +0.000 OA
ENDROOT
BRANCH   3   5
ATOM      5  C   UNL     1       1.366   9.318  19.852  0.00  0.00    +0.000 A 
ATOM      6  C   UNL     1       1.850   9.036  18.579  0.00  0.00    +0.000 A 
ATOM      7  C   UNL     1       2.251   7.741  18.244  0.00  0.00    +0.000 A 
ATOM      8  C   UNL     1       2.239   6.757  19.227  0.00  0.00    +0.000 A 
ATOM      9  N   UNL     1       2.662   5.445  18.904  0.00  0.00    +0.000 N 
ATOM     10  C   UNL     1       3.096   4.949  17.699  0.00  0.00    +0.000 A 
ATOM     11  N   UNL     1       3.404   3.679  17.811  0.00  0.00    +0.000 NA
ATOM     12  N   UNL     1       3.171   3.313  19.114  0.00  0.00    +0.000 NA
ATOM     13  C   UNL     1       2.733   4.374  19.755  0.00  0.00    +0.000 A 
ATOM     14  N   UNL     1       1.841   7.015  20.497  0.00  0.00    +0.000 NA
ATOM     15  C   UNL     1       1.422   8.284  20.782  0.00  0.00    +0.000 A 
ENDBRANCH   3   5
BRANCH   1  16
ATOM     16  C   UNL     1      -0.659  12.579  20.184  0.00  0.00    +0.000 C 
ATOM     17  C   UNL     1      -1.002  13.559  19.053  0.00  0.00    +0.000 C 
BRANCH  16  22
ATOM     18  C   UNL     1      -5.327  12.906  21.886  0.00  0.00    +0.000 C 
ATOM     19  C   UNL     1      -3.871  12.631  22.000  0.00  0.00    +0.000 A 
ATOM     20  C   UNL     1      -3.187  12.293  23.149  0.00  0.00    +0.000 A 
ATOM     21  S   UNL     1      -1.521  12.104  22.813  0.00  0.00    +0.000 S 
ATOM     22  C   UNL     1      -1.820  12.485  21.160  0.00  0.00    +0.000 A 
ATOM     23  N   UNL     1      -3.084  12.733  20.862  0.00  0.00    +0.000 NA
ENDBRANCH  16  22
ENDBRANCH   1  16
TORSDOF 3
ENDMDL
MODEL 5
REMARK VINA RESULT:      -6.5      2.078      2.780
REMARK  Name = 
REMARK  6 active torsions:
REMARK  status: ('A' for Active; 'I' for Inactive)
REMARK    1  A    between atoms: C_1  and  C_2
REMARK    2  A    between atoms: C_5  and  C_6
REMARK    3  A    between atoms: C_6  and  C_7
REMARK    4  A    between atoms: C_6  and  N_8
REMARK    5  A    between atoms: N_8  and  C_9
REMARK    6  A    between atoms: C_10  and  C_12
REMARK                            x       y       z     vdW  Elec       q    Type
REMARK                         _______ _______ _______ _____ _____    ______ ____
ROOT
ATOM      1  N   UNL     1       2.558   6.736  18.850  0.00  0.00    +0.000 N 
ATOM      2  C   UNL     1       3.137   7.585  17.815  0.00  0.00    +0.000 C 
ATOM      3  C   UNL     1       1.865   7.208  19.983  0.00  0.00    +0.000 C 
ATOM      4  O   UNL     1       1.575   6.469  20.922  0.00  0.00    +0.000 OA
ENDROOT
BRANCH   3   5
ATOM      5  C   UNL     1       1.434   8.627  20.086  0.00  0.00    +0.000 A 
ATOM      6  C   UNL     1       1.128   9.429  18.991  0.00  0.00    +0.000 A 
ATOM      7  C   UNL     1       0.772  10.767  19.171  0.00  0.00    +0.000 A 
ATOM      8  C   UNL     1       0.647  11.262  20.465  0.00  0.00    +0.000 A 
ATOM      9  N   UNL     1       0.267  12.613  20.660  0.00  0.00    +0.000 N 
ATOM     10  C   UNL     1       0.001  13.580  19.721  0.00  0.00    +0.000 A 
ATOM     11  N   UNL     1      -0.324  14.708  20.306  0.00  0.00    +0.000 NA
ATOM     12  N   UNL     1      -0.273  14.498  21.662  0.00  0.00    +0.000 NA
ATOM     13  C   UNL     1       0.078  13.246  21.860  0.00  0.00    +0.000 A 
ATOM     14  N   UNL     1       0.868  10.488  21.556  0.00  0.00    +0.000 NA
ATOM     15  C   UNL     1       1.249   9.193  21.344  0.00  0.00    +0.000 A 
ENDBRANCH   3   5
BRANCH   1  16
ATOM     16  C   UNL     1       2.908   5.295  18.833  0.00  0.00    +0.000 C 
ATOM     17  C   UNL     1       2.057   4.458  17.868  0.00  0.00    +0.000 C 
BRANCH  16  22
ATOM     18  C   UNL     1       7.845   5.714  19.320  0.00  0.00    +0.000 C 
ATOM     19  C   UNL     1       6.594   5.289  18.643  0.00  0.00    +0.000 A 
ATOM     20  C   UNL     1       6.495   4.672  17.413  0.00  0.00    +0.000 A 
ATOM     21  S   UNL     1       4.853   4.398  17.018  0.00  0.00    +0.000 S 
ATOM     22  C   UNL     1       4.382   5.120  18.510  0.00  0.00    +0.000 A 
ATOM     23  N   UNL     1       5.381   5.537  19.270  0.00  0.00    +0.000 NA
ENDBRANCH  16  22
ENDBRANCH   1  16
TORSDOF 3
ENDMDL
MODEL 6
REMARK VINA RESULT:      -6.5      1.701      2.021
REMARK  Name = 
REMARK  6 active torsions:
REMARK  status: ('A' for Active; 'I' for Inactive)
REMARK    1  A    between atoms: C_1  and  C_2
REMARK    2  A    between atoms: C_5  and  C_6
REMARK    3  A    between atoms: C_6  and  C_7
REMARK    4  A    between atoms: C_6  and  N_8
REMARK    5  A    between atoms: N_8  and  C_9
REMARK    6  A    between atoms: C_10  and  C_12
REMARK                            x       y       z     vdW  Elec       q    Type
REMARK                         _______ _______ _______ _____ _____    ______ ____
ROOT
ATOM      1  N   UNL     1       4.273   4.891  18.490  0.00  0.00    +0.000 N 
ATOM      2  C   UNL     1       5.178   5.418  19.506  0.00  0.00    +0.000 C 
ATOM      3  C   UNL     1       2.918   5.253  18.357  0.00  0.00    +0.000 C 
ATOM      4  O   UNL     1       2.151   4.635  17.621  0.00  0.00    +0.000 OA
ENDROOT
BRANCH   3   5
ATOM      5  C   UNL     1       2.354   6.415  19.093  0.00  0.00    +0.000 A 
ATOM      6  C   UNL     1       2.261   7.698  18.565  0.00  0.00    +0.000 A 
ATOM      7  C   UNL     1       1.757   8.747  19.338  0.00  0.00    +0.000 A 
ATOM      8  C   UNL     1       1.273   8.471  20.613  0.00  0.00    +0.000 A 
ATOM      9  N   UNL     1       0.741   9.524  21.398  0.00  0.00    +0.000 N 
ATOM     10  C   UNL     1       0.633  10.859  21.094  0.00  0.00    +0.000 A 
ATOM     11  N   UNL     1       0.078  11.510  22.087  0.00  0.00    +0.000 NA
ATOM     12  N   UNL     1      -0.191  10.598  23.079  0.00  0.00    +0.000 NA
ATOM     13  C   UNL     1       0.207   9.419  22.655  0.00  0.00    +0.000 A 
ATOM     14  N   UNL     1       1.283   7.218  21.130  0.00  0.00    +0.000 NA
ATOM     15  C   UNL     1       1.815   6.222  20.361  0.00  0.00    +0.000 A 
ENDBRANCH   3   5
BRANCH   1  16
ATOM     16  C   UNL     1       4.741   3.738  17.684  0.00  0.00    +0.000 C 
ATOM     17  C   UNL     1       3.702   2.617  17.537  0.00  0.00    +0.000 C 
BRANCH  16  22
ATOM     18  C   UNL     1       6.202   3.464  12.931  0.00  0.00    +0.000 C 
ATOM     19  C   UNL     1       5.876   4.168  14.198  0.00  0.00    +0.000 A 
ATOM     20  C   UNL     1       6.018   5.517  14.447  0.00  0.00    +0.000 A 
ATOM     21  S   UNL     1       5.551   5.876  16.053  0.00  0.00    +0.000 S 
ATOM     22  C   UNL     1       5.191   4.211  16.311  0.00  0.00    +0.000 A 
ATOM     23  N   UNL     1       5.395   3.426  15.267  0.00  0.00    +0.000 NA
ENDBRANCH  16  22
ENDBRANCH   1  16
TORSDOF 3
ENDMDL
MODEL 7
REMARK VINA RESULT:      -6.5      1.908      2.822
REMARK  Name = 
REMARK  6 active torsions:
REMARK  status: ('A' for Active; 'I' for Inactive)
REMARK    1  A    between atoms: C_1  and  C_2
REMARK    2  A    between atoms: C_5  and  C_6
REMARK    3  A    between atoms: C_6  and  C_7
REMARK    4  A    between atoms: C_6  and  N_8
REMARK    5  A    between atoms: N_8  and  C_9
REMARK    6  A    between atoms: C_10  and  C_12
REMARK                            x       y       z     vdW  Elec       q    Type
REMARK                         _______ _______ _______ _____ _____    ______ ____
ROOT
ATOM      1  N   UNL     1       2.698   6.420  18.815  0.00  0.00    +0.000 N 
ATOM      2  C   UNL     1       3.208   7.410  17.872  0.00  0.00    +0.000 C 
ATOM      3  C   UNL     1       2.015   6.725  20.010  0.00  0.00    +0.000 C 
ATOM      4  O   UNL     1       1.787   5.870  20.863  0.00  0.00    +0.000 OA
ENDROOT
BRANCH   3   5
ATOM      5  C   UNL     1       1.521   8.099  20.285  0.00  0.00    +0.000 A 
ATOM      6  C   UNL     1       1.261   8.593  21.559  0.00  0.00    +0.000 A 
ATOM      7  C   UNL     1       0.757   9.884  21.730  0.00  0.00    +0.000 A 
ATOM      8  C   UNL     1       0.599  10.698  20.613  0.00  0.00    +0.000 A 
ATOM      9  N   UNL     1       0.107  12.016  20.776  0.00  0.00    +0.000 N 
ATOM     10  C   UNL     1      -0.278  12.658  21.927  0.00  0.00    +0.000 A 
ATOM     11  N   UNL     1      -0.671  13.880  21.661  0.00  0.00    +0.000 NA
ATOM     12  N   UNL     1      -0.550  14.064  20.304  0.00  0.00    +0.000 NA
ATOM     13  C   UNL     1      -0.084  12.947  19.790  0.00  0.00    +0.000 A 
ATOM     14  N   UNL     1       0.911  10.273  19.364  0.00  0.00    +0.000 NA
ATOM     15  C   UNL     1       1.368   8.992  19.228  0.00  0.00    +0.000 A 
ENDBRANCH   3   5
BRANCH   1  16
ATOM     16  C   UNL     1       3.116   5.010  18.625  0.00  0.00    +0.000 C 
ATOM     17  C   UNL     1       2.345   4.275  17.519  0.00  0.00    +0.000 C 
BRANCH  16  22
ATOM     18  C   UNL     1       7.995   5.755  19.288  0.00  0.00    +0.000 C 
ATOM     19  C   UNL     1       6.798   5.257  18.563  0.00  0.00    +0.000 A 
ATOM     20  C   UNL     1       6.783   4.654  17.322  0.00  0.00    +0.000 A 
ATOM     21  S   UNL     1       5.178   4.276  16.866  0.00  0.00    +0.000 S 
ATOM     22  C   UNL     1       4.609   4.941  18.350  0.00  0.00    +0.000 A 
ATOM     23  N   UNL     1       5.551   5.412  19.150  0.00  0.00    +0.000 NA
ENDBRANCH  16  22
ENDBRANCH   1  16
TORSDOF 3
ENDMDL
MODEL 8
REMARK VINA RESULT:      -6.5      1.599      2.286
REMARK  Name = 
REMARK  6 active torsions:
REMARK  status: ('A' for Active; 'I' for Inactive)
REMARK    1  A    between atoms: C_1  and  C_2
REMARK    2  A    between atoms: C_5  and  C_6
REMARK    3  A    between atoms: C_6  and  C_7
REMARK    4  A    between atoms: C_6  and  N_8
REMARK    5  A    between atoms: N_8  and  C_9
REMARK    6  A    between atoms: C_10  and  C_12
REMARK                            x       y       z     vdW  Elec       q    Type
REMARK                         _______ _______ _______ _____ _____    ______ ____
ROOT
ATOM      1  N   UNL     1       2.734   6.368  18.749  0.00  0.00    +0.000 N 
ATOM      2  C   UNL     1       3.245   7.358  17.807  0.00  0.00    +0.000 C 
ATOM      3  C   UNL     1       2.058   6.673  19.947  0.00  0.00    +0.000 C 
ATOM      4  O   UNL     1       1.828   5.817  20.799  0.00  0.00    +0.000 OA
ENDROOT
BRANCH   3   5
ATOM      5  C   UNL     1       1.573   8.050  20.229  0.00  0.00    +0.000 A 
ATOM      6  C   UNL     1       1.286   8.529  21.503  0.00  0.00    +0.000 A 
ATOM      7  C   UNL     1       0.794   9.823  21.680  0.00  0.00    +0.000 A 
ATOM      8  C   UNL     1       0.675  10.655  20.570  0.00  0.00    +0.000 A 
ATOM      9  N   UNL     1       0.195  11.977  20.740  0.00  0.00    +0.000 N 
ATOM     10  C   UNL     1      -0.212  12.607  21.890  0.00  0.00    +0.000 A 
ATOM     11  N   UNL     1      -0.583  13.838  21.630  0.00  0.00    +0.000 NA
ATOM     12  N   UNL     1      -0.425  14.039  20.280  0.00  0.00    +0.000 NA
ATOM     13  C   UNL     1       0.041  12.924  19.763  0.00  0.00    +0.000 A 
ATOM     14  N   UNL     1       1.014  10.243  19.324  0.00  0.00    +0.000 NA
ATOM     15  C   UNL     1       1.459   8.959  19.182  0.00  0.00    +0.000 A 
ENDBRANCH   3   5
BRANCH   1  16
ATOM     16  C   UNL     1       3.142   4.956  18.552  0.00  0.00    +0.000 C 
ATOM     17  C   UNL     1       2.163   4.137  17.699  0.00  0.00    +0.000 C 
BRANCH  16  22
ATOM     18  C   UNL     1       6.683   4.250  15.123  0.00  0.00    +0.000 C 
ATOM     19  C   UNL     1       6.172   4.573  16.480  0.00  0.00    +0.000 A 
ATOM     20  C   UNL     1       6.931   4.816  17.606  0.00  0.00    +0.000 A 
ATOM     21  S   UNL     1       5.917   5.111  18.952  0.00  0.00    +0.000 S 
ATOM     22  C   UNL     1       4.534   4.895  17.946  0.00  0.00    +0.000 A 
ATOM     23  N   UNL     1       4.800   4.628  16.679  0.00  0.00    +0.000 NA
ENDBRANCH  16  22
ENDBRANCH   1  16
TORSDOF 3
ENDMDL
MODEL 9
REMARK VINA RESULT:      -6.4      1.070      1.666
REMARK  Name = 
REMARK  6 active torsions:
REMARK  status: ('A' for Active; 'I' for Inactive)
REMARK    1  A    between atoms: C_1  and  C_2
REMARK    2  A    between atoms: C_5  and  C_6
REMARK    3  A    between atoms: C_6  and  C_7
REMARK    4  A    between atoms: C_6  and  N_8
REMARK    5  A    between atoms: N_8  and  C_9
REMARK    6  A    between atoms: C_10  and  C_12
REMARK                            x       y       z     vdW  Elec       q    Type
REMARK                         _______ _______ _______ _____ _____    ______ ____
ROOT
ATOM      1  N   UNL     1       3.627   5.843  18.328  0.00  0.00    +0.000 N 
ATOM      2  C   UNL     1       4.126   6.885  17.437  0.00  0.00    +0.000 C 
ATOM      3  C   UNL     1       2.777   6.068  19.430  0.00  0.00    +0.000 C 
ATOM      4  O   UNL     1       2.550   5.192  20.263  0.00  0.00    +0.000 OA
ENDROOT
BRANCH   3   5
ATOM      5  C   UNL     1       2.100   7.375  19.626  0.00  0.00    +0.000 A 
ATOM      6  C   UNL     1       1.600   7.818  20.847  0.00  0.00    +0.000 A 
ATOM      7  C   UNL     1       0.937   9.043  20.939  0.00  0.00    +0.000 A 
ATOM      8  C   UNL     1       0.859   9.852  19.810  0.00  0.00    +0.000 A 
ATOM      9  N   UNL     1       0.206  11.107  19.896  0.00  0.00    +0.000 N 
ATOM     10  C   UNL     1      -0.415  11.685  20.976  0.00  0.00    +0.000 A 
ATOM     11  N   UNL     1      -0.896  12.860  20.652  0.00  0.00    +0.000 NA
ATOM     12  N   UNL     1      -0.595  13.077  19.329  0.00  0.00    +0.000 NA
ATOM     13  C   UNL     1       0.063  12.027  18.892  0.00  0.00    +0.000 A 
ATOM     14  N   UNL     1       1.398   9.484  18.622  0.00  0.00    +0.000 NA
ATOM     15  C   UNL     1       2.009   8.263  18.558  0.00  0.00    +0.000 A 
ENDBRANCH   3   5
BRANCH   1  16
ATOM     16  C   UNL     1       4.223   4.491  18.207  0.00  0.00    +0.000 C 
ATOM     17  C   UNL     1       3.197   3.376  17.966  0.00  0.00    +0.000 C 
BRANCH  16  22
ATOM     18  C   UNL     1       6.173   3.878  13.666  0.00  0.00    +0.000 C 
ATOM     19  C   UNL     1       6.218   4.202  15.115  0.00  0.00    +0.000 A 
ATOM     20  C   UNL     1       7.344   4.498  15.855  0.00  0.00    +0.000 A 
ATOM     21  S   UNL     1       6.924   4.773  17.490  0.00  0.00    +0.000 S 
ATOM     22  C   UNL     1       5.270   4.480  17.105  0.00  0.00    +0.000 A 
ATOM     23  N   UNL     1       5.032   4.201  15.835  0.00  0.00    +0.000 NA
ENDBRANCH  16  22
ENDBRANCH   1  16
TORSDOF 3
ENDMDL
