MODEL 1
REMARK VINA RESULT:      -7.9      0.000      0.000
REMARK  Name = 
REMARK  4 active torsions:
REMARK  status: ('A' for Active; 'I' for Inactive)
REMARK    1  A    between atoms: S_2  and  N_4
REMARK    2  A    between atoms: S_2  and  C_24
REMARK    3  A    between atoms: N_4  and  C_5
REMARK    4  A    between atoms: C_14  and  C_15
REMARK                            x       y       z     vdW  Elec       q    Type
REMARK                         _______ _______ _______ _____ _____    ______ ____
ROOT
ATOM      1  C   UNL     1      -0.786  10.793  20.263  0.00  0.00    +0.000 C 
ATOM      2  C   UNL     1      -0.437   9.400  20.770  0.00  0.00    +0.000 C 
ATOM      3  C   UNL     1       1.064   9.186  20.728  0.00  0.00    +0.000 C 
ATOM      4  N   UNL     1       1.490   9.295  19.335  0.00  0.00    +0.000 N 
ATOM      5  C   UNL     1       2.150   8.219  18.789  0.00  0.00    +0.000 A 
ATOM      6  C   UNL     1       3.051   8.327  17.741  0.00  0.00    +0.000 A 
ATOM      7  C   UNL     1       3.710   7.187  17.273  0.00  0.00    +0.000 A 
ATOM      8  C   UNL     1       3.459   5.942  17.852  0.00  0.00    +0.000 A 
ATOM      9 CL   UNL     1       4.275   4.582  17.172  0.00  0.00    +0.000 Cl
ATOM     10  C   UNL     1       2.546   5.880  18.900  0.00  0.00    +0.000 A 
ATOM     11  N   UNL     1       1.901   7.007  19.332  0.00  0.00    +0.000 NA
ATOM     12  C   UNL     1       1.254  10.571  18.674  0.00  0.00    +0.000 C 
ATOM     13  C   UNL     1      -0.214  11.002  18.846  0.00  0.00    +0.000 C 
ENDROOT
BRANCH  10  14
ATOM     14  C   UNL     1       2.182   4.659  19.662  0.00  0.00    +0.000 A 
ATOM     15  C   UNL     1       1.439   3.628  19.076  0.00  0.00    +0.000 A 
ATOM     16  C   UNL     1       1.070   2.520  19.839  0.00  0.00    +0.000 A 
ATOM     17  C   UNL     1       1.443   2.463  21.174  0.00  0.00    +0.000 A 
ATOM     18  C   UNL     1       2.169   3.521  21.690  0.00  0.00    +0.000 A 
ATOM     19  N   UNL     1       2.535   4.606  20.971  0.00  0.00    +0.000 NA
ENDBRANCH  10  14
BRANCH   1  20
ATOM     20  N   UNL     1      -0.334  11.898  21.148  0.00  0.00    +0.000 NA
ATOM     21  H   UNL     1       0.679  12.019  21.211  0.00  0.00    +0.000 HD
BRANCH  20  23
ATOM     22  O   UNL     1      -0.796  10.883  23.421  0.00  0.00    +0.000 OA
ATOM     23  S   UNL     1      -0.990  12.113  22.694  0.00  0.00    +0.000 S 
ATOM     24  O   UNL     1      -0.413  13.349  23.179  0.00  0.00    +0.000 OA
BRANCH  23  25
ATOM     25  C   UNL     1      -2.782  12.349  22.508  0.00  0.00    +0.000 C 
ATOM     26  C   UNL     1      -3.516  12.486  23.820  0.00  0.00    +0.000 C 
ATOM     27  C   UNL     1      -3.309  13.691  22.945  0.00  0.00    +0.000 C 
ENDBRANCH  23  25
ENDBRANCH  20  23
ENDBRANCH   1  20
TORSDOF 4
ENDMDL
MODEL 2
REMARK VINA RESULT:      -7.5      1.099      1.342
REMARK  Name = 
REMARK  4 active torsions:
REMARK  status: ('A' for Active; 'I' for Inactive)
REMARK    1  A    between atoms: S_2  and  N_4
REMARK    2  A    between atoms: S_2  and  C_24
REMARK    3  A    between atoms: N_4  and  C_5
REMARK    4  A    between atoms: C_14  and  C_15
REMARK                            x       y       z     vdW  Elec       q    Type
REMARK                         _______ _______ _______ _____ _____    ______ ____
ROOT
ATOM      1  C   UNL     1      -0.778  10.295  21.524  0.00  0.00    +0.000 C 
ATOM      2  C   UNL     1      -0.162   8.946  21.873  0.00  0.00    +0.000 C 
ATOM      3  C   UNL     1       1.300   8.917  21.469  0.00  0.00    +0.000 C 
ATOM      4  N   UNL     1       1.366   9.100  20.020  0.00  0.00    +0.000 N 
ATOM      5  C   UNL     1       1.994   8.120  19.287  0.00  0.00    +0.000 A 
ATOM      6  C   UNL     1       2.601   8.354  18.063  0.00  0.00    +0.000 A 
ATOM      7  C   UNL     1       3.254   7.310  17.402  0.00  0.00    +0.000 A 
ATOM      8  C   UNL     1       3.293   6.035  17.968  0.00  0.00    +0.000 A 
ATOM      9 CL   UNL     1       4.072   4.796  17.054  0.00  0.00    +0.000 Cl
ATOM     10  C   UNL     1       2.669   5.845  19.197  0.00  0.00    +0.000 A 
ATOM     11  N   UNL     1       2.023   6.879  19.819  0.00  0.00    +0.000 NA
ATOM     12  C   UNL     1       0.834  10.347  19.491  0.00  0.00    +0.000 C 
ATOM     13  C   UNL     1      -0.589  10.594  20.023  0.00  0.00    +0.000 C 
ENDROOT
BRANCH  10  14
ATOM     14  C   UNL     1       2.640   4.577  19.968  0.00  0.00    +0.000 A 
ATOM     15  C   UNL     1       1.570   4.262  20.814  0.00  0.00    +0.000 A 
ATOM     16  C   UNL     1       1.603   3.086  21.563  0.00  0.00    +0.000 A 
ATOM     17  C   UNL     1       2.704   2.249  21.461  0.00  0.00    +0.000 A 
ATOM     18  C   UNL     1       3.729   2.626  20.612  0.00  0.00    +0.000 A 
ATOM     19  N   UNL     1       3.721   3.761  19.879  0.00  0.00    +0.000 NA
ENDBRANCH  10  14
BRANCH   1  20
ATOM     20  N   UNL     1      -0.257  11.432  22.326  0.00  0.00    +0.000 NA
ATOM     21  H   UNL     1       0.045  11.195  23.274  0.00  0.00    +0.000 HD
BRANCH  20  23
ATOM     22  O   UNL     1      -0.830  13.489  23.686  0.00  0.00    +0.000 OA
ATOM     23  S   UNL     1      -1.072  12.915  22.386  0.00  0.00    +0.000 S 
ATOM     24  O   UNL     1      -0.663  13.618  21.188  0.00  0.00    +0.000 OA
BRANCH  23  25
ATOM     25  C   UNL     1      -2.853  12.575  22.272  0.00  0.00    +0.000 C 
ATOM     26  C   UNL     1      -3.712  13.814  22.317  0.00  0.00    +0.000 C 
ATOM     27  C   UNL     1      -3.531  13.072  21.023  0.00  0.00    +0.000 C 
ENDBRANCH  23  25
ENDBRANCH  20  23
ENDBRANCH   1  20
TORSDOF 4
ENDMDL
MODEL 3
REMARK VINA RESULT:      -7.4      0.992      1.217
REMARK  Name = 
REMARK  4 active torsions:
REMARK  status: ('A' for Active; 'I' for Inactive)
REMARK    1  A    between atoms: S_2  and  N_4
REMARK    2  A    between atoms: S_2  and  C_24
REMARK    3  A    between atoms: N_4  and  C_5
REMARK    4  A    between atoms: C_14  and  C_15
REMARK                            x       y       z     vdW  Elec       q    Type
REMARK                         _______ _______ _______ _____ _____    ______ ____
ROOT
ATOM      1  C   UNL     1      -0.783  10.864  20.065  0.00  0.00    +0.000 C 
ATOM      2  C   UNL     1      -0.449   9.482  20.614  0.00  0.00    +0.000 C 
ATOM      3  C   UNL     1       1.051   9.262  20.604  0.00  0.00    +0.000 C 
ATOM      4  N   UNL     1       1.504   9.335  19.217  0.00  0.00    +0.000 N 
ATOM      5  C   UNL     1       2.168   8.243  18.710  0.00  0.00    +0.000 A 
ATOM      6  C   UNL     1       3.089   8.321  17.677  0.00  0.00    +0.000 A 
ATOM      7  C   UNL     1       3.752   7.168  17.249  0.00  0.00    +0.000 A 
ATOM      8  C   UNL     1       3.486   5.939  17.854  0.00  0.00    +0.000 A 
ATOM      9 CL   UNL     1       4.308   4.560  17.223  0.00  0.00    +0.000 Cl
ATOM     10  C   UNL     1       2.553   5.906  18.886  0.00  0.00    +0.000 A 
ATOM     11  N   UNL     1       1.905   7.046  19.279  0.00  0.00    +0.000 NA
ATOM     12  C   UNL     1       1.284  10.594  18.520  0.00  0.00    +0.000 C 
ATOM     13  C   UNL     1      -0.185  11.035  18.655  0.00  0.00    +0.000 C 
ENDROOT
BRANCH  10  14
ATOM     14  C   UNL     1       2.170   4.706  19.672  0.00  0.00    +0.000 A 
ATOM     15  C   UNL     1       1.373   3.697  19.120  0.00  0.00    +0.000 A 
ATOM     16  C   UNL     1       0.989   2.610  19.906  0.00  0.00    +0.000 A 
ATOM     17  C   UNL     1       1.402   2.552  21.229  0.00  0.00    +0.000 A 
ATOM     18  C   UNL     1       2.182   3.588  21.710  0.00  0.00    +0.000 A 
ATOM     19  N   UNL     1       2.563   4.652  20.970  0.00  0.00    +0.000 NA
ENDBRANCH  10  14
BRANCH   1  20
ATOM     20  N   UNL     1      -0.343  11.988  20.930  0.00  0.00    +0.000 NA
ATOM     21  H   UNL     1       0.223  11.721  21.739  0.00  0.00    +0.000 HD
BRANCH  20  23
ATOM     22  O   UNL     1      -0.745  14.466  21.264  0.00  0.00    +0.000 OA
ATOM     23  S   UNL     1      -1.421  13.202  21.416  0.00  0.00    +0.000 S 
ATOM     24  O   UNL     1      -2.643  12.933  20.688  0.00  0.00    +0.000 OA
BRANCH  23  25
ATOM     25  C   UNL     1      -1.746  12.977  23.189  0.00  0.00    +0.000 C 
ATOM     26  C   UNL     1      -2.923  13.774  23.696  0.00  0.00    +0.000 C 
ATOM     27  C   UNL     1      -3.041  12.285  23.529  0.00  0.00    +0.000 C 
ENDBRANCH  23  25
ENDBRANCH  20  23
ENDBRANCH   1  20
TORSDOF 4
ENDMDL
MODEL 4
REMARK VINA RESULT:      -7.4      1.215      1.382
REMARK  Name = 
REMARK  4 active torsions:
REMARK  status: ('A' for Active; 'I' for Inactive)
REMARK    1  A    between atoms: S_2  and  N_4
REMARK    2  A    between atoms: S_2  and  C_24
REMARK    3  A    between atoms: N_4  and  C_5
REMARK    4  A    between atoms: C_14  and  C_15
REMARK                            x       y       z     vdW  Elec       q    Type
REMARK                         _______ _______ _______ _____ _____    ______ ____
ROOT
ATOM      1  C   UNL     1      -0.806  10.838  20.020  0.00  0.00    +0.000 C 
ATOM      2  C   UNL     1      -0.474   9.457  20.573  0.00  0.00    +0.000 C 
ATOM      3  C   UNL     1       1.027   9.242  20.583  0.00  0.00    +0.000 C 
ATOM      4  N   UNL     1       1.497   9.316  19.201  0.00  0.00    +0.000 N 
ATOM      5  C   UNL     1       2.172   8.226  18.703  0.00  0.00    +0.000 A 
ATOM      6  C   UNL     1       3.106   8.307  17.682  0.00  0.00    +0.000 A 
ATOM      7  C   UNL     1       3.777   7.156  17.263  0.00  0.00    +0.000 A 
ATOM      8  C   UNL     1       3.508   5.926  17.864  0.00  0.00    +0.000 A 
ATOM      9 CL   UNL     1       4.343   4.550  17.244  0.00  0.00    +0.000 Cl
ATOM     10  C   UNL     1       2.562   5.890  18.885  0.00  0.00    +0.000 A 
ATOM     11  N   UNL     1       1.905   7.028  19.268  0.00  0.00    +0.000 NA
ATOM     12  C   UNL     1       1.282  10.575  18.501  0.00  0.00    +0.000 C 
ATOM     13  C   UNL     1      -0.189  11.010  18.617  0.00  0.00    +0.000 C 
ENDROOT
BRANCH  10  14
ATOM     14  C   UNL     1       2.173   4.689  19.665  0.00  0.00    +0.000 A 
ATOM     15  C   UNL     1       1.359   3.694  19.114  0.00  0.00    +0.000 A 
ATOM     16  C   UNL     1       0.970   2.605  19.896  0.00  0.00    +0.000 A 
ATOM     17  C   UNL     1       1.395   2.533  21.214  0.00  0.00    +0.000 A 
ATOM     18  C   UNL     1       2.192   3.556  21.695  0.00  0.00    +0.000 A 
ATOM     19  N   UNL     1       2.578   4.621  20.959  0.00  0.00    +0.000 NA
ENDBRANCH  10  14
BRANCH   1  20
ATOM     20  N   UNL     1      -0.380  11.963  20.891  0.00  0.00    +0.000 NA
ATOM     21  H   UNL     1       0.627  12.035  21.050  0.00  0.00    +0.000 HD
BRANCH  20  23
ATOM     22  O   UNL     1      -2.590  12.244  22.095  0.00  0.00    +0.000 OA
ATOM     23  S   UNL     1      -1.172  12.297  22.351  0.00  0.00    +0.000 S 
ATOM     24  O   UNL     1      -0.569  11.405  23.318  0.00  0.00    +0.000 OA
BRANCH  23  25
ATOM     25  C   UNL     1      -0.774  14.006  22.819  0.00  0.00    +0.000 C 
ATOM     26  C   UNL     1       0.418  14.574  22.088  0.00  0.00    +0.000 C 
ATOM     27  C   UNL     1      -0.968  15.038  21.739  0.00  0.00    +0.000 C 
ENDBRANCH  23  25
ENDBRANCH  20  23
ENDBRANCH   1  20
TORSDOF 4
ENDMDL
MODEL 5
REMARK VINA RESULT:      -7.4      0.990      1.328
REMARK  Name = 
REMARK  4 active torsions:
REMARK  status: ('A' for Active; 'I' for Inactive)
REMARK    1  A    between atoms: S_2  and  N_4
REMARK    2  A    between atoms: S_2  and  C_24
REMARK    3  A    between atoms: N_4  and  C_5
REMARK    4  A    between atoms: C_14  and  C_15
REMARK                            x       y       z     vdW  Elec       q    Type
REMARK                         _______ _______ _______ _____ _____    ______ ____
ROOT
ATOM      1  C   UNL     1      -0.788  10.856  21.235  0.00  0.00    +0.000 C 
ATOM      2  C   UNL     1      -0.392   9.429  21.593  0.00  0.00    +0.000 C 
ATOM      3  C   UNL     1       1.092   9.222  21.357  0.00  0.00    +0.000 C 
ATOM      4  N   UNL     1       1.351   9.434  19.934  0.00  0.00    +0.000 N 
ATOM      5  C   UNL     1       1.933   8.402  19.236  0.00  0.00    +0.000 A 
ATOM      6  C   UNL     1       2.705   8.589  18.099  0.00  0.00    +0.000 A 
ATOM      7  C   UNL     1       3.294   7.488  17.473  0.00  0.00    +0.000 A 
ATOM      8  C   UNL     1       3.105   6.203  17.985  0.00  0.00    +0.000 A 
ATOM      9 CL   UNL     1       3.825   4.899  17.114  0.00  0.00    +0.000 Cl
ATOM     10  C   UNL     1       2.322   6.062  19.127  0.00  0.00    +0.000 A 
ATOM     11  N   UNL     1       1.742   7.153  19.714  0.00  0.00    +0.000 NA
ATOM     12  C   UNL     1       1.047  10.755  19.402  0.00  0.00    +0.000 C 
ATOM     13  C   UNL     1      -0.387  11.170  19.779  0.00  0.00    +0.000 C 
ENDROOT
BRANCH  10  14
ATOM     14  C   UNL     1       2.042   4.788  19.834  0.00  0.00    +0.000 A 
ATOM     15  C   UNL     1       2.428   4.593  21.165  0.00  0.00    +0.000 A 
ATOM     16  C   UNL     1       2.196   3.362  21.780  0.00  0.00    +0.000 A 
ATOM     17  C   UNL     1       1.589   2.347  21.055  0.00  0.00    +0.000 A 
ATOM     18  C   UNL     1       1.242   2.607  19.742  0.00  0.00    +0.000 A 
ATOM     19  N   UNL     1       1.459   3.789  19.124  0.00  0.00    +0.000 NA
ENDBRANCH  10  14
BRANCH   1  20
ATOM     20  N   UNL     1      -0.226  11.893  22.138  0.00  0.00    +0.000 NA
ATOM     21  H   UNL     1       0.093  11.552  23.048  0.00  0.00    +0.000 HD
BRANCH  20  23
ATOM     22  O   UNL     1      -0.658  13.846  23.691  0.00  0.00    +0.000 OA
ATOM     23  S   UNL     1      -1.010  13.376  22.374  0.00  0.00    +0.000 S 
ATOM     24  O   UNL     1      -0.684  14.163  21.204  0.00  0.00    +0.000 OA
BRANCH  23  25
ATOM     25  C   UNL     1      -2.799  13.063  22.376  0.00  0.00    +0.000 C 
ATOM     26  C   UNL     1      -3.267  12.222  23.539  0.00  0.00    +0.000 C 
ATOM     27  C   UNL     1      -3.568  13.694  23.507  0.00  0.00    +0.000 C 
ENDBRANCH  23  25
ENDBRANCH  20  23
ENDBRANCH   1  20
TORSDOF 4
ENDMDL
MODEL 6
REMARK VINA RESULT:      -7.2      1.231      1.603
REMARK  Name = 
REMARK  4 active torsions:
REMARK  status: ('A' for Active; 'I' for Inactive)
REMARK    1  A    between atoms: S_2  and  N_4
REMARK    2  A    between atoms: S_2  and  C_24
REMARK    3  A    between atoms: N_4  and  C_5
REMARK    4  A    between atoms: C_14  and  C_15
REMARK                            x       y       z     vdW  Elec       q    Type
REMARK                         _______ _______ _______ _____ _____    ______ ____
ROOT
ATOM      1  C   UNL     1      -0.793  10.878  19.967  0.00  0.00    +0.000 C 
ATOM      2  C   UNL     1      -0.475   9.501  20.539  0.00  0.00    +0.000 C 
ATOM      3  C   UNL     1       1.024   9.272  20.551  0.00  0.00    +0.000 C 
ATOM      4  N   UNL     1       1.494   9.323  19.168  0.00  0.00    +0.000 N 
ATOM      5  C   UNL     1       2.158   8.220  18.684  0.00  0.00    +0.000 A 
ATOM      6  C   UNL     1       3.092   8.279  17.661  0.00  0.00    +0.000 A 
ATOM      7  C   UNL     1       3.753   7.115  17.258  0.00  0.00    +0.000 A 
ATOM      8  C   UNL     1       3.471   5.897  17.876  0.00  0.00    +0.000 A 
ATOM      9 CL   UNL     1       4.293   4.504  17.274  0.00  0.00    +0.000 Cl
ATOM     10  C   UNL     1       2.526   5.884  18.897  0.00  0.00    +0.000 A 
ATOM     11  N   UNL     1       1.881   7.033  19.266  0.00  0.00    +0.000 NA
ATOM     12  C   UNL     1       1.291  10.575  18.452  0.00  0.00    +0.000 C 
ATOM     13  C   UNL     1      -0.176  11.026  18.562  0.00  0.00    +0.000 C 
ENDROOT
BRANCH  10  14
ATOM     14  C   UNL     1       2.126   4.697  19.694  0.00  0.00    +0.000 A 
ATOM     15  C   UNL     1       2.478   4.571  21.042  0.00  0.00    +0.000 A 
ATOM     16  C   UNL     1       2.130   3.417  21.744  0.00  0.00    +0.000 A 
ATOM     17  C   UNL     1       1.443   2.406  21.087  0.00  0.00    +0.000 A 
ATOM     18  C   UNL     1       1.135   2.594  19.753  0.00  0.00    +0.000 A 
ATOM     19  N   UNL     1       1.463   3.702  19.051  0.00  0.00    +0.000 NA
ENDBRANCH  10  14
BRANCH   1  20
ATOM     20  N   UNL     1      -0.356  12.011  20.822  0.00  0.00    +0.000 NA
ATOM     21  H   UNL     1       0.076  11.747  21.710  0.00  0.00    +0.000 HD
BRANCH  20  23
ATOM     22  O   UNL     1      -0.532  14.523  21.092  0.00  0.00    +0.000 OA
ATOM     23  S   UNL     1      -1.363  13.345  21.101  0.00  0.00    +0.000 S 
ATOM     24  O   UNL     1      -2.445  13.205  20.149  0.00  0.00    +0.000 OA
BRANCH  23  25
ATOM     25  C   UNL     1      -2.047  13.183  22.776  0.00  0.00    +0.000 C 
ATOM     26  C   UNL     1      -3.425  12.568  22.813  0.00  0.00    +0.000 C 
ATOM     27  C   UNL     1      -2.234  11.771  23.267  0.00  0.00    +0.000 C 
ENDBRANCH  23  25
ENDBRANCH  20  23
ENDBRANCH   1  20
TORSDOF 4
ENDMDL
MODEL 7
REMARK VINA RESULT:      -7.2      2.791      4.496
REMARK  Name = 
REMARK  4 active torsions:
REMARK  status: ('A' for Active; 'I' for Inactive)
REMARK    1  A    between atoms: S_2  and  N_4
REMARK    2  A    between atoms: S_2  and  C_24
REMARK    3  A    between atoms: N_4  and  C_5
REMARK    4  A    between atoms: C_14  and  C_15
REMARK                            x       y       z     vdW  Elec       q    Type
REMARK                         _______ _______ _______ _____ _____    ______ ____
ROOT
ATOM      1  C   UNL     1       1.427  10.373  18.730  0.00  0.00    +0.000 C 
ATOM      2  C   UNL     1       2.309   9.442  17.907  0.00  0.00    +0.000 C 
ATOM      3  C   UNL     1       1.708   8.050  17.866  0.00  0.00    +0.000 C 
ATOM      4  N   UNL     1       1.652   7.548  19.238  0.00  0.00    +0.000 N 
ATOM      5  C   UNL     1       2.303   6.366  19.506  0.00  0.00    +0.000 A 
ATOM      6  C   UNL     1       1.935   5.508  20.530  0.00  0.00    +0.000 A 
ATOM      7  C   UNL     1       2.625   4.306  20.708  0.00  0.00    +0.000 A 
ATOM      8  C   UNL     1       3.684   3.970  19.864  0.00  0.00    +0.000 A 
ATOM      9 CL   UNL     1       4.513   2.494  20.195  0.00  0.00    +0.000 Cl
ATOM     10  C   UNL     1       4.020   4.862  18.850  0.00  0.00    +0.000 A 
ATOM     11  N   UNL     1       3.340   6.041  18.703  0.00  0.00    +0.000 NA
ATOM     12  C   UNL     1       0.838   8.303  20.180  0.00  0.00    +0.000 C 
ATOM     13  C   UNL     1       1.216   9.794  20.143  0.00  0.00    +0.000 C 
ENDROOT
BRANCH  10  14
ATOM     14  C   UNL     1       5.084   4.661  17.835  0.00  0.00    +0.000 A 
ATOM     15  C   UNL     1       6.434   4.864  18.144  0.00  0.00    +0.000 A 
ATOM     16  C   UNL     1       7.401   4.717  17.150  0.00  0.00    +0.000 A 
ATOM     17  C   UNL     1       7.005   4.377  15.865  0.00  0.00    +0.000 A 
ATOM     18  C   UNL     1       5.654   4.200  15.629  0.00  0.00    +0.000 A 
ATOM     19  N   UNL     1       4.699   4.340  16.574  0.00  0.00    +0.000 NA
ENDBRANCH  10  14
BRANCH   1  20
ATOM     20  N   UNL     1       0.108  10.669  18.114  0.00  0.00    +0.000 NA
ATOM     21  H   UNL     1       0.100  10.700  17.092  0.00  0.00    +0.000 HD
BRANCH  20  23
ATOM     22  O   UNL     1      -0.953  11.788  20.122  0.00  0.00    +0.000 OA
ATOM     23  S   UNL     1      -0.872  11.925  18.689  0.00  0.00    +0.000 S 
ATOM     24  O   UNL     1      -0.326  13.128  18.098  0.00  0.00    +0.000 OA
BRANCH  23  25
ATOM     25  C   UNL     1      -2.545  11.670  18.030  0.00  0.00    +0.000 C 
ATOM     26  C   UNL     1      -2.567  11.140  16.617  0.00  0.00    +0.000 C 
ATOM     27  C   UNL     1      -2.926  10.237  17.763  0.00  0.00    +0.000 C 
ENDBRANCH  23  25
ENDBRANCH  20  23
ENDBRANCH   1  20
TORSDOF 4
ENDMDL
MODEL 8
REMARK VINA RESULT:      -7.1      1.566      1.748
REMARK  Name = 
REMARK  4 active torsions:
REMARK  status: ('A' for Active; 'I' for Inactive)
REMARK    1  A    between atoms: S_2  and  N_4
REMARK    2  A    between atoms: S_2  and  C_24
REMARK    3  A    between atoms: N_4  and  C_5
REMARK    4  A    between atoms: C_14  and  C_15
REMARK                            x       y       z     vdW  Elec       q    Type
REMARK                         _______ _______ _______ _____ _____    ______ ____
ROOT
ATOM      1  C   UNL     1      -0.635  10.387  21.073  0.00  0.00    +0.000 C 
ATOM      2  C   UNL     1      -0.126   9.013  21.491  0.00  0.00    +0.000 C 
ATOM      3  C   UNL     1       1.355   8.887  21.186  0.00  0.00    +0.000 C 
ATOM      4  N   UNL     1       1.526   9.028  19.742  0.00  0.00    +0.000 N 
ATOM      5  C   UNL     1       2.140   7.994  19.074  0.00  0.00    +0.000 A 
ATOM      6  C   UNL     1       2.838   8.160  17.888  0.00  0.00    +0.000 A 
ATOM      7  C   UNL     1       3.469   7.062  17.296  0.00  0.00    +0.000 A 
ATOM      8  C   UNL     1       3.393   5.802  17.890  0.00  0.00    +0.000 A 
ATOM      9 CL   UNL     1       4.153   4.496  17.058  0.00  0.00    +0.000 Cl
ATOM     10  C   UNL     1       2.680   5.682  19.080  0.00  0.00    +0.000 A 
ATOM     11  N   UNL     1       2.058   6.767  19.634  0.00  0.00    +0.000 NA
ATOM     12  C   UNL     1       1.106  10.291  19.152  0.00  0.00    +0.000 C 
ATOM     13  C   UNL     1      -0.330  10.635  19.582  0.00  0.00    +0.000 C 
ENDROOT
BRANCH  10  14
ATOM     14  C   UNL     1       2.523   4.438  19.874  0.00  0.00    +0.000 A 
ATOM     15  C   UNL     1       1.317   4.126  20.511  0.00  0.00    +0.000 A 
ATOM     16  C   UNL     1       1.224   2.975  21.293  0.00  0.00    +0.000 A 
ATOM     17  C   UNL     1       2.337   2.159  21.432  0.00  0.00    +0.000 A 
ATOM     18  C   UNL     1       3.499   2.532  20.782  0.00  0.00    +0.000 A 
ATOM     19  N   UNL     1       3.614   3.644  20.021  0.00  0.00    +0.000 NA
ENDBRANCH  10  14
BRANCH   1  20
ATOM     20  N   UNL     1      -0.099  11.511  21.882  0.00  0.00    +0.000 NA
ATOM     21  H   UNL     1       0.345  11.241  22.763  0.00  0.00    +0.000 HD
BRANCH  20  23
ATOM     22  O   UNL     1      -2.266  12.753  21.468  0.00  0.00    +0.000 OA
ATOM     23  S   UNL     1      -1.010  12.913  22.157  0.00  0.00    +0.000 S 
ATOM     24  O   UNL     1      -0.981  13.105  23.591  0.00  0.00    +0.000 OA
BRANCH  23  25
ATOM     25  C   UNL     1      -0.140  14.301  21.372  0.00  0.00    +0.000 C 
ATOM     26  C   UNL     1      -0.814  15.635  21.580  0.00  0.00    +0.000 C 
ATOM     27  C   UNL     1       0.455  15.312  22.317  0.00  0.00    +0.000 C 
ENDBRANCH  23  25
ENDBRANCH  20  23
ENDBRANCH   1  20
TORSDOF 4
ENDMDL
MODEL 9
REMARK VINA RESULT:      -7.1      2.718      4.411
REMARK  Name = 
REMARK  4 active torsions:
REMARK  status: ('A' for Active; 'I' for Inactive)
REMARK    1  A    between atoms: S_2  and  N_4
REMARK    2  A    between atoms: S_2  and  C_24
REMARK    3  A    between atoms: N_4  and  C_5
REMARK    4  A    between atoms: C_14  and  C_15
REMARK                            x       y       z     vdW  Elec       q    Type
REMARK                         _______ _______ _______ _____ _____    ______ ____
ROOT
ATOM      1  C   UNL     1       1.234   9.774  19.648  0.00  0.00    +0.000 C 
ATOM      2  C   UNL     1       2.147   8.999  18.706  0.00  0.00    +0.000 C 
ATOM      3  C   UNL     1       1.622   7.590  18.508  0.00  0.00    +0.000 C 
ATOM      4  N   UNL     1       1.623   6.926  19.809  0.00  0.00    +0.000 N 
ATOM      5  C   UNL     1       2.342   5.760  19.924  0.00  0.00    +0.000 A 
ATOM      6  C   UNL     1       2.043   4.766  20.843  0.00  0.00    +0.000 A 
ATOM      7  C   UNL     1       2.800   3.592  20.866  0.00  0.00    +0.000 A 
ATOM      8  C   UNL     1       3.857   3.420  19.971  0.00  0.00    +0.000 A 
ATOM      9 CL   UNL     1       4.772   1.963  20.110  0.00  0.00    +0.000 Cl
ATOM     10  C   UNL     1       4.123   4.443  19.067  0.00  0.00    +0.000 A 
ATOM     11  N   UNL     1       3.377   5.591  19.073  0.00  0.00    +0.000 NA
ATOM     12  C   UNL     1       0.789   7.517  20.847  0.00  0.00    +0.000 C 
ATOM     13  C   UNL     1       1.086   9.020  20.985  0.00  0.00    +0.000 C 
ENDROOT
BRANCH  10  14
ATOM     14  C   UNL     1       5.175   4.424  18.020  0.00  0.00    +0.000 A 
ATOM     15  C   UNL     1       4.868   4.148  16.683  0.00  0.00    +0.000 A 
ATOM     16  C   UNL     1       5.891   4.086  15.736  0.00  0.00    +0.000 A 
ATOM     17  C   UNL     1       7.201   4.295  16.140  0.00  0.00    +0.000 A 
ATOM     18  C   UNL     1       7.432   4.555  17.479  0.00  0.00    +0.000 A 
ATOM     19  N   UNL     1       6.459   4.617  18.414  0.00  0.00    +0.000 NA
ENDBRANCH  10  14
BRANCH   1  20
ATOM     20  N   UNL     1      -0.112  10.067  19.092  0.00  0.00    +0.000 NA
ATOM     21  H   UNL     1      -0.266   9.749  18.132  0.00  0.00    +0.000 HD
BRANCH  20  23
ATOM     22  O   UNL     1      -1.063  11.802  20.671  0.00  0.00    +0.000 OA
ATOM     23  S   UNL     1      -0.824  11.594  19.265  0.00  0.00    +0.000 S 
ATOM     24  O   UNL     1       0.035  12.496  18.527  0.00  0.00    +0.000 OA
BRANCH  23  25
ATOM     25  C   UNL     1      -2.445  11.545  18.446  0.00  0.00    +0.000 C 
ATOM     26  C   UNL     1      -2.366  11.323  16.955  0.00  0.00    +0.000 C 
ATOM     27  C   UNL     1      -2.835  10.215  17.857  0.00  0.00    +0.000 C 
ENDBRANCH  23  25
ENDBRANCH  20  23
ENDBRANCH   1  20
TORSDOF 4
ENDMDL
