MODEL 1
REMARK VINA RESULT:      -7.7      0.000      0.000
REMARK  Name = 
REMARK  11 active torsions:
REMARK  status: ('A' for Active; 'I' for Inactive)
REMARK    1  A    between atoms: C_1  and  C_2
REMARK    2  A    between atoms: C_2  and  N_3
REMARK    3  A    between atoms: C_2  and  C_16
REMARK    4  A    between atoms: C_4  and  C_6
REMARK    5  A    between atoms: C_6  and  C_7
REMARK    6  A    between atoms: C_6  and  C_8
REMARK    7  A    between atoms: C_6  and  O_9
REMARK    8  A    between atoms: O_9  and  C_10
REMARK    9  A    between atoms: C_16  and  C_17
REMARK   10  A    between atoms: C_16  and  C_25
REMARK   11  A    between atoms: C_17  and  C_18
REMARK                            x       y       z     vdW  Elec       q    Type
REMARK                         _______ _______ _______ _____ _____    ______ ____
ROOT
ATOM      1  C   UNL     1       5.025   6.052  19.300  0.00  0.00    +0.000 C 
ATOM      2  C   UNL     1       3.981   6.075  18.165  0.00  0.00    +0.000 C 
ENDROOT
BRANCH   2   3
ATOM      3  N   UNL     1       2.898   6.991  18.551  0.00  0.00    +0.000 N 
ATOM      4  C   UNL     1       2.621   8.139  17.809  0.00  0.00    +0.000 C 
ATOM      5  O   UNL     1       3.098   8.294  16.684  0.00  0.00    +0.000 OA
ATOM      6  H   UNL     1       2.560   6.932  19.502  0.00  0.00    +0.000 HD
BRANCH   4   7
ATOM      7  C   UNL     1       1.680   9.208  18.478  0.00  0.00    +0.000 C 
ATOM      8  C   UNL     1       2.278  10.600  18.221  0.00  0.00    +0.000 C 
ATOM      9  C   UNL     1       0.309   9.073  17.790  0.00  0.00    +0.000 C 
BRANCH   7  10
ATOM     10  O   UNL     1       1.619   8.855  19.876  0.00  0.00    +0.000 OA
BRANCH  10  11
ATOM     11  C   UNL     1       0.784   9.483  20.763  0.00  0.00    +0.000 A 
ATOM     12  C   UNL     1       0.217   8.671  21.753  0.00  0.00    +0.000 A 
ATOM     13  C   UNL     1      -0.567   9.218  22.779  0.00  0.00    +0.000 A 
ATOM     14  C   UNL     1      -0.783  10.596  22.838  0.00  0.00    +0.000 A 
ATOM     15  C   UNL     1      -0.230  11.410  21.855  0.00  0.00    +0.000 A 
ATOM     16  C   UNL     1       0.547  10.855  20.829  0.00  0.00    +0.000 A 
ENDBRANCH  10  11
ENDBRANCH   7  10
ENDBRANCH   4   7
ENDBRANCH   2   3
BRANCH   2  17
ATOM     17  C   UNL     1       3.452   4.635  17.851  0.00  0.00    +0.000 C 
BRANCH  17  18
ATOM     18  C   UNL     1       2.572   4.010  18.937  0.00  0.00    +0.000 A 
ATOM     19  C   UNL     1       2.972   4.074  20.282  0.00  0.00    +0.000 A 
ATOM     20  C   UNL     1       2.175   3.530  21.292  0.00  0.00    +0.000 A 
ATOM     21  C   UNL     1       0.973   2.902  20.972  0.00  0.00    +0.000 A 
ATOM     22  C   UNL     1       0.557   2.838  19.647  0.00  0.00    +0.000 A 
ATOM     23  C   UNL     1       1.341   3.402  18.641  0.00  0.00    +0.000 A 
ENDBRANCH  17  18
BRANCH  17  24
ATOM     24  C   UNL     1       4.571   3.645  17.424  0.00  0.00    +0.000 C 
BRANCH  24  25
ATOM     25  C   UNL     1       5.412   4.058  16.238  0.00  0.00    +0.000 A 
ATOM     26  C   UNL     1       4.900   3.963  14.936  0.00  0.00    +0.000 A 
ATOM     27  C   UNL     1       5.679   4.343  13.840  0.00  0.00    +0.000 A 
ATOM     28  C   UNL     1       6.970   4.825  14.039  0.00  0.00    +0.000 A 
ATOM     29 CL   UNL     1       7.923   5.298  12.688  0.00  0.00    +0.000 Cl
ATOM     30  C   UNL     1       7.487   4.926  15.327  0.00  0.00    +0.000 A 
ATOM     31  C   UNL     1       6.713   4.542  16.423  0.00  0.00    +0.000 A 
ENDBRANCH  24  25
ENDBRANCH  17  24
ENDBRANCH   2  17
TORSDOF 8
ENDMDL
MODEL 2
REMARK VINA RESULT:      -7.7      1.749      2.482
REMARK  Name = 
REMARK  11 active torsions:
REMARK  status: ('A' for Active; 'I' for Inactive)
REMARK    1  A    between atoms: C_1  and  C_2
REMARK    2  A    between atoms: C_2  and  N_3
REMARK    3  A    between atoms: C_2  and  C_16
REMARK    4  A    between atoms: C_4  and  C_6
REMARK    5  A    between atoms: C_6  and  C_7
REMARK    6  A    between atoms: C_6  and  C_8
REMARK    7  A    between atoms: C_6  and  O_9
REMARK    8  A    between atoms: O_9  and  C_10
REMARK    9  A    between atoms: C_16  and  C_17
REMARK   10  A    between atoms: C_16  and  C_25
REMARK   11  A    between atoms: C_17  and  C_18
REMARK                            x       y       z     vdW  Elec       q    Type
REMARK                         _______ _______ _______ _____ _____    ______ ____
ROOT
ATOM      1  C   UNL     1       1.302   6.263  20.838  0.00  0.00    +0.000 C 
ATOM      2  C   UNL     1       2.440   6.934  20.043  0.00  0.00    +0.000 C 
ENDROOT
BRANCH   2   3
ATOM      3  N   UNL     1       1.966   8.242  19.570  0.00  0.00    +0.000 N 
ATOM      4  C   UNL     1       1.391   9.163  20.445  0.00  0.00    +0.000 C 
ATOM      5  O   UNL     1       1.486   9.020  21.665  0.00  0.00    +0.000 OA
ATOM      6  H   UNL     1       1.799   8.343  18.578  0.00  0.00    +0.000 HD
BRANCH   4   7
ATOM      7  C   UNL     1       0.626  10.378  19.798  0.00  0.00    +0.000 C 
ATOM      8  C   UNL     1       1.435  10.860  18.584  0.00  0.00    +0.000 C 
ATOM      9  C   UNL     1      -0.747   9.841  19.355  0.00  0.00    +0.000 C 
BRANCH   7  10
ATOM     10  O   UNL     1       0.508  11.366  20.843  0.00  0.00    +0.000 OA
BRANCH  10  11
ATOM     11  C   UNL     1      -0.702  11.774  21.341  0.00  0.00    +0.000 A 
ATOM     12  C   UNL     1      -1.055  11.258  22.595  0.00  0.00    +0.000 A 
ATOM     13  C   UNL     1      -2.217  11.686  23.254  0.00  0.00    +0.000 A 
ATOM     14  C   UNL     1      -3.037  12.653  22.672  0.00  0.00    +0.000 A 
ATOM     15  C   UNL     1      -2.698  13.167  21.425  0.00  0.00    +0.000 A 
ATOM     16  C   UNL     1      -1.539  12.730  20.769  0.00  0.00    +0.000 A 
ENDBRANCH  10  11
ENDBRANCH   7  10
ENDBRANCH   4   7
ENDBRANCH   2   3
BRANCH   2  17
ATOM     17  C   UNL     1       2.924   6.020  18.866  0.00  0.00    +0.000 C 
BRANCH  17  18
ATOM     18  C   UNL     1       2.503   4.551  18.962  0.00  0.00    +0.000 A 
ATOM     19  C   UNL     1       3.173   3.689  19.846  0.00  0.00    +0.000 A 
ATOM     20  C   UNL     1       2.793   2.351  19.965  0.00  0.00    +0.000 A 
ATOM     21  C   UNL     1       1.745   1.850  19.195  0.00  0.00    +0.000 A 
ATOM     22  C   UNL     1       1.064   2.691  18.323  0.00  0.00    +0.000 A 
ATOM     23  C   UNL     1       1.428   4.034  18.220  0.00  0.00    +0.000 A 
ENDBRANCH  17  18
BRANCH  17  24
ATOM     24  C   UNL     1       4.448   6.130  18.585  0.00  0.00    +0.000 C 
BRANCH  24  25
ATOM     25  C   UNL     1       4.927   5.561  17.269  0.00  0.00    +0.000 A 
ATOM     26  C   UNL     1       4.953   6.359  16.116  0.00  0.00    +0.000 A 
ATOM     27  C   UNL     1       5.393   5.832  14.900  0.00  0.00    +0.000 A 
ATOM     28  C   UNL     1       5.817   4.507  14.830  0.00  0.00    +0.000 A 
ATOM     29 CL   UNL     1       6.366   3.864  13.333  0.00  0.00    +0.000 Cl
ATOM     30  C   UNL     1       5.798   3.707  15.969  0.00  0.00    +0.000 A 
ATOM     31  C   UNL     1       5.353   4.230  17.183  0.00  0.00    +0.000 A 
ENDBRANCH  24  25
ENDBRANCH  17  24
ENDBRANCH   2  17
TORSDOF 8
ENDMDL
MODEL 3
REMARK VINA RESULT:      -7.7      2.396      3.865
REMARK  Name = 
REMARK  11 active torsions:
REMARK  status: ('A' for Active; 'I' for Inactive)
REMARK    1  A    between atoms: C_1  and  C_2
REMARK    2  A    between atoms: C_2  and  N_3
REMARK    3  A    between atoms: C_2  and  C_16
REMARK    4  A    between atoms: C_4  and  C_6
REMARK    5  A    between atoms: C_6  and  C_7
REMARK    6  A    between atoms: C_6  and  C_8
REMARK    7  A    between atoms: C_6  and  O_9
REMARK    8  A    between atoms: O_9  and  C_10
REMARK    9  A    between atoms: C_16  and  C_17
REMARK   10  A    between atoms: C_16  and  C_25
REMARK   11  A    between atoms: C_17  and  C_18
REMARK                            x       y       z     vdW  Elec       q    Type
REMARK                         _______ _______ _______ _____ _____    ______ ____
ROOT
ATOM      1  C   UNL     1       1.226   7.169  21.114  0.00  0.00    +0.000 C 
ATOM      2  C   UNL     1       1.982   7.887  19.978  0.00  0.00    +0.000 C 
ENDROOT
BRANCH   2   3
ATOM      3  N   UNL     1       1.082   8.883  19.380  0.00  0.00    +0.000 N 
ATOM      4  C   UNL     1       0.751  10.058  20.055  0.00  0.00    +0.000 C 
ATOM      5  O   UNL     1       1.387  10.415  21.048  0.00  0.00    +0.000 OA
ATOM      6  H   UNL     1       0.491   8.575  18.620  0.00  0.00    +0.000 HD
BRANCH   4   7
ATOM      7  C   UNL     1      -0.458  10.889  19.485  0.00  0.00    +0.000 C 
ATOM      8  C   UNL     1      -1.077  11.687  20.644  0.00  0.00    +0.000 C 
ATOM      9  C   UNL     1       0.128  11.840  18.426  0.00  0.00    +0.000 C 
BRANCH   7  10
ATOM     10  O   UNL     1      -1.357   9.921  18.904  0.00  0.00    +0.000 OA
BRANCH  10  11
ATOM     11  C   UNL     1      -2.178  10.216  17.847  0.00  0.00    +0.000 A 
ATOM     12  C   UNL     1      -3.258  11.063  18.126  0.00  0.00    +0.000 A 
ATOM     13  C   UNL     1      -4.103  11.521  17.105  0.00  0.00    +0.000 A 
ATOM     14  C   UNL     1      -3.869  11.148  15.781  0.00  0.00    +0.000 A 
ATOM     15  C   UNL     1      -2.803  10.302  15.494  0.00  0.00    +0.000 A 
ATOM     16  C   UNL     1      -1.966   9.843  16.521  0.00  0.00    +0.000 A 
ENDBRANCH  10  11
ENDBRANCH   7  10
ENDBRANCH   4   7
ENDBRANCH   2   3
BRANCH   2  17
ATOM     17  C   UNL     1       2.518   6.864  18.919  0.00  0.00    +0.000 C 
BRANCH  17  18
ATOM     18  C   UNL     1       2.110   5.407  19.151  0.00  0.00    +0.000 A 
ATOM     19  C   UNL     1       1.473   4.688  18.126  0.00  0.00    +0.000 A 
ATOM     20  C   UNL     1       1.110   3.352  18.309  0.00  0.00    +0.000 A 
ATOM     21  C   UNL     1       1.367   2.717  19.522  0.00  0.00    +0.000 A 
ATOM     22  C   UNL     1       2.006   3.410  20.544  0.00  0.00    +0.000 A 
ATOM     23  C   UNL     1       2.389   4.737  20.354  0.00  0.00    +0.000 A 
ENDBRANCH  17  18
BRANCH  17  24
ATOM     24  C   UNL     1       4.050   6.966  18.683  0.00  0.00    +0.000 C 
BRANCH  24  25
ATOM     25  C   UNL     1       4.604   6.159  17.531  0.00  0.00    +0.000 A 
ATOM     26  C   UNL     1       4.774   6.745  16.268  0.00  0.00    +0.000 A 
ATOM     27  C   UNL     1       5.282   5.998  15.204  0.00  0.00    +0.000 A 
ATOM     28  C   UNL     1       5.631   4.663  15.396  0.00  0.00    +0.000 A 
ATOM     29 CL   UNL     1       6.264   3.748  14.085  0.00  0.00    +0.000 Cl
ATOM     30  C   UNL     1       5.469   4.072  16.645  0.00  0.00    +0.000 A 
ATOM     31  C   UNL     1       4.955   4.815  17.709  0.00  0.00    +0.000 A 
ENDBRANCH  24  25
ENDBRANCH  17  24
ENDBRANCH   2  17
TORSDOF 8
ENDMDL
MODEL 4
REMARK VINA RESULT:      -7.7      3.368      8.270
REMARK  Name = 
REMARK  11 active torsions:
REMARK  status: ('A' for Active; 'I' for Inactive)
REMARK    1  A    between atoms: C_1  and  C_2
REMARK    2  A    between atoms: C_2  and  N_3
REMARK    3  A    between atoms: C_2  and  C_16
REMARK    4  A    between atoms: C_4  and  C_6
REMARK    5  A    between atoms: C_6  and  C_7
REMARK    6  A    between atoms: C_6  and  C_8
REMARK    7  A    between atoms: C_6  and  O_9
REMARK    8  A    between atoms: O_9  and  C_10
REMARK    9  A    between atoms: C_16  and  C_17
REMARK   10  A    between atoms: C_16  and  C_25
REMARK   11  A    between atoms: C_17  and  C_18
REMARK                            x       y       z     vdW  Elec       q    Type
REMARK                         _______ _______ _______ _____ _____    ______ ____
ROOT
ATOM      1  C   UNL     1      -0.694   9.706  18.104  0.00  0.00    +0.000 C 
ATOM      2  C   UNL     1       0.777  10.064  18.391  0.00  0.00    +0.000 C 
ENDROOT
BRANCH   2   3
ATOM      3  N   UNL     1       1.463   8.855  18.868  0.00  0.00    +0.000 N 
ATOM      4  C   UNL     1       2.344   8.151  18.049  0.00  0.00    +0.000 C 
ATOM      5  O   UNL     1       2.766   8.647  17.003  0.00  0.00    +0.000 OA
ATOM      6  H   UNL     1       1.072   8.389  19.676  0.00  0.00    +0.000 HD
BRANCH   4   7
ATOM      7  C   UNL     1       2.765   6.711  18.526  0.00  0.00    +0.000 C 
ATOM      8  C   UNL     1       4.228   6.480  18.117  0.00  0.00    +0.000 C 
ATOM      9  C   UNL     1       2.624   6.703  20.060  0.00  0.00    +0.000 C 
BRANCH   7  10
ATOM     10  O   UNL     1       1.837   5.804  17.894  0.00  0.00    +0.000 OA
BRANCH  10  11
ATOM     11  C   UNL     1       1.762   4.476  18.222  0.00  0.00    +0.000 A 
ATOM     12  C   UNL     1       2.457   3.596  17.381  0.00  0.00    +0.000 A 
ATOM     13  C   UNL     1       2.543   2.228  17.675  0.00  0.00    +0.000 A 
ATOM     14  C   UNL     1       1.945   1.720  18.829  0.00  0.00    +0.000 A 
ATOM     15  C   UNL     1       1.248   2.584  19.667  0.00  0.00    +0.000 A 
ATOM     16  C   UNL     1       1.160   3.949  19.363  0.00  0.00    +0.000 A 
ENDBRANCH  10  11
ENDBRANCH   7  10
ENDBRANCH   4   7
ENDBRANCH   2   3
BRANCH   2  17
ATOM     17  C   UNL     1       0.883  11.245  19.415  0.00  0.00    +0.000 C 
BRANCH  17  18
ATOM     18  C   UNL     1       0.178  11.015  20.754  0.00  0.00    +0.000 A 
ATOM     19  C   UNL     1       0.626   9.999  21.614  0.00  0.00    +0.000 A 
ATOM     20  C   UNL     1       0.011   9.785  22.850  0.00  0.00    +0.000 A 
ATOM     21  C   UNL     1      -1.069  10.575  23.240  0.00  0.00    +0.000 A 
ATOM     22  C   UNL     1      -1.518  11.592  22.406  0.00  0.00    +0.000 A 
ATOM     23  C   UNL     1      -0.890  11.821  21.182  0.00  0.00    +0.000 A 
ENDBRANCH  17  18
BRANCH  17  24
ATOM     24  C   UNL     1       0.475  12.619  18.817  0.00  0.00    +0.000 C 
BRANCH  24  25
ATOM     25  C   UNL     1       1.562  13.668  18.748  0.00  0.00    +0.000 A 
ATOM     26  C   UNL     1       2.862  13.321  18.351  0.00  0.00    +0.000 A 
ATOM     27  C   UNL     1       3.865  14.290  18.291  0.00  0.00    +0.000 A 
ATOM     28  C   UNL     1       3.576  15.611  18.621  0.00  0.00    +0.000 A 
ATOM     29 CL   UNL     1       4.813  16.803  18.539  0.00  0.00    +0.000 Cl
ATOM     30  C   UNL     1       2.290  15.968  19.014  0.00  0.00    +0.000 A 
ATOM     31  C   UNL     1       1.286  15.000  19.081  0.00  0.00    +0.000 A 
ENDBRANCH  24  25
ENDBRANCH  17  24
ENDBRANCH   2  17
TORSDOF 8
ENDMDL
MODEL 5
REMARK VINA RESULT:      -7.6      2.307      3.310
REMARK  Name = 
REMARK  11 active torsions:
REMARK  status: ('A' for Active; 'I' for Inactive)
REMARK    1  A    between atoms: C_1  and  C_2
REMARK    2  A    between atoms: C_2  and  N_3
REMARK    3  A    between atoms: C_2  and  C_16
REMARK    4  A    between atoms: C_4  and  C_6
REMARK    5  A    between atoms: C_6  and  C_7
REMARK    6  A    between atoms: C_6  and  C_8
REMARK    7  A    between atoms: C_6  and  O_9
REMARK    8  A    between atoms: O_9  and  C_10
REMARK    9  A    between atoms: C_16  and  C_17
REMARK   10  A    between atoms: C_16  and  C_25
REMARK   11  A    between atoms: C_17  and  C_18
REMARK                            x       y       z     vdW  Elec       q    Type
REMARK                         _______ _______ _______ _____ _____    ______ ____
ROOT
ATOM      1  C   UNL     1       1.061   6.992  21.009  0.00  0.00    +0.000 C 
ATOM      2  C   UNL     1       2.099   7.527  20.003  0.00  0.00    +0.000 C 
ENDROOT
BRANCH   2   3
ATOM      3  N   UNL     1       1.487   8.631  19.249  0.00  0.00    +0.000 N 
ATOM      4  C   UNL     1       0.962   9.748  19.899  0.00  0.00    +0.000 C 
ATOM      5  O   UNL     1       1.212   9.963  21.086  0.00  0.00    +0.000 OA
ATOM      6  H   UNL     1       1.196   8.438  18.301  0.00  0.00    +0.000 HD
BRANCH   4   7
ATOM      7  C   UNL     1       0.047  10.703  19.045  0.00  0.00    +0.000 C 
ATOM      8  C   UNL     1      -0.543   9.887  17.883  0.00  0.00    +0.000 C 
ATOM      9  C   UNL     1      -1.070  11.191  19.985  0.00  0.00    +0.000 C 
BRANCH   7  10
ATOM     10  O   UNL     1       0.903  11.783  18.617  0.00  0.00    +0.000 OA
BRANCH  10  11
ATOM     11  C   UNL     1       0.733  13.074  19.042  0.00  0.00    +0.000 A 
ATOM     12  C   UNL     1       1.593  13.504  20.060  0.00  0.00    +0.000 A 
ATOM     13  C   UNL     1       1.586  14.835  20.502  0.00  0.00    +0.000 A 
ATOM     14  C   UNL     1       0.725  15.764  19.917  0.00  0.00    +0.000 A 
ATOM     15  C   UNL     1      -0.138  15.345  18.909  0.00  0.00    +0.000 A 
ATOM     16  C   UNL     1      -0.130  14.012  18.477  0.00  0.00    +0.000 A 
ENDBRANCH  10  11
ENDBRANCH   7  10
ENDBRANCH   4   7
ENDBRANCH   2   3
BRANCH   2  17
ATOM     17  C   UNL     1       2.618   6.387  19.063  0.00  0.00    +0.000 C 
BRANCH  17  18
ATOM     18  C   UNL     1       2.189   4.970  19.455  0.00  0.00    +0.000 A 
ATOM     19  C   UNL     1       2.551   4.453  20.710  0.00  0.00    +0.000 A 
ATOM     20  C   UNL     1       2.153   3.171  21.097  0.00  0.00    +0.000 A 
ATOM     21  C   UNL     1       1.398   2.382  20.232  0.00  0.00    +0.000 A 
ATOM     22  C   UNL     1       1.023   2.882  18.990  0.00  0.00    +0.000 A 
ATOM     23  C   UNL     1       1.400   4.170  18.613  0.00  0.00    +0.000 A 
ENDBRANCH  17  18
BRANCH  17  24
ATOM     24  C   UNL     1       4.151   6.440  18.815  0.00  0.00    +0.000 C 
BRANCH  24  25
ATOM     25  C   UNL     1       4.645   5.785  17.546  0.00  0.00    +0.000 A 
ATOM     26  C   UNL     1       4.857   4.399  17.497  0.00  0.00    +0.000 A 
ATOM     27  C   UNL     1       5.317   3.795  16.325  0.00  0.00    +0.000 A 
ATOM     28  C   UNL     1       5.562   4.569  15.194  0.00  0.00    +0.000 A 
ATOM     29 CL   UNL     1       6.121   3.821  13.750  0.00  0.00    +0.000 Cl
ATOM     30  C   UNL     1       5.353   5.945  15.231  0.00  0.00    +0.000 A 
ATOM     31  C   UNL     1       4.899   6.552  16.403  0.00  0.00    +0.000 A 
ENDBRANCH  24  25
ENDBRANCH  17  24
ENDBRANCH   2  17
TORSDOF 8
ENDMDL
MODEL 6
REMARK VINA RESULT:      -7.6      2.128      3.373
REMARK  Name = 
REMARK  11 active torsions:
REMARK  status: ('A' for Active; 'I' for Inactive)
REMARK    1  A    between atoms: C_1  and  C_2
REMARK    2  A    between atoms: C_2  and  N_3
REMARK    3  A    between atoms: C_2  and  C_16
REMARK    4  A    between atoms: C_4  and  C_6
REMARK    5  A    between atoms: C_6  and  C_7
REMARK    6  A    between atoms: C_6  and  C_8
REMARK    7  A    between atoms: C_6  and  O_9
REMARK    8  A    between atoms: O_9  and  C_10
REMARK    9  A    between atoms: C_16  and  C_17
REMARK   10  A    between atoms: C_16  and  C_25
REMARK   11  A    between atoms: C_17  and  C_18
REMARK                            x       y       z     vdW  Elec       q    Type
REMARK                         _______ _______ _______ _____ _____    ______ ____
ROOT
ATOM      1  C   UNL     1       0.699   6.669  20.974  0.00  0.00    +0.000 C 
ATOM      2  C   UNL     1       1.949   7.240  20.274  0.00  0.00    +0.000 C 
ENDROOT
BRANCH   2   3
ATOM      3  N   UNL     1       1.596   8.541  19.687  0.00  0.00    +0.000 N 
ATOM      4  C   UNL     1       1.199   9.612  20.487  0.00  0.00    +0.000 C 
ATOM      5  O   UNL     1       1.367   9.586  21.707  0.00  0.00    +0.000 OA
ATOM      6  H   UNL     1       1.370   8.559  18.702  0.00  0.00    +0.000 HD
BRANCH   4   7
ATOM      7  C   UNL     1       0.535  10.838  19.756  0.00  0.00    +0.000 C 
ATOM      8  C   UNL     1       0.956  12.119  20.493  0.00  0.00    +0.000 C 
ATOM      9  C   UNL     1       1.083  10.836  18.317  0.00  0.00    +0.000 C 
BRANCH   7  10
ATOM     10  O   UNL     1      -0.886  10.591  19.792  0.00  0.00    +0.000 OA
BRANCH  10  11
ATOM     11  C   UNL     1      -1.688  10.721  18.689  0.00  0.00    +0.000 A 
ATOM     12  C   UNL     1      -1.410   9.855  17.623  0.00  0.00    +0.000 A 
ATOM     13  C   UNL     1      -2.229   9.820  16.485  0.00  0.00    +0.000 A 
ATOM     14  C   UNL     1      -3.352  10.645  16.403  0.00  0.00    +0.000 A 
ATOM     15  C   UNL     1      -3.633  11.512  17.453  0.00  0.00    +0.000 A 
ATOM     16  C   UNL     1      -2.806  11.546  18.585  0.00  0.00    +0.000 A 
ENDBRANCH  10  11
ENDBRANCH   7  10
ENDBRANCH   4   7
ENDBRANCH   2   3
BRANCH   2  17
ATOM     17  C   UNL     1       2.505   6.242  19.203  0.00  0.00    +0.000 C 
BRANCH  17  18
ATOM     18  C   UNL     1       2.116   4.775  19.411  0.00  0.00    +0.000 A 
ATOM     19  C   UNL     1       2.560   4.091  20.555  0.00  0.00    +0.000 A 
ATOM     20  C   UNL     1       2.201   2.759  20.776  0.00  0.00    +0.000 A 
ATOM     21  C   UNL     1       1.402   2.088  19.853  0.00  0.00    +0.000 A 
ATOM     22  C   UNL     1       0.945   2.753  18.721  0.00  0.00    +0.000 A 
ATOM     23  C   UNL     1       1.285   4.089  18.511  0.00  0.00    +0.000 A 
ENDBRANCH  17  18
BRANCH  17  24
ATOM     24  C   UNL     1       4.037   6.369  18.976  0.00  0.00    +0.000 C 
BRANCH  24  25
ATOM     25  C   UNL     1       4.573   5.782  17.691  0.00  0.00    +0.000 A 
ATOM     26  C   UNL     1       4.791   6.599  16.572  0.00  0.00    +0.000 A 
ATOM     27  C   UNL     1       5.284   6.056  15.384  0.00  0.00    +0.000 A 
ATOM     28  C   UNL     1       5.568   4.695  15.308  0.00  0.00    +0.000 A 
ATOM     29 CL   UNL     1       6.182   4.030  13.846  0.00  0.00    +0.000 Cl
ATOM     30  C   UNL     1       5.358   3.874  16.412  0.00  0.00    +0.000 A 
ATOM     31  C   UNL     1       4.859   4.414  17.599  0.00  0.00    +0.000 A 
ENDBRANCH  24  25
ENDBRANCH  17  24
ENDBRANCH   2  17
TORSDOF 8
ENDMDL
MODEL 7
REMARK VINA RESULT:      -7.6      2.109      3.062
REMARK  Name = 
REMARK  11 active torsions:
REMARK  status: ('A' for Active; 'I' for Inactive)
REMARK    1  A    between atoms: C_1  and  C_2
REMARK    2  A    between atoms: C_2  and  N_3
REMARK    3  A    between atoms: C_2  and  C_16
REMARK    4  A    between atoms: C_4  and  C_6
REMARK    5  A    between atoms: C_6  and  C_7
REMARK    6  A    between atoms: C_6  and  C_8
REMARK    7  A    between atoms: C_6  and  O_9
REMARK    8  A    between atoms: O_9  and  C_10
REMARK    9  A    between atoms: C_16  and  C_17
REMARK   10  A    between atoms: C_16  and  C_25
REMARK   11  A    between atoms: C_17  and  C_18
REMARK                            x       y       z     vdW  Elec       q    Type
REMARK                         _______ _______ _______ _____ _____    ______ ____
ROOT
ATOM      1  C   UNL     1       1.296   6.567  20.705  0.00  0.00    +0.000 C 
ATOM      2  C   UNL     1       2.343   7.193  19.762  0.00  0.00    +0.000 C 
ENDROOT
BRANCH   2   3
ATOM      3  N   UNL     1       1.741   8.368  19.116  0.00  0.00    +0.000 N 
ATOM      4  C   UNL     1       1.173   9.396  19.867  0.00  0.00    +0.000 C 
ATOM      5  O   UNL     1       1.375   9.477  21.080  0.00  0.00    +0.000 OA
ATOM      6  H   UNL     1       1.489   8.281  18.141  0.00  0.00    +0.000 HD
BRANCH   4   7
ATOM      7  C   UNL     1       0.274  10.431  19.093  0.00  0.00    +0.000 C 
ATOM      8  C   UNL     1      -0.333   9.719  17.874  0.00  0.00    +0.000 C 
ATOM      9  C   UNL     1      -0.831  10.866  20.072  0.00  0.00    +0.000 C 
BRANCH   7  10
ATOM     10  O   UNL     1       1.150  11.524  18.746  0.00  0.00    +0.000 OA
BRANCH  10  11
ATOM     11  C   UNL     1       1.050  12.763  19.324  0.00  0.00    +0.000 A 
ATOM     12  C   UNL     1       0.305  13.713  18.614  0.00  0.00    +0.000 A 
ATOM     13  C   UNL     1       0.043  14.981  19.155  0.00  0.00    +0.000 A 
ATOM     14  C   UNL     1       0.512  15.311  20.426  0.00  0.00    +0.000 A 
ATOM     15  C   UNL     1       1.259  14.377  21.137  0.00  0.00    +0.000 A 
ATOM     16  C   UNL     1       1.522  13.115  20.587  0.00  0.00    +0.000 A 
ENDBRANCH  10  11
ENDBRANCH   7  10
ENDBRANCH   4   7
ENDBRANCH   2   3
BRANCH   2  17
ATOM     17  C   UNL     1       2.864   6.147  18.719  0.00  0.00    +0.000 C 
BRANCH  17  18
ATOM     18  C   UNL     1       2.449   4.697  18.983  0.00  0.00    +0.000 A 
ATOM     19  C   UNL     1       3.033   3.986  20.045  0.00  0.00    +0.000 A 
ATOM     20  C   UNL     1       2.655   2.669  20.317  0.00  0.00    +0.000 A 
ATOM     21  C   UNL     1       1.697   2.039  19.526  0.00  0.00    +0.000 A 
ATOM     22  C   UNL     1       1.101   2.731  18.478  0.00  0.00    +0.000 A 
ATOM     23  C   UNL     1       1.461   4.053  18.220  0.00  0.00    +0.000 A 
ENDBRANCH  17  18
BRANCH  17  24
ATOM     24  C   UNL     1       4.394   6.236  18.466  0.00  0.00    +0.000 C 
BRANCH  24  25
ATOM     25  C   UNL     1       4.895   5.625  17.177  0.00  0.00    +0.000 A 
ATOM     26  C   UNL     1       5.238   4.266  17.119  0.00  0.00    +0.000 A 
ATOM     27  C   UNL     1       5.703   3.704  15.929  0.00  0.00    +0.000 A 
ATOM     28  C   UNL     1       5.822   4.493  14.788  0.00  0.00    +0.000 A 
ATOM     29 CL   UNL     1       6.389   3.796  13.322  0.00  0.00    +0.000 Cl
ATOM     30  C   UNL     1       5.483   5.842  14.833  0.00  0.00    +0.000 A 
ATOM     31  C   UNL     1       5.023   6.408  16.023  0.00  0.00    +0.000 A 
ENDBRANCH  24  25
ENDBRANCH  17  24
ENDBRANCH   2  17
TORSDOF 8
ENDMDL
MODEL 8
REMARK VINA RESULT:      -7.6      2.049      3.263
REMARK  Name = 
REMARK  11 active torsions:
REMARK  status: ('A' for Active; 'I' for Inactive)
REMARK    1  A    between atoms: C_1  and  C_2
REMARK    2  A    between atoms: C_2  and  N_3
REMARK    3  A    between atoms: C_2  and  C_16
REMARK    4  A    between atoms: C_4  and  C_6
REMARK    5  A    between atoms: C_6  and  C_7
REMARK    6  A    between atoms: C_6  and  C_8
REMARK    7  A    between atoms: C_6  and  O_9
REMARK    8  A    between atoms: O_9  and  C_10
REMARK    9  A    between atoms: C_16  and  C_17
REMARK   10  A    between atoms: C_16  and  C_25
REMARK   11  A    between atoms: C_17  and  C_18
REMARK                            x       y       z     vdW  Elec       q    Type
REMARK                         _______ _______ _______ _____ _____    ______ ____
ROOT
ATOM      1  C   UNL     1       1.426   5.682  20.365  0.00  0.00    +0.000 C 
ATOM      2  C   UNL     1       2.579   6.544  19.812  0.00  0.00    +0.000 C 
ENDROOT
BRANCH   2   3
ATOM      3  N   UNL     1       2.038   7.861  19.449  0.00  0.00    +0.000 N 
ATOM      4  C   UNL     1       1.462   8.697  20.405  0.00  0.00    +0.000 C 
ATOM      5  O   UNL     1       1.609   8.474  21.608  0.00  0.00    +0.000 OA
ATOM      6  H   UNL     1       1.830   8.023  18.473  0.00  0.00    +0.000 HD
BRANCH   4   7
ATOM      7  C   UNL     1       0.628   9.921  19.872  0.00  0.00    +0.000 C 
ATOM      8  C   UNL     1       0.631   9.868  18.336  0.00  0.00    +0.000 C 
ATOM      9  C   UNL     1      -0.802   9.743  20.416  0.00  0.00    +0.000 C 
BRANCH   7  10
ATOM     10  O   UNL     1       1.269  11.095  20.412  0.00  0.00    +0.000 OA
BRANCH  10  11
ATOM     11  C   UNL     1       1.243  12.310  19.778  0.00  0.00    +0.000 A 
ATOM     12  C   UNL     1       0.112  13.101  20.015  0.00  0.00    +0.000 A 
ATOM     13  C   UNL     1       0.022  14.406  19.509  0.00  0.00    +0.000 A 
ATOM     14  C   UNL     1       1.074  14.945  18.767  0.00  0.00    +0.000 A 
ATOM     15  C   UNL     1       2.198  14.165  18.521  0.00  0.00    +0.000 A 
ATOM     16  C   UNL     1       2.279  12.859  19.025  0.00  0.00    +0.000 A 
ENDBRANCH  10  11
ENDBRANCH   7  10
ENDBRANCH   4   7
ENDBRANCH   2   3
BRANCH   2  17
ATOM     17  C   UNL     1       3.283   5.841  18.603  0.00  0.00    +0.000 C 
BRANCH  17  18
ATOM     18  C   UNL     1       3.263   4.310  18.633  0.00  0.00    +0.000 A 
ATOM     19  C   UNL     1       2.492   3.603  17.697  0.00  0.00    +0.000 A 
ATOM     20  C   UNL     1       2.475   2.206  17.693  0.00  0.00    +0.000 A 
ATOM     21  C   UNL     1       3.218   1.495  18.632  0.00  0.00    +0.000 A 
ATOM     22  C   UNL     1       3.995   2.179  19.561  0.00  0.00    +0.000 A 
ATOM     23  C   UNL     1       4.031   3.573  19.550  0.00  0.00    +0.000 A 
ENDBRANCH  17  18
BRANCH  17  24
ATOM     24  C   UNL     1       4.724   6.358  18.341  0.00  0.00    +0.000 C 
BRANCH  24  25
ATOM     25  C   UNL     1       5.387   5.878  17.071  0.00  0.00    +0.000 A 
ATOM     26  C   UNL     1       6.495   5.019  17.127  0.00  0.00    +0.000 A 
ATOM     27  C   UNL     1       7.108   4.577  15.952  0.00  0.00    +0.000 A 
ATOM     28  C   UNL     1       6.615   4.985  14.716  0.00  0.00    +0.000 A 
ATOM     29 CL   UNL     1       7.368   4.434  13.272  0.00  0.00    +0.000 Cl
ATOM     30  C   UNL     1       5.515   5.835  14.648  0.00  0.00    +0.000 A 
ATOM     31  C   UNL     1       4.904   6.282  15.820  0.00  0.00    +0.000 A 
ENDBRANCH  24  25
ENDBRANCH  17  24
ENDBRANCH   2  17
TORSDOF 8
ENDMDL
MODEL 9
REMARK VINA RESULT:      -7.6      3.260      8.398
REMARK  Name = 
REMARK  11 active torsions:
REMARK  status: ('A' for Active; 'I' for Inactive)
REMARK    1  A    between atoms: C_1  and  C_2
REMARK    2  A    between atoms: C_2  and  N_3
REMARK    3  A    between atoms: C_2  and  C_16
REMARK    4  A    between atoms: C_4  and  C_6
REMARK    5  A    between atoms: C_6  and  C_7
REMARK    6  A    between atoms: C_6  and  C_8
REMARK    7  A    between atoms: C_6  and  O_9
REMARK    8  A    between atoms: O_9  and  C_10
REMARK    9  A    between atoms: C_16  and  C_17
REMARK   10  A    between atoms: C_16  and  C_25
REMARK   11  A    between atoms: C_17  and  C_18
REMARK                            x       y       z     vdW  Elec       q    Type
REMARK                         _______ _______ _______ _____ _____    ______ ____
ROOT
ATOM      1  C   UNL     1       3.637   8.064  16.783  0.00  0.00    +0.000 C 
ATOM      2  C   UNL     1       4.037   7.474  18.151  0.00  0.00    +0.000 C 
ENDROOT
BRANCH   2   3
ATOM      3  N   UNL     1       4.872   6.287  17.916  0.00  0.00    +0.000 N 
ATOM      4  C   UNL     1       6.104   6.384  17.271  0.00  0.00    +0.000 C 
ATOM      5  O   UNL     1       6.644   7.478  17.101  0.00  0.00    +0.000 OA
ATOM      6  H   UNL     1       4.417   5.385  17.966  0.00  0.00    +0.000 HD
BRANCH   4   7
ATOM      7  C   UNL     1       6.758   5.038  16.780  0.00  0.00    +0.000 C 
ATOM      8  C   UNL     1       7.740   4.561  17.861  0.00  0.00    +0.000 C 
ATOM      9  C   UNL     1       5.606   4.031  16.613  0.00  0.00    +0.000 C 
BRANCH   7  10
ATOM     10  O   UNL     1       7.390   5.349  15.521  0.00  0.00    +0.000 OA
BRANCH  10  11
ATOM     11  C   UNL     1       6.955   4.835  14.327  0.00  0.00    +0.000 A 
ATOM     12  C   UNL     1       7.733   5.147  13.205  0.00  0.00    +0.000 A 
ATOM     13  C   UNL     1       7.449   4.590  11.949  0.00  0.00    +0.000 A 
ATOM     14  C   UNL     1       6.386   3.698  11.801  0.00  0.00    +0.000 A 
ATOM     15  C   UNL     1       5.604   3.387  12.909  0.00  0.00    +0.000 A 
ATOM     16  C   UNL     1       5.890   3.952  14.159  0.00  0.00    +0.000 A 
ENDBRANCH  10  11
ENDBRANCH   7  10
ENDBRANCH   4   7
ENDBRANCH   2   3
BRANCH   2  17
ATOM     17  C   UNL     1       2.775   7.147  19.019  0.00  0.00    +0.000 C 
BRANCH  17  18
ATOM     18  C   UNL     1       2.395   5.665  19.087  0.00  0.00    +0.000 A 
ATOM     19  C   UNL     1       2.538   4.963  20.295  0.00  0.00    +0.000 A 
ATOM     20  C   UNL     1       2.178   3.616  20.386  0.00  0.00    +0.000 A 
ATOM     21  C   UNL     1       1.682   2.947  19.269  0.00  0.00    +0.000 A 
ATOM     22  C   UNL     1       1.525   3.630  18.068  0.00  0.00    +0.000 A 
ATOM     23  C   UNL     1       1.862   4.980  17.983  0.00  0.00    +0.000 A 
ENDBRANCH  17  18
BRANCH  17  24
ATOM     24  C   UNL     1       1.535   8.008  18.654  0.00  0.00    +0.000 C 
BRANCH  24  25
ATOM     25  C   UNL     1       0.904   8.784  19.787  0.00  0.00    +0.000 A 
ATOM     26  C   UNL     1       1.037   8.344  21.112  0.00  0.00    +0.000 A 
ATOM     27  C   UNL     1       0.452   9.060  22.158  0.00  0.00    +0.000 A 
ATOM     28  C   UNL     1      -0.264  10.224  21.888  0.00  0.00    +0.000 A 
ATOM     29 CL   UNL     1      -0.978  11.107  23.179  0.00  0.00    +0.000 Cl
ATOM     30  C   UNL     1      -0.401  10.671  20.578  0.00  0.00    +0.000 A 
ATOM     31  C   UNL     1       0.178   9.954  19.530  0.00  0.00    +0.000 A 
ENDBRANCH  24  25
ENDBRANCH  17  24
ENDBRANCH   2  17
TORSDOF 8
ENDMDL
