MODEL 1
REMARK VINA RESULT:      -8.1      0.000      0.000
REMARK  Name = 
REMARK  9 active torsions:
REMARK  status: ('A' for Active; 'I' for Inactive)
REMARK    1  A    between atoms: C_1  and  C_2
REMARK    2  A    between atoms: C_4  and  S_5
REMARK    3  A    between atoms: S_5  and  C_6
REMARK    4  A    between atoms: C_6  and  C_7
REMARK    5  A    between atoms: N_9  and  C_10
REMARK    6  A    between atoms: C_11  and  C_12
REMARK    7  A    between atoms: N_13  and  C_14
REMARK    8  A    between atoms: N_15  and  C_16
REMARK    9  A    between atoms: N_27  and  C_28
REMARK                            x       y       z     vdW  Elec       q    Type
REMARK                         _______ _______ _______ _____ _____    ______ ____
ROOT
ATOM      1  C   UNL     1       0.402   9.561  20.783  0.00  0.00    +0.000 C 
ENDROOT
BRANCH   1   2
ATOM      2  C   UNL     1       1.343   8.372  20.705  0.00  0.00    +0.000 C 
ATOM      3  O   UNL     1       2.023   8.043  21.677  0.00  0.00    +0.000 OA
ATOM      4  N   UNL     1       1.490   7.818  19.450  0.00  0.00    +0.000 N 
ATOM      5  H   UNL     1       1.299   8.428  18.660  0.00  0.00    +0.000 HD
BRANCH   4   6
ATOM      6  C   UNL     1       2.233   6.707  19.159  0.00  0.00    +0.000 A 
ATOM      7  C   UNL     1       2.228   5.447  19.631  0.00  0.00    +0.000 A 
ATOM      8  C   UNL     1       1.345   4.864  20.685  0.00  0.00    +0.000 C 
ATOM      9  N   UNL     1       3.098   4.632  18.906  0.00  0.00    +0.000 N 
ATOM     10  C   UNL     1       3.669   3.369  19.343  0.00  0.00    +0.000 C 
ATOM     11  N   UNL     1       3.774   5.455  17.974  0.00  0.00    +0.000 N 
ATOM     12  C   UNL     1       3.320   6.760  18.131  0.00  0.00    +0.000 A 
ATOM     13  O   UNL     1       3.686   7.796  17.594  0.00  0.00    +0.000 OA
BRANCH  11  14
ATOM     14  C   UNL     1       4.971   5.052  17.366  0.00  0.00    +0.000 A 
ATOM     15  C   UNL     1       4.987   4.437  16.111  0.00  0.00    +0.000 A 
ATOM     16  C   UNL     1       6.208   4.116  15.513  0.00  0.00    +0.000 A 
ATOM     17  C   UNL     1       7.405   4.362  16.187  0.00  0.00    +0.000 A 
ATOM     18  C   UNL     1       7.387   4.937  17.456  0.00  0.00    +0.000 A 
ATOM     19  C   UNL     1       6.173   5.299  18.035  0.00  0.00    +0.000 A 
ENDBRANCH  11  14
ENDBRANCH   4   6
ENDBRANCH   1   2
BRANCH   1  20
ATOM     20  S   UNL     1       0.669  10.808  19.482  0.00  0.00    +0.000 S 
BRANCH  20  24
ATOM     21  C   UNL     1      -2.955  10.633  15.795  0.00  0.00    +0.000 C 
ATOM     22  C   UNL     1      -2.590  10.988  17.206  0.00  0.00    +0.000 A 
ATOM     23  N   UNL     1      -1.334  10.702  17.623  0.00  0.00    +0.000 NA
ATOM     24  C   UNL     1      -0.969  11.074  18.866  0.00  0.00    +0.000 A 
ATOM     25  C   UNL     1      -1.887  11.728  19.685  0.00  0.00    +0.000 A 
ATOM     26  C   UNL     1      -1.929  12.284  20.975  0.00  0.00    +0.000 A 
ATOM     27  N   UNL     1      -3.106  12.835  21.268  0.00  0.00    +0.000 NA
ATOM     28  N   UNL     1      -3.874  12.616  20.152  0.00  0.00    +0.000 N 
ATOM     29  C   UNL     1      -3.151  11.952  19.161  0.00  0.00    +0.000 A 
ATOM     30  N   UNL     1      -3.549  11.601  17.922  0.00  0.00    +0.000 NA
BRANCH  28  31
ATOM     31  C   UNL     1      -5.227  13.074  20.139  0.00  0.00    +0.000 A 
ATOM     32  C   UNL     1      -6.266  12.137  20.273  0.00  0.00    +0.000 A 
ATOM     33  C   UNL     1      -7.601  12.547  20.267  0.00  0.00    +0.000 A 
ATOM     34  C   UNL     1      -7.913  13.894  20.115  0.00  0.00    +0.000 A 
ATOM     35  C   UNL     1      -6.892  14.832  19.975  0.00  0.00    +0.000 A 
ATOM     36  C   UNL     1      -5.552  14.428  19.991  0.00  0.00    +0.000 A 
ENDBRANCH  28  31
ENDBRANCH  20  24
ENDBRANCH   1  20
TORSDOF 6
ENDMDL
MODEL 2
REMARK VINA RESULT:      -7.9      6.722     10.620
REMARK  Name = 
REMARK  9 active torsions:
REMARK  status: ('A' for Active; 'I' for Inactive)
REMARK    1  A    between atoms: C_1  and  C_2
REMARK    2  A    between atoms: C_4  and  S_5
REMARK    3  A    between atoms: S_5  and  C_6
REMARK    4  A    between atoms: C_6  and  C_7
REMARK    5  A    between atoms: N_9  and  C_10
REMARK    6  A    between atoms: C_11  and  C_12
REMARK    7  A    between atoms: N_13  and  C_14
REMARK    8  A    between atoms: N_15  and  C_16
REMARK    9  A    between atoms: N_27  and  C_28
REMARK                            x       y       z     vdW  Elec       q    Type
REMARK                         _______ _______ _______ _____ _____    ______ ____
ROOT
ATOM      1  C   UNL     1       8.265   7.690  18.443  0.00  0.00    +0.000 C 
ENDROOT
BRANCH   1   2
ATOM      2  C   UNL     1       8.336   9.205  18.508  0.00  0.00    +0.000 C 
ATOM      3  O   UNL     1       7.606   9.901  17.802  0.00  0.00    +0.000 OA
ATOM      4  N   UNL     1       9.367   9.714  19.271  0.00  0.00    +0.000 N 
ATOM      5  H   UNL     1      10.177   9.114  19.398  0.00  0.00    +0.000 HD
BRANCH   4   6
ATOM      6  C   UNL     1       9.584  11.041  19.521  0.00  0.00    +0.000 A 
ATOM      7  C   UNL     1       9.337  11.830  20.583  0.00  0.00    +0.000 A 
ATOM      8  C   UNL     1       8.707  11.450  21.883  0.00  0.00    +0.000 C 
ATOM      9  N   UNL     1       9.876  13.105  20.404  0.00  0.00    +0.000 N 
ATOM     10  C   UNL     1       9.486  14.318  21.102  0.00  0.00    +0.000 C 
ATOM     11  N   UNL     1      10.417  13.156  19.097  0.00  0.00    +0.000 N 
ATOM     12  C   UNL     1      10.208  11.925  18.486  0.00  0.00    +0.000 A 
ATOM     13  O   UNL     1      10.440  11.558  17.343  0.00  0.00    +0.000 OA
BRANCH  11  14
ATOM     14  C   UNL     1      10.683  14.374  18.457  0.00  0.00    +0.000 A 
ATOM     15  C   UNL     1       9.662  15.154  17.907  0.00  0.00    +0.000 A 
ATOM     16  C   UNL     1       9.966  16.394  17.340  0.00  0.00    +0.000 A 
ATOM     17  C   UNL     1      11.290  16.830  17.277  0.00  0.00    +0.000 A 
ATOM     18  C   UNL     1      12.313  16.035  17.788  0.00  0.00    +0.000 A 
ATOM     19  C   UNL     1      12.007  14.819  18.394  0.00  0.00    +0.000 A 
ENDBRANCH  11  14
ENDBRANCH   4   6
ENDBRANCH   1   2
BRANCH   1  20
ATOM     20  S   UNL     1       7.469   7.047  16.936  0.00  0.00    +0.000 S 
BRANCH  20  24
ATOM     21  C   UNL     1       2.585   8.619  17.589  0.00  0.00    +0.000 C 
ATOM     22  C   UNL     1       3.603   7.529  17.743  0.00  0.00    +0.000 A 
ATOM     23  N   UNL     1       4.849   7.759  17.269  0.00  0.00    +0.000 NA
ATOM     24  C   UNL     1       5.794   6.816  17.457  0.00  0.00    +0.000 A 
ATOM     25  C   UNL     1       5.463   5.636  18.121  0.00  0.00    +0.000 A 
ATOM     26  C   UNL     1       6.100   4.453  18.535  0.00  0.00    +0.000 A 
ATOM     27  N   UNL     1       5.287   3.621  19.184  0.00  0.00    +0.000 NA
ATOM     28  N   UNL     1       4.070   4.258  19.179  0.00  0.00    +0.000 N 
ATOM     29  C   UNL     1       4.151   5.499  18.546  0.00  0.00    +0.000 A 
ATOM     30  N   UNL     1       3.182   6.423  18.382  0.00  0.00    +0.000 NA
BRANCH  28  31
ATOM     31  C   UNL     1       2.949   3.619  19.791  0.00  0.00    +0.000 A 
ATOM     32  C   UNL     1       2.017   2.952  18.977  0.00  0.00    +0.000 A 
ATOM     33  C   UNL     1       0.908   2.314  19.539  0.00  0.00    +0.000 A 
ATOM     34  C   UNL     1       0.714   2.344  20.915  0.00  0.00    +0.000 A 
ATOM     35  C   UNL     1       1.629   3.007  21.732  0.00  0.00    +0.000 A 
ATOM     36  C   UNL     1       2.746   3.639  21.175  0.00  0.00    +0.000 A 
ENDBRANCH  28  31
ENDBRANCH  20  24
ENDBRANCH   1  20
TORSDOF 6
ENDMDL
MODEL 3
REMARK VINA RESULT:      -7.8      3.069     10.786
REMARK  Name = 
REMARK  9 active torsions:
REMARK  status: ('A' for Active; 'I' for Inactive)
REMARK    1  A    between atoms: C_1  and  C_2
REMARK    2  A    between atoms: C_4  and  S_5
REMARK    3  A    between atoms: S_5  and  C_6
REMARK    4  A    between atoms: C_6  and  C_7
REMARK    5  A    between atoms: N_9  and  C_10
REMARK    6  A    between atoms: C_11  and  C_12
REMARK    7  A    between atoms: N_13  and  C_14
REMARK    8  A    between atoms: N_15  and  C_16
REMARK    9  A    between atoms: N_27  and  C_28
REMARK                            x       y       z     vdW  Elec       q    Type
REMARK                         _______ _______ _______ _____ _____    ______ ____
ROOT
ATOM      1  C   UNL     1       1.814  12.749  19.521  0.00  0.00    +0.000 C 
ENDROOT
BRANCH   1   2
ATOM      2  C   UNL     1       0.545  13.498  19.885  0.00  0.00    +0.000 C 
ATOM      3  O   UNL     1       0.352  14.646  19.482  0.00  0.00    +0.000 OA
ATOM      4  N   UNL     1      -0.265  12.871  20.809  0.00  0.00    +0.000 N 
ATOM      5  H   UNL     1       0.187  12.208  21.433  0.00  0.00    +0.000 HD
BRANCH   4   6
ATOM      6  C   UNL     1      -1.482  13.329  21.235  0.00  0.00    +0.000 A 
ATOM      7  C   UNL     1      -1.880  14.001  22.330  0.00  0.00    +0.000 A 
ATOM      8  C   UNL     1      -1.045  14.468  23.476  0.00  0.00    +0.000 C 
ATOM      9  N   UNL     1      -3.225  14.365  22.239  0.00  0.00    +0.000 N 
ATOM     10  C   UNL     1      -4.104  14.717  23.341  0.00  0.00    +0.000 C 
ATOM     11  N   UNL     1      -3.738  13.800  21.048  0.00  0.00    +0.000 N 
ATOM     12  C   UNL     1      -2.716  13.096  20.420  0.00  0.00    +0.000 A 
ATOM     13  O   UNL     1      -2.736  12.396  19.417  0.00  0.00    +0.000 OA
BRANCH  11  14
ATOM     14  C   UNL     1      -5.115  13.638  20.842  0.00  0.00    +0.000 A 
ATOM     15  C   UNL     1      -5.787  12.479  21.239  0.00  0.00    +0.000 A 
ATOM     16  C   UNL     1      -7.171  12.390  21.076  0.00  0.00    +0.000 A 
ATOM     17  C   UNL     1      -7.874  13.435  20.475  0.00  0.00    +0.000 A 
ATOM     18  C   UNL     1      -7.199  14.574  20.041  0.00  0.00    +0.000 A 
ATOM     19  C   UNL     1      -5.825  14.682  20.242  0.00  0.00    +0.000 A 
ENDBRANCH  11  14
ENDBRANCH   4   6
ENDBRANCH   1   2
BRANCH   1  20
ATOM     20  S   UNL     1       1.552  11.347  18.389  0.00  0.00    +0.000 S 
BRANCH  20  24
ATOM     21  C   UNL     1       0.273   9.254  22.943  0.00  0.00    +0.000 C 
ATOM     22  C   UNL     1       0.791   9.054  21.550  0.00  0.00    +0.000 A 
ATOM     23  N   UNL     1       0.847  10.134  20.737  0.00  0.00    +0.000 NA
ATOM     24  C   UNL     1       1.371   9.985  19.504  0.00  0.00    +0.000 A 
ATOM     25  C   UNL     1       1.828   8.732  19.099  0.00  0.00    +0.000 A 
ATOM     26  C   UNL     1       2.433   8.153  17.971  0.00  0.00    +0.000 A 
ATOM     27  N   UNL     1       2.695   6.855  18.126  0.00  0.00    +0.000 NA
ATOM     28  N   UNL     1       2.227   6.560  19.382  0.00  0.00    +0.000 N 
ATOM     29  C   UNL     1       1.703   7.692  20.007  0.00  0.00    +0.000 A 
ATOM     30  N   UNL     1       1.191   7.806  21.250  0.00  0.00    +0.000 NA
BRANCH  28  31
ATOM     31  C   UNL     1       2.338   5.221  19.868  0.00  0.00    +0.000 A 
ATOM     32  C   UNL     1       1.224   4.627  20.487  0.00  0.00    +0.000 A 
ATOM     33  C   UNL     1       1.294   3.318  20.972  0.00  0.00    +0.000 A 
ATOM     34  C   UNL     1       2.476   2.596  20.855  0.00  0.00    +0.000 A 
ATOM     35  C   UNL     1       3.588   3.178  20.249  0.00  0.00    +0.000 A 
ATOM     36  C   UNL     1       3.521   4.484  19.751  0.00  0.00    +0.000 A 
ENDBRANCH  28  31
ENDBRANCH  20  24
ENDBRANCH   1  20
TORSDOF 6
ENDMDL
MODEL 4
REMARK VINA RESULT:      -7.8      2.935      3.964
REMARK  Name = 
REMARK  9 active torsions:
REMARK  status: ('A' for Active; 'I' for Inactive)
REMARK    1  A    between atoms: C_1  and  C_2
REMARK    2  A    between atoms: C_4  and  S_5
REMARK    3  A    between atoms: S_5  and  C_6
REMARK    4  A    between atoms: C_6  and  C_7
REMARK    5  A    between atoms: N_9  and  C_10
REMARK    6  A    between atoms: C_11  and  C_12
REMARK    7  A    between atoms: N_13  and  C_14
REMARK    8  A    between atoms: N_15  and  C_16
REMARK    9  A    between atoms: N_27  and  C_28
REMARK                            x       y       z     vdW  Elec       q    Type
REMARK                         _______ _______ _______ _____ _____    ______ ____
ROOT
ATOM      1  C   UNL     1       1.431   8.922  21.209  0.00  0.00    +0.000 C 
ENDROOT
BRANCH   1   2
ATOM      2  C   UNL     1       1.772   8.038  20.022  0.00  0.00    +0.000 C 
ATOM      3  O   UNL     1       1.478   8.382  18.876  0.00  0.00    +0.000 OA
ATOM      4  N   UNL     1       2.267   6.791  20.339  0.00  0.00    +0.000 N 
ATOM      5  H   UNL     1       2.016   6.422  21.252  0.00  0.00    +0.000 HD
BRANCH   4   6
ATOM      6  C   UNL     1       2.698   5.858  19.436  0.00  0.00    +0.000 A 
ATOM      7  C   UNL     1       2.371   4.571  19.214  0.00  0.00    +0.000 A 
ATOM      8  C   UNL     1       1.373   3.737  19.949  0.00  0.00    +0.000 C 
ATOM      9  N   UNL     1       2.999   4.079  18.070  0.00  0.00    +0.000 N 
ATOM     10  C   UNL     1       3.228   2.683  17.739  0.00  0.00    +0.000 C 
ATOM     11  N   UNL     1       3.859   5.094  17.588  0.00  0.00    +0.000 N 
ATOM     12  C   UNL     1       3.757   6.194  18.433  0.00  0.00    +0.000 A 
ATOM     13  O   UNL     1       4.375   7.250  18.438  0.00  0.00    +0.000 OA
BRANCH  11  14
ATOM     14  C   UNL     1       4.910   4.813  16.704  0.00  0.00    +0.000 A 
ATOM     15  C   UNL     1       6.231   4.692  17.146  0.00  0.00    +0.000 A 
ATOM     16  C   UNL     1       7.235   4.342  16.241  0.00  0.00    +0.000 A 
ATOM     17  C   UNL     1       6.930   4.161  14.891  0.00  0.00    +0.000 A 
ATOM     18  C   UNL     1       5.621   4.322  14.442  0.00  0.00    +0.000 A 
ATOM     19  C   UNL     1       4.610   4.627  15.351  0.00  0.00    +0.000 A 
ENDBRANCH  11  14
ENDBRANCH   4   6
ENDBRANCH   1   2
BRANCH   1  20
ATOM     20  S   UNL     1      -0.347   9.272  21.389  0.00  0.00    +0.000 S 
BRANCH  20  24
ATOM     21  C   UNL     1      -2.223  10.984  16.882  0.00  0.00    +0.000 C 
ATOM     22  C   UNL     1      -1.466  11.282  18.142  0.00  0.00    +0.000 A 
ATOM     23  N   UNL     1      -1.350  10.291  19.057  0.00  0.00    +0.000 NA
ATOM     24  C   UNL     1      -0.617  10.522  20.165  0.00  0.00    +0.000 A 
ATOM     25  C   UNL     1      -0.011  11.764  20.341  0.00  0.00    +0.000 A 
ATOM     26  C   UNL     1       0.814  12.402  21.283  0.00  0.00    +0.000 A 
ATOM     27  N   UNL     1       1.138  13.648  20.936  0.00  0.00    +0.000 NA
ATOM     28  N   UNL     1       0.487  13.850  19.744  0.00  0.00    +0.000 N 
ATOM     29  C   UNL     1      -0.213  12.711  19.349  0.00  0.00    +0.000 A 
ATOM     30  N   UNL     1      -0.933  12.514  18.226  0.00  0.00    +0.000 NA
BRANCH  28  31
ATOM     31  C   UNL     1       0.609  15.116  19.094  0.00  0.00    +0.000 A 
ATOM     32  C   UNL     1       1.877  15.542  18.662  0.00  0.00    +0.000 A 
ATOM     33  C   UNL     1       2.035  16.773  18.020  0.00  0.00    +0.000 A 
ATOM     34  C   UNL     1       0.932  17.594  17.812  0.00  0.00    +0.000 A 
ATOM     35  C   UNL     1      -0.329  17.185  18.242  0.00  0.00    +0.000 A 
ATOM     36  C   UNL     1      -0.495  15.949  18.876  0.00  0.00    +0.000 A 
ENDBRANCH  28  31
ENDBRANCH  20  24
ENDBRANCH   1  20
TORSDOF 6
ENDMDL
MODEL 5
REMARK VINA RESULT:      -7.8      3.439     11.244
REMARK  Name = 
REMARK  9 active torsions:
REMARK  status: ('A' for Active; 'I' for Inactive)
REMARK    1  A    between atoms: C_1  and  C_2
REMARK    2  A    between atoms: C_4  and  S_5
REMARK    3  A    between atoms: S_5  and  C_6
REMARK    4  A    between atoms: C_6  and  C_7
REMARK    5  A    between atoms: N_9  and  C_10
REMARK    6  A    between atoms: C_11  and  C_12
REMARK    7  A    between atoms: N_13  and  C_14
REMARK    8  A    between atoms: N_15  and  C_16
REMARK    9  A    between atoms: N_27  and  C_28
REMARK                            x       y       z     vdW  Elec       q    Type
REMARK                         _______ _______ _______ _____ _____    ______ ____
ROOT
ATOM      1  C   UNL     1       1.081  13.307  19.748  0.00  0.00    +0.000 C 
ENDROOT
BRANCH   1   2
ATOM      2  C   UNL     1      -0.013  14.111  20.427  0.00  0.00    +0.000 C 
ATOM      3  O   UNL     1      -0.217  15.285  20.116  0.00  0.00    +0.000 OA
ATOM      4  N   UNL     1      -0.621  13.491  21.499  0.00  0.00    +0.000 N 
ATOM      5  H   UNL     1      -0.079  12.776  21.976  0.00  0.00    +0.000 HD
BRANCH   4   6
ATOM      6  C   UNL     1      -1.669  13.999  22.217  0.00  0.00    +0.000 A 
ATOM      7  C   UNL     1      -1.751  14.899  23.214  0.00  0.00    +0.000 A 
ATOM      8  C   UNL     1      -0.638  15.650  23.868  0.00  0.00    +0.000 C 
ATOM      9  N   UNL     1      -3.080  15.190  23.525  0.00  0.00    +0.000 N 
ATOM     10  C   UNL     1      -3.574  15.767  24.764  0.00  0.00    +0.000 C 
ATOM     11  N   UNL     1      -3.895  14.344  22.737  0.00  0.00    +0.000 N 
ATOM     12  C   UNL     1      -3.070  13.543  21.955  0.00  0.00    +0.000 A 
ATOM     13  O   UNL     1      -3.346  12.626  21.194  0.00  0.00    +0.000 OA
BRANCH  11  14
ATOM     14  C   UNL     1      -5.235  14.097  23.065  0.00  0.00    +0.000 A 
ATOM     15  C   UNL     1      -5.611  12.997  23.841  0.00  0.00    +0.000 A 
ATOM     16  C   UNL     1      -6.950  12.829  24.202  0.00  0.00    +0.000 A 
ATOM     17  C   UNL     1      -7.917  13.728  23.747  0.00  0.00    +0.000 A 
ATOM     18  C   UNL     1      -7.548  14.801  22.939  0.00  0.00    +0.000 A 
ATOM     19  C   UNL     1      -6.208  14.996  22.616  0.00  0.00    +0.000 A 
ENDBRANCH  11  14
ENDBRANCH   4   6
ENDBRANCH   1   2
BRANCH   1  20
ATOM     20  S   UNL     1       0.465  11.980  18.664  0.00  0.00    +0.000 S 
BRANCH  20  24
ATOM     21  C   UNL     1       0.049   9.368  23.109  0.00  0.00    +0.000 C 
ATOM     22  C   UNL     1       0.471   9.374  21.670  0.00  0.00    +0.000 A 
ATOM     23  N   UNL     1       0.233  10.493  20.948  0.00  0.00    +0.000 NA
ATOM     24  C   UNL     1       0.664  10.539  19.672  0.00  0.00    +0.000 A 
ATOM     25  C   UNL     1       1.329   9.440  19.132  0.00  0.00    +0.000 A 
ATOM     26  C   UNL     1       1.937   9.076  17.918  0.00  0.00    +0.000 A 
ATOM     27  N   UNL     1       2.471   7.856  17.945  0.00  0.00    +0.000 NA
ATOM     28  N   UNL     1       2.187   7.386  19.203  0.00  0.00    +0.000 N 
ATOM     29  C   UNL     1       1.500   8.339  19.956  0.00  0.00    +0.000 A 
ATOM     30  N   UNL     1       1.089   8.260  21.238  0.00  0.00    +0.000 NA
BRANCH  28  31
ATOM     31  C   UNL     1       2.610   6.072  19.566  0.00  0.00    +0.000 A 
ATOM     32  C   UNL     1       1.769   5.281  20.369  0.00  0.00    +0.000 A 
ATOM     33  C   UNL     1       2.148   3.990  20.742  0.00  0.00    +0.000 A 
ATOM     34  C   UNL     1       3.374   3.479  20.329  0.00  0.00    +0.000 A 
ATOM     35  C   UNL     1       4.219   4.256  19.538  0.00  0.00    +0.000 A 
ATOM     36  C   UNL     1       3.839   5.546  19.152  0.00  0.00    +0.000 A 
ENDBRANCH  28  31
ENDBRANCH  20  24
ENDBRANCH   1  20
TORSDOF 6
ENDMDL
MODEL 6
REMARK VINA RESULT:      -7.7      2.388     11.493
REMARK  Name = 
REMARK  9 active torsions:
REMARK  status: ('A' for Active; 'I' for Inactive)
REMARK    1  A    between atoms: C_1  and  C_2
REMARK    2  A    between atoms: C_4  and  S_5
REMARK    3  A    between atoms: S_5  and  C_6
REMARK    4  A    between atoms: C_6  and  C_7
REMARK    5  A    between atoms: N_9  and  C_10
REMARK    6  A    between atoms: C_11  and  C_12
REMARK    7  A    between atoms: N_13  and  C_14
REMARK    8  A    between atoms: N_15  and  C_16
REMARK    9  A    between atoms: N_27  and  C_28
REMARK                            x       y       z     vdW  Elec       q    Type
REMARK                         _______ _______ _______ _____ _____    ______ ____
ROOT
ATOM      1  C   UNL     1       2.431   7.709  18.671  0.00  0.00    +0.000 C 
ENDROOT
BRANCH   1   2
ATOM      2  C   UNL     1       1.695   8.808  19.416  0.00  0.00    +0.000 C 
ATOM      3  O   UNL     1       1.509   8.729  20.631  0.00  0.00    +0.000 OA
ATOM      4  N   UNL     1       1.128   9.782  18.621  0.00  0.00    +0.000 N 
ATOM      5  H   UNL     1       0.908   9.516  17.665  0.00  0.00    +0.000 HD
BRANCH   4   6
ATOM      6  C   UNL     1       0.476  10.895  19.077  0.00  0.00    +0.000 A 
ATOM      7  C   UNL     1       0.804  12.199  19.122  0.00  0.00    +0.000 A 
ATOM      8  C   UNL     1       2.066  12.847  18.654  0.00  0.00    +0.000 C 
ATOM      9  N   UNL     1      -0.270  12.976  19.560  0.00  0.00    +0.000 N 
ATOM     10  C   UNL     1      -0.199  14.315  20.121  0.00  0.00    +0.000 C 
ATOM     11  N   UNL     1      -1.318  12.092  19.910  0.00  0.00    +0.000 N 
ATOM     12  C   UNL     1      -0.886  10.789  19.688  0.00  0.00    +0.000 A 
ATOM     13  O   UNL     1      -1.433   9.721  19.926  0.00  0.00    +0.000 OA
BRANCH  11  14
ATOM     14  C   UNL     1      -2.377  12.494  20.735  0.00  0.00    +0.000 A 
ATOM     15  C   UNL     1      -3.590  12.946  20.208  0.00  0.00    +0.000 A 
ATOM     16  C   UNL     1      -4.642  13.270  21.068  0.00  0.00    +0.000 A 
ATOM     17  C   UNL     1      -4.466  13.191  22.450  0.00  0.00    +0.000 A 
ATOM     18  C   UNL     1      -3.244  12.780  22.978  0.00  0.00    +0.000 A 
ATOM     19  C   UNL     1      -2.209  12.414  22.121  0.00  0.00    +0.000 A 
ENDBRANCH  11  14
ENDBRANCH   4   6
ENDBRANCH   1   2
BRANCH   1  20
ATOM     20  S   UNL     1       3.002   6.344  19.732  0.00  0.00    +0.000 S 
BRANCH  20  24
ATOM     21  C   UNL     1       3.668   1.484  18.089  0.00  0.00    +0.000 C 
ATOM     22  C   UNL     1       3.822   2.952  17.820  0.00  0.00    +0.000 A 
ATOM     23  N   UNL     1       3.342   3.816  18.745  0.00  0.00    +0.000 NA
ATOM     24  C   UNL     1       3.530   5.136  18.551  0.00  0.00    +0.000 A 
ATOM     25  C   UNL     1       4.199   5.574  17.410  0.00  0.00    +0.000 A 
ATOM     26  C   UNL     1       4.615   6.790  16.842  0.00  0.00    +0.000 A 
ATOM     27  N   UNL     1       5.270   6.634  15.692  0.00  0.00    +0.000 NA
ATOM     28  N   UNL     1       5.268   5.278  15.479  0.00  0.00    +0.000 N 
ATOM     29  C   UNL     1       4.630   4.602  16.521  0.00  0.00    +0.000 A 
ATOM     30  N   UNL     1       4.467   3.274  16.685  0.00  0.00    +0.000 NA
BRANCH  28  31
ATOM     31  C   UNL     1       5.886   4.758  14.301  0.00  0.00    +0.000 A 
ATOM     32  C   UNL     1       7.163   5.222  13.940  0.00  0.00    +0.000 A 
ATOM     33  C   UNL     1       7.800   4.736  12.795  0.00  0.00    +0.000 A 
ATOM     34  C   UNL     1       7.165   3.792  11.995  0.00  0.00    +0.000 A 
ATOM     35  C   UNL     1       5.896   3.330  12.340  0.00  0.00    +0.000 A 
ATOM     36  C   UNL     1       5.258   3.805  13.491  0.00  0.00    +0.000 A 
ENDBRANCH  28  31
ENDBRANCH  20  24
ENDBRANCH   1  20
TORSDOF 6
ENDMDL
MODEL 7
REMARK VINA RESULT:      -7.7      3.836     11.044
REMARK  Name = 
REMARK  9 active torsions:
REMARK  status: ('A' for Active; 'I' for Inactive)
REMARK    1  A    between atoms: C_1  and  C_2
REMARK    2  A    between atoms: C_4  and  S_5
REMARK    3  A    between atoms: S_5  and  C_6
REMARK    4  A    between atoms: C_6  and  C_7
REMARK    5  A    between atoms: N_9  and  C_10
REMARK    6  A    between atoms: C_11  and  C_12
REMARK    7  A    between atoms: N_13  and  C_14
REMARK    8  A    between atoms: N_15  and  C_16
REMARK    9  A    between atoms: N_27  and  C_28
REMARK                            x       y       z     vdW  Elec       q    Type
REMARK                         _______ _______ _______ _____ _____    ______ ____
ROOT
ATOM      1  C   UNL     1      -0.753  12.324  18.734  0.00  0.00    +0.000 C 
ENDROOT
BRANCH   1   2
ATOM      2  C   UNL     1      -1.141  13.364  19.769  0.00  0.00    +0.000 C 
ATOM      3  O   UNL     1      -1.101  14.566  19.501  0.00  0.00    +0.000 OA
ATOM      4  N   UNL     1      -1.372  12.876  21.039  0.00  0.00    +0.000 N 
ATOM      5  H   UNL     1      -0.917  11.999  21.277  0.00  0.00    +0.000 HD
BRANCH   4   6
ATOM      6  C   UNL     1      -1.793  13.619  22.107  0.00  0.00    +0.000 A 
ATOM      7  C   UNL     1      -3.002  13.842  22.654  0.00  0.00    +0.000 A 
ATOM      8  C   UNL     1      -4.323  13.302  22.213  0.00  0.00    +0.000 C 
ATOM      9  N   UNL     1      -2.896  14.575  23.837  0.00  0.00    +0.000 N 
ATOM     10  C   UNL     1      -3.949  15.345  24.477  0.00  0.00    +0.000 C 
ATOM     11  N   UNL     1      -1.534  14.924  23.999  0.00  0.00    +0.000 N 
ATOM     12  C   UNL     1      -0.818  14.410  22.923  0.00  0.00    +0.000 A 
ATOM     13  O   UNL     1       0.360  14.539  22.622  0.00  0.00    +0.000 OA
BRANCH  11  14
ATOM     14  C   UNL     1      -1.136  15.964  24.849  0.00  0.00    +0.000 A 
ATOM     15  C   UNL     1      -0.943  17.266  24.378  0.00  0.00    +0.000 A 
ATOM     16  C   UNL     1      -0.614  18.286  25.274  0.00  0.00    +0.000 A 
ATOM     17  C   UNL     1      -0.429  17.997  26.627  0.00  0.00    +0.000 A 
ATOM     18  C   UNL     1      -0.581  16.692  27.091  0.00  0.00    +0.000 A 
ATOM     19  C   UNL     1      -0.952  15.682  26.206  0.00  0.00    +0.000 A 
ENDBRANCH  11  14
ENDBRANCH   4   6
ENDBRANCH   1   2
BRANCH   1  20
ATOM     20  S   UNL     1       1.009  11.864  18.766  0.00  0.00    +0.000 S 
BRANCH  20  24
ATOM     21  C   UNL     1       0.173   9.385  23.229  0.00  0.00    +0.000 C 
ATOM     22  C   UNL     1       0.629   9.319  21.801  0.00  0.00    +0.000 A 
ATOM     23  N   UNL     1       0.545  10.449  21.060  0.00  0.00    +0.000 NA
ATOM     24  C   UNL     1       1.010  10.425  19.795  0.00  0.00    +0.000 A 
ATOM     25  C   UNL     1       1.552   9.247  19.286  0.00  0.00    +0.000 A 
ATOM     26  C   UNL     1       2.142   8.795  18.093  0.00  0.00    +0.000 A 
ATOM     27  N   UNL     1       2.526   7.521  18.148  0.00  0.00    +0.000 NA
ATOM     28  N   UNL     1       2.156   7.106  19.404  0.00  0.00    +0.000 N 
ATOM     29  C   UNL     1       1.570   8.145  20.127  0.00  0.00    +0.000 A 
ATOM     30  N   UNL     1       1.120   8.134  21.399  0.00  0.00    +0.000 NA
BRANCH  28  31
ATOM     31  C   UNL     1       2.411   5.756  19.793  0.00  0.00    +0.000 A 
ATOM     32  C   UNL     1       1.461   5.083  20.580  0.00  0.00    +0.000 A 
ATOM     33  C   UNL     1       1.674   3.761  20.978  0.00  0.00    +0.000 A 
ATOM     34  C   UNL     1       2.840   3.102  20.605  0.00  0.00    +0.000 A 
ATOM     35  C   UNL     1       3.792   3.762  19.830  0.00  0.00    +0.000 A 
ATOM     36  C   UNL     1       3.579   5.083  19.419  0.00  0.00    +0.000 A 
ENDBRANCH  28  31
ENDBRANCH  20  24
ENDBRANCH   1  20
TORSDOF 6
ENDMDL
MODEL 8
REMARK VINA RESULT:      -7.7      0.980      1.398
REMARK  Name = 
REMARK  9 active torsions:
REMARK  status: ('A' for Active; 'I' for Inactive)
REMARK    1  A    between atoms: C_1  and  C_2
REMARK    2  A    between atoms: C_4  and  S_5
REMARK    3  A    between atoms: S_5  and  C_6
REMARK    4  A    between atoms: C_6  and  C_7
REMARK    5  A    between atoms: N_9  and  C_10
REMARK    6  A    between atoms: C_11  and  C_12
REMARK    7  A    between atoms: N_13  and  C_14
REMARK    8  A    between atoms: N_15  and  C_16
REMARK    9  A    between atoms: N_27  and  C_28
REMARK                            x       y       z     vdW  Elec       q    Type
REMARK                         _______ _______ _______ _____ _____    ______ ____
ROOT
ATOM      1  C   UNL     1       0.940   9.878  20.047  0.00  0.00    +0.000 C 
ENDROOT
BRANCH   1   2
ATOM      2  C   UNL     1       1.399   8.733  19.162  0.00  0.00    +0.000 C 
ATOM      3  O   UNL     1       1.102   8.702  17.968  0.00  0.00    +0.000 OA
ATOM      4  N   UNL     1       2.010   7.687  19.822  0.00  0.00    +0.000 N 
ATOM      5  H   UNL     1       1.775   7.570  20.803  0.00  0.00    +0.000 HD
BRANCH   4   6
ATOM      6  C   UNL     1       2.557   6.585  19.222  0.00  0.00    +0.000 A 
ATOM      7  C   UNL     1       2.367   5.263  19.379  0.00  0.00    +0.000 A 
ATOM      8  C   UNL     1       1.438   4.573  20.323  0.00  0.00    +0.000 C 
ATOM      9  N   UNL     1       3.073   4.533  18.421  0.00  0.00    +0.000 N 
ATOM     10  C   UNL     1       3.449   3.131  18.503  0.00  0.00    +0.000 C 
ATOM     11  N   UNL     1       3.840   5.452  17.667  0.00  0.00    +0.000 N 
ATOM     12  C   UNL     1       3.605   6.730  18.163  0.00  0.00    +0.000 A 
ATOM     13  O   UNL     1       4.114   7.802  17.864  0.00  0.00    +0.000 OA
BRANCH  11  14
ATOM     14  C   UNL     1       4.937   5.041  16.898  0.00  0.00    +0.000 A 
ATOM     15  C   UNL     1       6.233   5.016  17.421  0.00  0.00    +0.000 A 
ATOM     16  C   UNL     1       7.286   4.533  16.641  0.00  0.00    +0.000 A 
ATOM     17  C   UNL     1       7.054   4.123  15.327  0.00  0.00    +0.000 A 
ATOM     18  C   UNL     1       5.769   4.186  14.791  0.00  0.00    +0.000 A 
ATOM     19  C   UNL     1       4.711   4.626  15.583  0.00  0.00    +0.000 A 
ENDBRANCH  11  14
ENDBRANCH   4   6
ENDBRANCH   1   2
BRANCH   1  20
ATOM     20  S   UNL     1       0.763  11.467  19.175  0.00  0.00    +0.000 S 
BRANCH  20  24
ATOM     21  C   UNL     1      -3.377  10.836  16.138  0.00  0.00    +0.000 C 
ATOM     22  C   UNL     1      -2.827  11.239  17.473  0.00  0.00    +0.000 A 
ATOM     23  N   UNL     1      -1.494  11.110  17.672  0.00  0.00    +0.000 NA
ATOM     24  C   UNL     1      -0.974  11.529  18.843  0.00  0.00    +0.000 A 
ATOM     25  C   UNL     1      -1.816  12.070  19.813  0.00  0.00    +0.000 A 
ATOM     26  C   UNL     1      -1.709  12.624  21.100  0.00  0.00    +0.000 A 
ATOM     27  N   UNL     1      -2.879  13.029  21.594  0.00  0.00    +0.000 NA
ATOM     28  N   UNL     1      -3.790  12.713  20.617  0.00  0.00    +0.000 N 
ATOM     29  C   UNL     1      -3.167  12.136  19.510  0.00  0.00    +0.000 A 
ATOM     30  N   UNL     1      -3.721  11.734  18.348  0.00  0.00    +0.000 NA
BRANCH  28  31
ATOM     31  C   UNL     1      -5.171  13.002  20.835  0.00  0.00    +0.000 A 
ATOM     32  C   UNL     1      -5.996  13.270  19.728  0.00  0.00    +0.000 A 
ATOM     33  C   UNL     1      -7.352  13.555  19.902  0.00  0.00    +0.000 A 
ATOM     34  C   UNL     1      -7.896  13.588  21.182  0.00  0.00    +0.000 A 
ATOM     35  C   UNL     1      -7.087  13.331  22.287  0.00  0.00    +0.000 A 
ATOM     36  C   UNL     1      -5.730  13.034  22.118  0.00  0.00    +0.000 A 
ENDBRANCH  28  31
ENDBRANCH  20  24
ENDBRANCH   1  20
TORSDOF 6
ENDMDL
MODEL 9
REMARK VINA RESULT:      -7.7      2.616      3.137
REMARK  Name = 
REMARK  9 active torsions:
REMARK  status: ('A' for Active; 'I' for Inactive)
REMARK    1  A    between atoms: C_1  and  C_2
REMARK    2  A    between atoms: C_4  and  S_5
REMARK    3  A    between atoms: S_5  and  C_6
REMARK    4  A    between atoms: C_6  and  C_7
REMARK    5  A    between atoms: N_9  and  C_10
REMARK    6  A    between atoms: C_11  and  C_12
REMARK    7  A    between atoms: N_13  and  C_14
REMARK    8  A    between atoms: N_15  and  C_16
REMARK    9  A    between atoms: N_27  and  C_28
REMARK                            x       y       z     vdW  Elec       q    Type
REMARK                         _______ _______ _______ _____ _____    ______ ____
ROOT
ATOM      1  C   UNL     1       1.466   8.966  21.196  0.00  0.00    +0.000 C 
ENDROOT
BRANCH   1   2
ATOM      2  C   UNL     1       1.793   8.076  20.010  0.00  0.00    +0.000 C 
ATOM      3  O   UNL     1       1.532   8.436  18.862  0.00  0.00    +0.000 OA
ATOM      4  N   UNL     1       2.233   6.807  20.328  0.00  0.00    +0.000 N 
ATOM      5  H   UNL     1       1.952   6.444  21.235  0.00  0.00    +0.000 HD
BRANCH   4   6
ATOM      6  C   UNL     1       2.642   5.864  19.427  0.00  0.00    +0.000 A 
ATOM      7  C   UNL     1       2.278   4.588  19.200  0.00  0.00    +0.000 A 
ATOM      8  C   UNL     1       1.249   3.784  19.924  0.00  0.00    +0.000 C 
ATOM      9  N   UNL     1       2.901   4.079  18.060  0.00  0.00    +0.000 N 
ATOM     10  C   UNL     1       3.090   2.676  17.728  0.00  0.00    +0.000 C 
ATOM     11  N   UNL     1       3.796   5.067  17.587  0.00  0.00    +0.000 N 
ATOM     12  C   UNL     1       3.720   6.168  18.434  0.00  0.00    +0.000 A 
ATOM     13  O   UNL     1       4.370   7.205  18.446  0.00  0.00    +0.000 OA
BRANCH  11  14
ATOM     14  C   UNL     1       4.844   4.755  16.712  0.00  0.00    +0.000 A 
ATOM     15  C   UNL     1       4.630   4.576  15.342  0.00  0.00    +0.000 A 
ATOM     16  C   UNL     1       5.715   4.335  14.496  0.00  0.00    +0.000 A 
ATOM     17  C   UNL     1       7.003   4.223  15.023  0.00  0.00    +0.000 A 
ATOM     18  C   UNL     1       7.212   4.360  16.394  0.00  0.00    +0.000 A 
ATOM     19  C   UNL     1       6.137   4.645  17.233  0.00  0.00    +0.000 A 
ENDBRANCH  11  14
ENDBRANCH   4   6
ENDBRANCH   1   2
BRANCH   1  20
ATOM     20  S   UNL     1      -0.315   9.123  21.540  0.00  0.00    +0.000 S 
BRANCH  20  24
ATOM     21  C   UNL     1      -2.127  10.696  16.957  0.00  0.00    +0.000 C 
ATOM     22  C   UNL     1      -1.636  11.062  18.326  0.00  0.00    +0.000 A 
ATOM     23  N   UNL     1      -1.323  10.054  19.174  0.00  0.00    +0.000 NA
ATOM     24  C   UNL     1      -0.819  10.365  20.385  0.00  0.00    +0.000 A 
ATOM     25  C   UNL     1      -0.644  11.703  20.732  0.00  0.00    +0.000 A 
ATOM     26  C   UNL     1      -0.158  12.447  21.821  0.00  0.00    +0.000 A 
ATOM     27  N   UNL     1      -0.194  13.763  21.614  0.00  0.00    +0.000 NA
ATOM     28  N   UNL     1      -0.743  13.897  20.363  0.00  0.00    +0.000 N 
ATOM     29  C   UNL     1      -1.017  12.652  19.794  0.00  0.00    +0.000 A 
ATOM     30  N   UNL     1      -1.517  12.379  18.572  0.00  0.00    +0.000 NA
BRANCH  28  31
ATOM     31  C   UNL     1      -0.944  15.206  19.828  0.00  0.00    +0.000 A 
ATOM     32  C   UNL     1      -0.153  15.629  18.746  0.00  0.00    +0.000 A 
ATOM     33  C   UNL     1      -0.322  16.902  18.195  0.00  0.00    +0.000 A 
ATOM     34  C   UNL     1      -1.272  17.768  18.726  0.00  0.00    +0.000 A 
ATOM     35  C   UNL     1      -2.057  17.361  19.803  0.00  0.00    +0.000 A 
ATOM     36  C   UNL     1      -1.900  16.084  20.352  0.00  0.00    +0.000 A 
ENDBRANCH  28  31
ENDBRANCH  20  24
ENDBRANCH   1  20
TORSDOF 6
ENDMDL
