MODEL 1
REMARK VINA RESULT:      -9.2      0.000      0.000
REMARK  Name = 
REMARK  9 active torsions:
REMARK  status: ('A' for Active; 'I' for Inactive)
REMARK    1  A    between atoms: C_1  and  O_2
REMARK    2  A    between atoms: O_2  and  C_3
REMARK    3  A    between atoms: C_5  and  C_6
REMARK    4  A    between atoms: C_7  and  C_8
REMARK    5  A    between atoms: N_10  and  C_11
REMARK    6  A    between atoms: C_11  and  C_12
REMARK    7  A    between atoms: N_14  and  C_15
REMARK    8  A    between atoms: C_20  and  C_21
REMARK    9  A    between atoms: C_27  and  O_28
REMARK                            x       y       z     vdW  Elec       q    Type
REMARK                         _______ _______ _______ _____ _____    ______ ____
ROOT
ATOM      1  C   UNL     1       7.535   7.131  17.859  0.00  0.00    +0.000 C 
ATOM      2  O   UNL     1       6.774   7.370  16.926  0.00  0.00    +0.000 OA
ATOM      3  N   UNL     1       7.619   5.911  18.474  0.00  0.00    +0.000 N 
ATOM      4  H   UNL     1       8.262   5.755  19.245  0.00  0.00    +0.000 HD
ENDROOT
BRANCH   1   6
ATOM      5  C   UNL     1       8.398   9.439  18.079  0.00  0.00    +0.000 C 
ATOM      6  C   UNL     1       8.470   8.141  18.427  0.00  0.00    +0.000 C 
BRANCH   5   9
ATOM      7  C   UNL     1      10.103  11.894  20.434  0.00  0.00    +0.000 A 
ATOM      8  C   UNL     1       9.276  10.872  19.927  0.00  0.00    +0.000 A 
ATOM      9  C   UNL     1       9.309  10.490  18.575  0.00  0.00    +0.000 A 
ATOM     10  C   UNL     1      10.173  11.183  17.719  0.00  0.00    +0.000 A 
ATOM     11  C   UNL     1      11.002  12.201  18.206  0.00  0.00    +0.000 A 
ATOM     12  C   UNL     1      10.969  12.554  19.557  0.00  0.00    +0.000 A 
BRANCH   7  14
ATOM     13  C   UNL     1       9.048  13.148  22.187  0.00  0.00    +0.000 C 
ATOM     14  O   UNL     1       9.937  12.114  21.778  0.00  0.00    +0.000 OA
ENDBRANCH   7  14
BRANCH  12  15
ATOM     15  O   UNL     1      11.795  13.559  19.977  0.00  0.00    +0.000 OA
ATOM     16  H   UNL     1      11.986  14.151  19.233  0.00  0.00    +0.000 HD
ENDBRANCH  12  15
ENDBRANCH   5   9
ENDBRANCH   1   6
BRANCH   3  17
ATOM     17  C   UNL     1       6.811   4.759  18.085  0.00  0.00    +0.000 C 
BRANCH  17  18
ATOM     18  C   UNL     1       5.578   4.716  18.999  0.00  0.00    +0.000 C 
ATOM     19  O   UNL     1       5.340   5.672  19.740  0.00  0.00    +0.000 OA
ATOM     20  N   UNL     1       4.825   3.551  18.920  0.00  0.00    +0.000 N 
ATOM     21  H   UNL     1       5.258   2.754  18.457  0.00  0.00    +0.000 HD
BRANCH  20  22
ATOM     22  C   UNL     1       3.578   3.324  19.577  0.00  0.00    +0.000 A 
ATOM     23  C   UNL     1       3.541   2.741  20.854  0.00  0.00    +0.000 A 
ATOM     24  C   UNL     1       2.337   2.485  21.516  0.00  0.00    +0.000 A 
ATOM     25  C   UNL     1       1.135   2.835  20.926  0.00  0.00    +0.000 A 
ATOM     26  C   UNL     1       1.142   3.443  19.674  0.00  0.00    +0.000 A 
ATOM     27  C   UNL     1       2.353   3.691  18.981  0.00  0.00    +0.000 A 
BRANCH  27  28
ATOM     28  C   UNL     1       2.224   4.295  17.607  0.00  0.00    +0.000 C 
ATOM     29  F   UNL     1       2.816   5.517  17.477  0.00  0.00    +0.000 F 
ATOM     30  F   UNL     1       2.778   3.511  16.641  0.00  0.00    +0.000 F 
ATOM     31  F   UNL     1       0.925   4.476  17.234  0.00  0.00    +0.000 F 
ENDBRANCH  27  28
ENDBRANCH  20  22
ENDBRANCH  17  18
ENDBRANCH   3  17
TORSDOF 8
ENDMDL
MODEL 2
REMARK VINA RESULT:      -9.2      1.035      1.495
REMARK  Name = 
REMARK  9 active torsions:
REMARK  status: ('A' for Active; 'I' for Inactive)
REMARK    1  A    between atoms: C_1  and  O_2
REMARK    2  A    between atoms: O_2  and  C_3
REMARK    3  A    between atoms: C_5  and  C_6
REMARK    4  A    between atoms: C_7  and  C_8
REMARK    5  A    between atoms: N_10  and  C_11
REMARK    6  A    between atoms: C_11  and  C_12
REMARK    7  A    between atoms: N_14  and  C_15
REMARK    8  A    between atoms: C_20  and  C_21
REMARK    9  A    between atoms: C_27  and  O_28
REMARK                            x       y       z     vdW  Elec       q    Type
REMARK                         _______ _______ _______ _____ _____    ______ ____
ROOT
ATOM      1  C   UNL     1       7.584   7.219  17.756  0.00  0.00    +0.000 C 
ATOM      2  O   UNL     1       6.927   7.370  16.730  0.00  0.00    +0.000 OA
ATOM      3  N   UNL     1       7.611   6.053  18.473  0.00  0.00    +0.000 N 
ATOM      4  H   UNL     1       8.168   5.970  19.319  0.00  0.00    +0.000 HD
ENDROOT
BRANCH   1   6
ATOM      5  C   UNL     1       8.254   9.584  18.036  0.00  0.00    +0.000 C 
ATOM      6  C   UNL     1       8.444   8.287  18.338  0.00  0.00    +0.000 C 
BRANCH   5   9
ATOM      7  C   UNL     1       9.864  13.018  18.341  0.00  0.00    +0.000 A 
ATOM      8  C   UNL     1       9.062  11.944  17.907  0.00  0.00    +0.000 A 
ATOM      9  C   UNL     1       9.084  10.693  18.547  0.00  0.00    +0.000 A 
ATOM     10  C   UNL     1       9.962  10.523  19.624  0.00  0.00    +0.000 A 
ATOM     11  C   UNL     1      10.766  11.580  20.068  0.00  0.00    +0.000 A 
ATOM     12  C   UNL     1      10.716  12.822  19.432  0.00  0.00    +0.000 A 
BRANCH   7  14
ATOM     13  C   UNL     1       8.719  15.105  18.033  0.00  0.00    +0.000 C 
ATOM     14  O   UNL     1       9.693  14.161  17.600  0.00  0.00    +0.000 OA
ENDBRANCH   7  14
BRANCH  12  15
ATOM     15  O   UNL     1      11.527  13.817  19.903  0.00  0.00    +0.000 OA
ATOM     16  H   UNL     1      11.128  14.679  19.701  0.00  0.00    +0.000 HD
ENDBRANCH  12  15
ENDBRANCH   5   9
ENDBRANCH   1   6
BRANCH   3  17
ATOM     17  C   UNL     1       6.860   4.860  18.094  0.00  0.00    +0.000 C 
BRANCH  17  18
ATOM     18  C   UNL     1       5.628   4.768  19.005  0.00  0.00    +0.000 C 
ATOM     19  O   UNL     1       5.371   5.699  19.771  0.00  0.00    +0.000 OA
ATOM     20  N   UNL     1       4.898   3.591  18.895  0.00  0.00    +0.000 N 
ATOM     21  H   UNL     1       5.347   2.815  18.410  0.00  0.00    +0.000 HD
BRANCH  20  22
ATOM     22  C   UNL     1       3.656   3.321  19.543  0.00  0.00    +0.000 A 
ATOM     23  C   UNL     1       3.630   2.710  20.808  0.00  0.00    +0.000 A 
ATOM     24  C   UNL     1       2.431   2.413  21.462  0.00  0.00    +0.000 A 
ATOM     25  C   UNL     1       1.222   2.748  20.877  0.00  0.00    +0.000 A 
ATOM     26  C   UNL     1       1.217   3.383  19.638  0.00  0.00    +0.000 A 
ATOM     27  C   UNL     1       2.423   3.673  18.954  0.00  0.00    +0.000 A 
BRANCH  27  28
ATOM     28  C   UNL     1       2.282   4.303  17.592  0.00  0.00    +0.000 C 
ATOM     29  F   UNL     1       2.907   5.510  17.469  0.00  0.00    +0.000 F 
ATOM     30  F   UNL     1       2.794   3.519  16.602  0.00  0.00    +0.000 F 
ATOM     31  F   UNL     1       0.982   4.527  17.251  0.00  0.00    +0.000 F 
ENDBRANCH  27  28
ENDBRANCH  20  22
ENDBRANCH  17  18
ENDBRANCH   3  17
TORSDOF 8
ENDMDL
MODEL 3
REMARK VINA RESULT:      -9.0      1.678      2.352
REMARK  Name = 
REMARK  9 active torsions:
REMARK  status: ('A' for Active; 'I' for Inactive)
REMARK    1  A    between atoms: C_1  and  O_2
REMARK    2  A    between atoms: O_2  and  C_3
REMARK    3  A    between atoms: C_5  and  C_6
REMARK    4  A    between atoms: C_7  and  C_8
REMARK    5  A    between atoms: N_10  and  C_11
REMARK    6  A    between atoms: C_11  and  C_12
REMARK    7  A    between atoms: N_14  and  C_15
REMARK    8  A    between atoms: C_20  and  C_21
REMARK    9  A    between atoms: C_27  and  O_28
REMARK                            x       y       z     vdW  Elec       q    Type
REMARK                         _______ _______ _______ _____ _____    ______ ____
ROOT
ATOM      1  C   UNL     1       7.238   7.195  17.254  0.00  0.00    +0.000 C 
ATOM      2  O   UNL     1       6.469   6.955  16.328  0.00  0.00    +0.000 OA
ATOM      3  N   UNL     1       7.841   6.225  18.008  0.00  0.00    +0.000 N 
ATOM      4  H   UNL     1       8.471   6.466  18.768  0.00  0.00    +0.000 HD
ENDROOT
BRANCH   1   6
ATOM      5  C   UNL     1       8.688   8.809  18.444  0.00  0.00    +0.000 C 
ATOM      6  C   UNL     1       7.619   8.577  17.660  0.00  0.00    +0.000 C 
BRANCH   5   9
ATOM      7  C   UNL     1       9.902  12.414  18.389  0.00  0.00    +0.000 A 
ATOM      8  C   UNL     1       9.463  11.138  17.984  0.00  0.00    +0.000 A 
ATOM      9  C   UNL     1       9.108  10.145  18.913  0.00  0.00    +0.000 A 
ATOM     10  C   UNL     1       9.234  10.444  20.274  0.00  0.00    +0.000 A 
ATOM     11  C   UNL     1       9.669  11.707  20.693  0.00  0.00    +0.000 A 
ATOM     12  C   UNL     1       9.999  12.688  19.756  0.00  0.00    +0.000 A 
BRANCH   7  14
ATOM     13  C   UNL     1      11.552  13.410  16.959  0.00  0.00    +0.000 C 
ATOM     14  O   UNL     1      10.189  13.251  17.339  0.00  0.00    +0.000 OA
ENDBRANCH   7  14
BRANCH  12  15
ATOM     15  O   UNL     1      10.424  13.902  20.221  0.00  0.00    +0.000 OA
ATOM     16  H   UNL     1      10.114  14.602  19.623  0.00  0.00    +0.000 HD
ENDBRANCH  12  15
ENDBRANCH   5   9
ENDBRANCH   1   6
BRANCH   3  17
ATOM     17  C   UNL     1       7.633   4.796  17.792  0.00  0.00    +0.000 C 
BRANCH  17  18
ATOM     18  C   UNL     1       6.278   4.417  18.406  0.00  0.00    +0.000 C 
ATOM     19  O   UNL     1       6.122   4.501  19.626  0.00  0.00    +0.000 OA
ATOM     20  N   UNL     1       5.320   3.979  17.499  0.00  0.00    +0.000 N 
ATOM     21  H   UNL     1       5.650   3.730  16.568  0.00  0.00    +0.000 HD
BRANCH  20  22
ATOM     22  C   UNL     1       3.958   3.687  17.808  0.00  0.00    +0.000 A 
ATOM     23  C   UNL     1       3.529   2.358  17.952  0.00  0.00    +0.000 A 
ATOM     24  C   UNL     1       2.199   2.035  18.233  0.00  0.00    +0.000 A 
ATOM     25  C   UNL     1       1.265   3.042  18.408  0.00  0.00    +0.000 A 
ATOM     26  C   UNL     1       1.667   4.370  18.303  0.00  0.00    +0.000 A 
ATOM     27  C   UNL     1       3.008   4.713  17.999  0.00  0.00    +0.000 A 
BRANCH  27  28
ATOM     28  C   UNL     1       3.303   6.182  17.848  0.00  0.00    +0.000 C 
ATOM     29  F   UNL     1       4.112   6.692  18.822  0.00  0.00    +0.000 F 
ATOM     30  F   UNL     1       3.921   6.469  16.668  0.00  0.00    +0.000 F 
ATOM     31  F   UNL     1       2.176   6.948  17.870  0.00  0.00    +0.000 F 
ENDBRANCH  27  28
ENDBRANCH  20  22
ENDBRANCH  17  18
ENDBRANCH   3  17
TORSDOF 8
ENDMDL
MODEL 4
REMARK VINA RESULT:      -9.0      1.635      2.538
REMARK  Name = 
REMARK  9 active torsions:
REMARK  status: ('A' for Active; 'I' for Inactive)
REMARK    1  A    between atoms: C_1  and  O_2
REMARK    2  A    between atoms: O_2  and  C_3
REMARK    3  A    between atoms: C_5  and  C_6
REMARK    4  A    between atoms: C_7  and  C_8
REMARK    5  A    between atoms: N_10  and  C_11
REMARK    6  A    between atoms: C_11  and  C_12
REMARK    7  A    between atoms: N_14  and  C_15
REMARK    8  A    between atoms: C_20  and  C_21
REMARK    9  A    between atoms: C_27  and  O_28
REMARK                            x       y       z     vdW  Elec       q    Type
REMARK                         _______ _______ _______ _____ _____    ______ ____
ROOT
ATOM      1  C   UNL     1       7.242   7.534  17.329  0.00  0.00    +0.000 C 
ATOM      2  O   UNL     1       6.139   7.513  16.792  0.00  0.00    +0.000 OA
ATOM      3  N   UNL     1       7.887   6.414  17.778  0.00  0.00    +0.000 N 
ATOM      4  H   UNL     1       8.800   6.475  18.219  0.00  0.00    +0.000 HD
ENDROOT
BRANCH   1   6
ATOM      5  C   UNL     1       8.516   9.106  18.754  0.00  0.00    +0.000 C 
ATOM      6  C   UNL     1       8.021   8.786  17.544  0.00  0.00    +0.000 C 
BRANCH   5   9
ATOM      7  C   UNL     1      10.428  12.355  18.240  0.00  0.00    +0.000 A 
ATOM      8  C   UNL     1       9.679  11.185  18.004  0.00  0.00    +0.000 A 
ATOM      9  C   UNL     1       9.268  10.342  19.051  0.00  0.00    +0.000 A 
ATOM     10  C   UNL     1       9.654  10.677  20.353  0.00  0.00    +0.000 A 
ATOM     11  C   UNL     1      10.398  11.836  20.605  0.00  0.00    +0.000 A 
ATOM     12  C   UNL     1      10.782  12.672  19.554  0.00  0.00    +0.000 A 
BRANCH   7  14
ATOM     13  C   UNL     1      12.089  13.182  16.718  0.00  0.00    +0.000 C 
ATOM     14  O   UNL     1      10.722  13.054  17.096  0.00  0.00    +0.000 OA
ENDBRANCH   7  14
BRANCH  12  15
ATOM     15  O   UNL     1      11.512  13.788  19.856  0.00  0.00    +0.000 OA
ATOM     16  H   UNL     1      12.229  13.889  19.209  0.00  0.00    +0.000 HD
ENDBRANCH  12  15
ENDBRANCH   5   9
ENDBRANCH   1   6
BRANCH   3  17
ATOM     17  C   UNL     1       7.330   5.069  17.667  0.00  0.00    +0.000 C 
BRANCH  17  18
ATOM     18  C   UNL     1       6.221   4.928  18.719  0.00  0.00    +0.000 C 
ATOM     19  O   UNL     1       6.521   4.902  19.915  0.00  0.00    +0.000 OA
ATOM     20  N   UNL     1       4.933   4.819  18.209  0.00  0.00    +0.000 N 
ATOM     21  H   UNL     1       4.848   4.614  17.215  0.00  0.00    +0.000 HD
BRANCH  20  22
ATOM     22  C   UNL     1       3.734   4.800  18.983  0.00  0.00    +0.000 A 
ATOM     23  C   UNL     1       3.181   5.994  19.472  0.00  0.00    +0.000 A 
ATOM     24  C   UNL     1       2.021   6.010  20.250  0.00  0.00    +0.000 A 
ATOM     25  C   UNL     1       1.363   4.826  20.535  0.00  0.00    +0.000 A 
ATOM     26  C   UNL     1       1.869   3.628  20.037  0.00  0.00    +0.000 A 
ATOM     27  C   UNL     1       3.055   3.594  19.263  0.00  0.00    +0.000 A 
BRANCH  27  28
ATOM     28  C   UNL     1       3.536   2.231  18.838  0.00  0.00    +0.000 C 
ATOM     29  F   UNL     1       3.953   2.166  17.541  0.00  0.00    +0.000 F 
ATOM     30  F   UNL     1       4.588   1.795  19.586  0.00  0.00    +0.000 F 
ATOM     31  F   UNL     1       2.573   1.274  18.962  0.00  0.00    +0.000 F 
ENDBRANCH  27  28
ENDBRANCH  20  22
ENDBRANCH  17  18
ENDBRANCH   3  17
TORSDOF 8
ENDMDL
MODEL 5
REMARK VINA RESULT:      -8.9      1.870      2.213
REMARK  Name = 
REMARK  9 active torsions:
REMARK  status: ('A' for Active; 'I' for Inactive)
REMARK    1  A    between atoms: C_1  and  O_2
REMARK    2  A    between atoms: O_2  and  C_3
REMARK    3  A    between atoms: C_5  and  C_6
REMARK    4  A    between atoms: C_7  and  C_8
REMARK    5  A    between atoms: N_10  and  C_11
REMARK    6  A    between atoms: C_11  and  C_12
REMARK    7  A    between atoms: N_14  and  C_15
REMARK    8  A    between atoms: C_20  and  C_21
REMARK    9  A    between atoms: C_27  and  O_28
REMARK                            x       y       z     vdW  Elec       q    Type
REMARK                         _______ _______ _______ _____ _____    ______ ____
ROOT
ATOM      1  C   UNL     1       7.489   6.560  17.713  0.00  0.00    +0.000 C 
ATOM      2  O   UNL     1       7.323   5.898  18.733  0.00  0.00    +0.000 OA
ATOM      3  N   UNL     1       7.446   6.030  16.452  0.00  0.00    +0.000 N 
ATOM      4  H   UNL     1       7.590   6.613  15.632  0.00  0.00    +0.000 HD
ENDROOT
BRANCH   1   6
ATOM      5  C   UNL     1       8.604   8.583  18.600  0.00  0.00    +0.000 C 
ATOM      6  C   UNL     1       7.745   8.027  17.725  0.00  0.00    +0.000 C 
BRANCH   5   9
ATOM      7  C   UNL     1       9.647  11.953  20.026  0.00  0.00    +0.000 A 
ATOM      8  C   UNL     1       9.398  10.573  19.883  0.00  0.00    +0.000 A 
ATOM      9  C   UNL     1       8.884  10.030  18.693  0.00  0.00    +0.000 A 
ATOM     10  C   UNL     1       8.586  10.910  17.645  0.00  0.00    +0.000 A 
ATOM     11  C   UNL     1       8.828  12.283  17.771  0.00  0.00    +0.000 A 
ATOM     12  C   UNL     1       9.357  12.802  18.954  0.00  0.00    +0.000 A 
BRANCH   7  14
ATOM     13  C   UNL     1       9.253  12.660  22.285  0.00  0.00    +0.000 C 
ATOM     14  O   UNL     1      10.162  12.290  21.253  0.00  0.00    +0.000 OA
ENDBRANCH   7  14
BRANCH  12  15
ATOM     15  O   UNL     1       9.567  14.152  19.025  0.00  0.00    +0.000 OA
ATOM     16  H   UNL     1      10.517  14.334  18.945  0.00  0.00    +0.000 HD
ENDBRANCH  12  15
ENDBRANCH   5   9
ENDBRANCH   1   6
BRANCH   3  17
ATOM     17  C   UNL     1       7.198   4.617  16.183  0.00  0.00    +0.000 C 
BRANCH  17  18
ATOM     18  C   UNL     1       5.687   4.372  16.299  0.00  0.00    +0.000 C 
ATOM     19  O   UNL     1       4.972   4.524  15.305  0.00  0.00    +0.000 OA
ATOM     20  N   UNL     1       5.242   4.006  17.563  0.00  0.00    +0.000 N 
ATOM     21  H   UNL     1       5.889   4.150  18.337  0.00  0.00    +0.000 HD
BRANCH  20  22
ATOM     22  C   UNL     1       3.911   3.611  17.892  0.00  0.00    +0.000 A 
ATOM     23  C   UNL     1       3.517   2.268  17.776  0.00  0.00    +0.000 A 
ATOM     24  C   UNL     1       2.216   1.850  18.069  0.00  0.00    +0.000 A 
ATOM     25  C   UNL     1       1.279   2.766  18.516  0.00  0.00    +0.000 A 
ATOM     26  C   UNL     1       1.649   4.098  18.671  0.00  0.00    +0.000 A 
ATOM     27  C   UNL     1       2.959   4.541  18.360  0.00  0.00    +0.000 A 
BRANCH  27  28
ATOM     28  C   UNL     1       3.216   6.018  18.507  0.00  0.00    +0.000 C 
ATOM     29  F   UNL     1       2.129   6.736  18.913  0.00  0.00    +0.000 F 
ATOM     30  F   UNL     1       4.196   6.287  19.415  0.00  0.00    +0.000 F 
ATOM     31  F   UNL     1       3.623   6.598  17.342  0.00  0.00    +0.000 F 
ENDBRANCH  27  28
ENDBRANCH  20  22
ENDBRANCH  17  18
ENDBRANCH   3  17
TORSDOF 8
ENDMDL
MODEL 6
REMARK VINA RESULT:      -8.9      1.270      1.623
REMARK  Name = 
REMARK  9 active torsions:
REMARK  status: ('A' for Active; 'I' for Inactive)
REMARK    1  A    between atoms: C_1  and  O_2
REMARK    2  A    between atoms: O_2  and  C_3
REMARK    3  A    between atoms: C_5  and  C_6
REMARK    4  A    between atoms: C_7  and  C_8
REMARK    5  A    between atoms: N_10  and  C_11
REMARK    6  A    between atoms: C_11  and  C_12
REMARK    7  A    between atoms: N_14  and  C_15
REMARK    8  A    between atoms: C_20  and  C_21
REMARK    9  A    between atoms: C_27  and  O_28
REMARK                            x       y       z     vdW  Elec       q    Type
REMARK                         _______ _______ _______ _____ _____    ______ ____
ROOT
ATOM      1  C   UNL     1       7.308   7.302  17.557  0.00  0.00    +0.000 C 
ATOM      2  O   UNL     1       6.257   7.716  17.075  0.00  0.00    +0.000 OA
ATOM      3  N   UNL     1       7.649   5.977  17.604  0.00  0.00    +0.000 N 
ATOM      4  H   UNL     1       8.528   5.676  18.013  0.00  0.00    +0.000 HD
ENDROOT
BRANCH   1   6
ATOM      5  C   UNL     1       8.278   9.534  18.000  0.00  0.00    +0.000 C 
ATOM      6  C   UNL     1       8.347   8.197  18.138  0.00  0.00    +0.000 C 
BRANCH   5   9
ATOM      7  C   UNL     1      10.168  11.810  20.394  0.00  0.00    +0.000 A 
ATOM      8  C   UNL     1       9.248  10.882  19.866  0.00  0.00    +0.000 A 
ATOM      9  C   UNL     1       9.285  10.482  18.520  0.00  0.00    +0.000 A 
ATOM     10  C   UNL     1      10.253  11.060  17.690  0.00  0.00    +0.000 A 
ATOM     11  C   UNL     1      11.174  11.983  18.198  0.00  0.00    +0.000 A 
ATOM     12  C   UNL     1      11.134  12.356  19.544  0.00  0.00    +0.000 A 
BRANCH   7  14
ATOM     13  C   UNL     1       9.128  13.145  22.096  0.00  0.00    +0.000 C 
ATOM     14  O   UNL     1       9.980  12.065  21.730  0.00  0.00    +0.000 OA
ENDBRANCH   7  14
BRANCH  12  15
ATOM     15  O   UNL     1      12.054  13.265  19.986  0.00  0.00    +0.000 OA
ATOM     16  H   UNL     1      12.850  13.212  19.433  0.00  0.00    +0.000 HD
ENDBRANCH  12  15
ENDBRANCH   5   9
ENDBRANCH   1   6
BRANCH   3  17
ATOM     17  C   UNL     1       6.797   4.911  17.085  0.00  0.00    +0.000 C 
BRANCH  17  18
ATOM     18  C   UNL     1       5.730   4.600  18.144  0.00  0.00    +0.000 C 
ATOM     19  O   UNL     1       6.048   3.975  19.158  0.00  0.00    +0.000 OA
ATOM     20  N   UNL     1       4.451   5.051  17.843  0.00  0.00    +0.000 N 
ATOM     21  H   UNL     1       4.278   5.335  16.880  0.00  0.00    +0.000 HD
BRANCH  20  22
ATOM     22  C   UNL     1       3.323   4.991  18.716  0.00  0.00    +0.000 A 
ATOM     23  C   UNL     1       3.059   6.039  19.612  0.00  0.00    +0.000 A 
ATOM     24  C   UNL     1       1.977   6.003  20.496  0.00  0.00    +0.000 A 
ATOM     25  C   UNL     1       1.110   4.924  20.484  0.00  0.00    +0.000 A 
ATOM     26  C   UNL     1       1.329   3.884  19.585  0.00  0.00    +0.000 A 
ATOM     27  C   UNL     1       2.432   3.897  18.697  0.00  0.00    +0.000 A 
BRANCH  27  28
ATOM     28  C   UNL     1       2.597   2.683  17.820  0.00  0.00    +0.000 C 
ATOM     29  F   UNL     1       3.752   1.990  18.037  0.00  0.00    +0.000 F 
ATOM     30  F   UNL     1       1.589   1.782  17.985  0.00  0.00    +0.000 F 
ATOM     31  F   UNL     1       2.600   2.993  16.492  0.00  0.00    +0.000 F 
ENDBRANCH  27  28
ENDBRANCH  20  22
ENDBRANCH  17  18
ENDBRANCH   3  17
TORSDOF 8
ENDMDL
MODEL 7
REMARK VINA RESULT:      -8.8      1.795      2.569
REMARK  Name = 
REMARK  9 active torsions:
REMARK  status: ('A' for Active; 'I' for Inactive)
REMARK    1  A    between atoms: C_1  and  O_2
REMARK    2  A    between atoms: O_2  and  C_3
REMARK    3  A    between atoms: C_5  and  C_6
REMARK    4  A    between atoms: C_7  and  C_8
REMARK    5  A    between atoms: N_10  and  C_11
REMARK    6  A    between atoms: C_11  and  C_12
REMARK    7  A    between atoms: N_14  and  C_15
REMARK    8  A    between atoms: C_20  and  C_21
REMARK    9  A    between atoms: C_27  and  O_28
REMARK                            x       y       z     vdW  Elec       q    Type
REMARK                         _______ _______ _______ _____ _____    ______ ____
ROOT
ATOM      1  C   UNL     1       7.735   7.612  17.885  0.00  0.00    +0.000 C 
ATOM      2  O   UNL     1       8.049   6.710  18.657  0.00  0.00    +0.000 OA
ATOM      3  N   UNL     1       6.843   7.454  16.859  0.00  0.00    +0.000 N 
ATOM      4  H   UNL     1       6.611   8.226  16.242  0.00  0.00    +0.000 HD
ENDROOT
BRANCH   1   6
ATOM      5  C   UNL     1       8.984   9.398  19.057  0.00  0.00    +0.000 C 
ATOM      6  C   UNL     1       8.279   8.995  17.984  0.00  0.00    +0.000 C 
BRANCH   5   9
ATOM      7  C   UNL     1      10.449  12.816  18.252  0.00  0.00    +0.000 A 
ATOM      8  C   UNL     1       9.896  11.527  18.121  0.00  0.00    +0.000 A 
ATOM      9  C   UNL     1       9.525  10.760  19.239  0.00  0.00    +0.000 A 
ATOM     10  C   UNL     1       9.753  11.300  20.510  0.00  0.00    +0.000 A 
ATOM     11  C   UNL     1      10.301  12.580  20.657  0.00  0.00    +0.000 A 
ATOM     12  C   UNL     1      10.646  13.335  19.535  0.00  0.00    +0.000 A 
BRANCH   7  14
ATOM     13  C   UNL     1      12.076  13.375  16.579  0.00  0.00    +0.000 C 
ATOM     14  O   UNL     1      10.732  13.412  17.049  0.00  0.00    +0.000 OA
ENDBRANCH   7  14
BRANCH  12  15
ATOM     15  O   UNL     1      11.183  14.577  19.736  0.00  0.00    +0.000 OA
ATOM     16  H   UNL     1      11.647  14.591  20.589  0.00  0.00    +0.000 HD
ENDBRANCH  12  15
ENDBRANCH   5   9
ENDBRANCH   1   6
BRANCH   3  17
ATOM     17  C   UNL     1       6.168   6.192  16.570  0.00  0.00    +0.000 C 
BRANCH  17  18
ATOM     18  C   UNL     1       4.821   6.197  17.306  0.00  0.00    +0.000 C 
ATOM     19  O   UNL     1       3.995   7.075  17.050  0.00  0.00    +0.000 OA
ATOM     20  N   UNL     1       4.656   5.184  18.243  0.00  0.00    +0.000 N 
ATOM     21  H   UNL     1       5.494   4.679  18.526  0.00  0.00    +0.000 HD
BRANCH  20  22
ATOM     22  C   UNL     1       3.455   4.908  18.963  0.00  0.00    +0.000 A 
ATOM     23  C   UNL     1       2.957   5.829  19.899  0.00  0.00    +0.000 A 
ATOM     24  C   UNL     1       1.796   5.581  20.636  0.00  0.00    +0.000 A 
ATOM     25  C   UNL     1       1.084   4.412  20.432  0.00  0.00    +0.000 A 
ATOM     26  C   UNL     1       1.535   3.495  19.488  0.00  0.00    +0.000 A 
ATOM     27  C   UNL     1       2.721   3.722  18.747  0.00  0.00    +0.000 A 
BRANCH  27  28
ATOM     28  C   UNL     1       3.139   2.624  17.804  0.00  0.00    +0.000 C 
ATOM     29  F   UNL     1       3.759   3.068  16.672  0.00  0.00    +0.000 F 
ATOM     30  F   UNL     1       4.007   1.746  18.380  0.00  0.00    +0.000 F 
ATOM     31  F   UNL     1       2.085   1.873  17.374  0.00  0.00    +0.000 F 
ENDBRANCH  27  28
ENDBRANCH  20  22
ENDBRANCH  17  18
ENDBRANCH   3  17
TORSDOF 8
ENDMDL
MODEL 8
REMARK VINA RESULT:      -8.7      1.972      2.475
REMARK  Name = 
REMARK  9 active torsions:
REMARK  status: ('A' for Active; 'I' for Inactive)
REMARK    1  A    between atoms: C_1  and  O_2
REMARK    2  A    between atoms: O_2  and  C_3
REMARK    3  A    between atoms: C_5  and  C_6
REMARK    4  A    between atoms: C_7  and  C_8
REMARK    5  A    between atoms: N_10  and  C_11
REMARK    6  A    between atoms: C_11  and  C_12
REMARK    7  A    between atoms: N_14  and  C_15
REMARK    8  A    between atoms: C_20  and  C_21
REMARK    9  A    between atoms: C_27  and  O_28
REMARK                            x       y       z     vdW  Elec       q    Type
REMARK                         _______ _______ _______ _____ _____    ______ ____
ROOT
ATOM      1  C   UNL     1       7.541   6.778  17.757  0.00  0.00    +0.000 C 
ATOM      2  O   UNL     1       7.435   6.319  18.891  0.00  0.00    +0.000 OA
ATOM      3  N   UNL     1       7.456   6.017  16.623  0.00  0.00    +0.000 N 
ATOM      4  H   UNL     1       7.551   6.436  15.702  0.00  0.00    +0.000 HD
ENDROOT
BRANCH   1   6
ATOM      5  C   UNL     1       8.559   8.975  18.265  0.00  0.00    +0.000 C 
ATOM      6  C   UNL     1       7.764   8.224  17.480  0.00  0.00    +0.000 C 
BRANCH   5   9
ATOM      7  C   UNL     1      10.258  12.377  18.387  0.00  0.00    +0.000 A 
ATOM      8  C   UNL     1      10.001  10.998  18.519  0.00  0.00    +0.000 A 
ATOM      9  C   UNL     1       8.801  10.419  18.072  0.00  0.00    +0.000 A 
ATOM     10  C   UNL     1       7.835  11.263  17.512  0.00  0.00    +0.000 A 
ATOM     11  C   UNL     1       8.074  12.635  17.373  0.00  0.00    +0.000 A 
ATOM     12  C   UNL     1       9.280  13.190  17.806  0.00  0.00    +0.000 A 
BRANCH   7  14
ATOM     13  C   UNL     1      11.533  13.567  20.036  0.00  0.00    +0.000 C 
ATOM     14  O   UNL     1      11.488  12.752  18.869  0.00  0.00    +0.000 OA
ENDBRANCH   7  14
BRANCH  12  15
ATOM     15  O   UNL     1       9.459  14.536  17.651  0.00  0.00    +0.000 OA
ATOM     16  H   UNL     1       9.130  14.998  18.439  0.00  0.00    +0.000 HD
ENDBRANCH  12  15
ENDBRANCH   5   9
ENDBRANCH   1   6
BRANCH   3  17
ATOM     17  C   UNL     1       7.228   4.575  16.638  0.00  0.00    +0.000 C 
BRANCH  17  18
ATOM     18  C   UNL     1       5.712   4.336  16.675  0.00  0.00    +0.000 C 
ATOM     19  O   UNL     1       5.045   4.527  15.656  0.00  0.00    +0.000 OA
ATOM     20  N   UNL     1       5.208   3.929  17.905  0.00  0.00    +0.000 N 
ATOM     21  H   UNL     1       5.819   4.042  18.712  0.00  0.00    +0.000 HD
BRANCH  20  22
ATOM     22  C   UNL     1       3.861   3.531  18.158  0.00  0.00    +0.000 A 
ATOM     23  C   UNL     1       3.483   2.184  18.044  0.00  0.00    +0.000 A 
ATOM     24  C   UNL     1       2.169   1.763  18.264  0.00  0.00    +0.000 A 
ATOM     25  C   UNL     1       1.201   2.680  18.634  0.00  0.00    +0.000 A 
ATOM     26  C   UNL     1       1.553   4.018  18.786  0.00  0.00    +0.000 A 
ATOM     27  C   UNL     1       2.877   4.464  18.548  0.00  0.00    +0.000 A 
BRANCH  27  28
ATOM     28  C   UNL     1       3.116   5.945  18.682  0.00  0.00    +0.000 C 
ATOM     29  F   UNL     1       3.380   6.577  17.502  0.00  0.00    +0.000 F 
ATOM     30  F   UNL     1       2.047   6.598  19.219  0.00  0.00    +0.000 F 
ATOM     31  F   UNL     1       4.171   6.234  19.496  0.00  0.00    +0.000 F 
ENDBRANCH  27  28
ENDBRANCH  20  22
ENDBRANCH  17  18
ENDBRANCH   3  17
TORSDOF 8
ENDMDL
MODEL 9
REMARK VINA RESULT:      -8.7      1.233      2.031
REMARK  Name = 
REMARK  9 active torsions:
REMARK  status: ('A' for Active; 'I' for Inactive)
REMARK    1  A    between atoms: C_1  and  O_2
REMARK    2  A    between atoms: O_2  and  C_3
REMARK    3  A    between atoms: C_5  and  C_6
REMARK    4  A    between atoms: C_7  and  C_8
REMARK    5  A    between atoms: N_10  and  C_11
REMARK    6  A    between atoms: C_11  and  C_12
REMARK    7  A    between atoms: N_14  and  C_15
REMARK    8  A    between atoms: C_20  and  C_21
REMARK    9  A    between atoms: C_27  and  O_28
REMARK                            x       y       z     vdW  Elec       q    Type
REMARK                         _______ _______ _______ _____ _____    ______ ____
ROOT
ATOM      1  C   UNL     1       7.291   7.562  17.327  0.00  0.00    +0.000 C 
ATOM      2  O   UNL     1       6.387   7.408  16.511  0.00  0.00    +0.000 OA
ATOM      3  N   UNL     1       7.856   6.534  18.032  0.00  0.00    +0.000 N 
ATOM      4  H   UNL     1       8.603   6.704  18.700  0.00  0.00    +0.000 HD
ENDROOT
BRANCH   1   6
ATOM      5  C   UNL     1       8.697   9.063  18.702  0.00  0.00    +0.000 C 
ATOM      6  C   UNL     1       7.892   8.889  17.637  0.00  0.00    +0.000 C 
BRANCH   5   9
ATOM      7  C   UNL     1      10.318  12.495  18.429  0.00  0.00    +0.000 A 
ATOM      8  C   UNL     1       9.704  11.269  18.103  0.00  0.00    +0.000 A 
ATOM      9  C   UNL     1       9.302  10.353  19.090  0.00  0.00    +0.000 A 
ATOM     10  C   UNL     1       9.559  10.675  20.428  0.00  0.00    +0.000 A 
ATOM     11  C   UNL     1      10.167  11.889  20.769  0.00  0.00    +0.000 A 
ATOM     12  C   UNL     1      10.543  12.796  19.776  0.00  0.00    +0.000 A 
BRANCH   7  14
ATOM     13  C   UNL     1      11.988  13.337  16.926  0.00  0.00    +0.000 C 
ATOM     14  O   UNL     1      10.625  13.260  17.332  0.00  0.00    +0.000 OA
ENDBRANCH   7  14
BRANCH  12  15
ATOM     15  O   UNL     1      11.138  13.964  20.165  0.00  0.00    +0.000 OA
ATOM     16  H   UNL     1      10.539  14.706  19.984  0.00  0.00    +0.000 HD
ENDBRANCH  12  15
ENDBRANCH   5   9
ENDBRANCH   1   6
BRANCH   3  17
ATOM     17  C   UNL     1       7.444   5.141  17.890  0.00  0.00    +0.000 C 
BRANCH  17  18
ATOM     18  C   UNL     1       6.369   4.856  18.949  0.00  0.00    +0.000 C 
ATOM     19  O   UNL     1       6.579   5.169  20.123  0.00  0.00    +0.000 OA
ATOM     20  N   UNL     1       5.223   4.230  18.474  0.00  0.00    +0.000 N 
ATOM     21  H   UNL     1       5.277   3.815  17.545  0.00  0.00    +0.000 HD
BRANCH  20  22
ATOM     22  C   UNL     1       4.043   3.972  19.235  0.00  0.00    +0.000 A 
ATOM     23  C   UNL     1       3.983   2.871  20.105  0.00  0.00    +0.000 A 
ATOM     24  C   UNL     1       2.837   2.577  20.848  0.00  0.00    +0.000 A 
ATOM     25  C   UNL     1       1.727   3.398  20.762  0.00  0.00    +0.000 A 
ATOM     26  C   UNL     1       1.768   4.515  19.932  0.00  0.00    +0.000 A 
ATOM     27  C   UNL     1       2.915   4.816  19.157  0.00  0.00    +0.000 A 
BRANCH  27  28
ATOM     28  C   UNL     1       2.812   6.014  18.250  0.00  0.00    +0.000 C 
ATOM     29  F   UNL     1       3.024   7.208  18.877  0.00  0.00    +0.000 F 
ATOM     30  F   UNL     1       3.710   5.970  17.227  0.00  0.00    +0.000 F 
ATOM     31  F   UNL     1       1.587   6.122  17.662  0.00  0.00    +0.000 F 
ENDBRANCH  27  28
ENDBRANCH  20  22
ENDBRANCH  17  18
ENDBRANCH   3  17
TORSDOF 8
ENDMDL
