MODEL 1
REMARK VINA RESULT:      -8.7      0.000      0.000
REMARK  Name = 
REMARK  4 active torsions:
REMARK  status: ('A' for Active; 'I' for Inactive)
REMARK    1  A    between atoms: C_2  and  O_3
REMARK    2  A    between atoms: C_2  and  C_4
REMARK    3  A    between atoms: C_11  and  N_12
REMARK    4  A    between atoms: N_12  and  C_13
REMARK                            x       y       z     vdW  Elec       q    Type
REMARK                         _______ _______ _______ _____ _____    ______ ____
ROOT
ATOM      1  C   UNL     1       1.735   8.657  18.941  0.00  0.00    +0.000 A 
ATOM      2  C   UNL     1       1.221   8.260  20.172  0.00  0.00    +0.000 A 
ATOM      3  C   UNL     1       1.509   6.985  20.667  0.00  0.00    +0.000 A 
ATOM      4  C   UNL     1       2.324   6.082  19.941  0.00  0.00    +0.000 A 
ATOM      5  C   UNL     1       2.837   6.514  18.708  0.00  0.00    +0.000 A 
ATOM      6  C   UNL     1       2.553   7.783  18.226  0.00  0.00    +0.000 A 
ATOM      7  N   UNL     1       3.600   5.743  17.942  0.00  0.00    +0.000 NA
ATOM      8  C   UNL     1       3.925   4.491  18.342  0.00  0.00    +0.000 A 
ATOM      9  C   UNL     1       3.495   3.942  19.558  0.00  0.00    +0.000 A 
ATOM     10  N   UNL     1       3.837   2.678  19.910  0.00  0.00    +0.000 NA
ATOM     11  C   UNL     1       3.366   2.218  21.076  0.00  0.00    +0.000 A 
ATOM     12  N   UNL     1       2.584   2.892  21.919  0.00  0.00    +0.000 NA
ATOM     13  C   UNL     1       2.261   4.144  21.538  0.00  0.00    +0.000 A 
ATOM     14  C   UNL     1       2.679   4.756  20.355  0.00  0.00    +0.000 A 
ENDROOT
BRANCH   1  16
ATOM     15  O   UNL     1       0.561  10.716  18.949  0.00  0.00    +0.000 OA
ATOM     16  C   UNL     1       1.435  10.023  18.453  0.00  0.00    +0.000 C 
BRANCH  16  17
ATOM     17  O   UNL     1       2.172  10.408  17.392  0.00  0.00    +0.000 OA
ATOM     18  H   UNL     1       3.077  10.718  17.586  0.00  0.00    +0.000 HD
ENDBRANCH  16  17
ENDBRANCH   1  16
BRANCH   8  19
ATOM     19  N   UNL     1       4.726   3.678  17.490  0.00  0.00    +0.000 N 
ATOM     20  H   UNL     1       4.382   2.721  17.503  0.00  0.00    +0.000 HD
BRANCH  19  21
ATOM     21  C   UNL     1       5.463   4.041  16.346  0.00  0.00    +0.000 A 
ATOM     22  C   UNL     1       6.633   4.799  16.501  0.00  0.00    +0.000 A 
ATOM     23  C   UNL     1       7.429   5.141  15.400  0.00  0.00    +0.000 A 
ATOM     24  C   UNL     1       7.057   4.739  14.118  0.00  0.00    +0.000 A 
ATOM     25  C   UNL     1       5.881   4.018  13.946  0.00  0.00    +0.000 A 
ATOM     26 CL   UNL     1       5.406   3.514  12.369  0.00  0.00    +0.000 Cl
ATOM     27  C   UNL     1       5.087   3.688  15.044  0.00  0.00    +0.000 A 
ENDBRANCH  19  21
ENDBRANCH   8  19
TORSDOF 4
ENDMDL
MODEL 2
REMARK VINA RESULT:      -8.6      3.928      6.779
REMARK  Name = 
REMARK  4 active torsions:
REMARK  status: ('A' for Active; 'I' for Inactive)
REMARK    1  A    between atoms: C_2  and  O_3
REMARK    2  A    between atoms: C_2  and  C_4
REMARK    3  A    between atoms: C_11  and  N_12
REMARK    4  A    between atoms: N_12  and  C_13
REMARK                            x       y       z     vdW  Elec       q    Type
REMARK                         _______ _______ _______ _____ _____    ______ ____
ROOT
ATOM      1  C   UNL     1       5.965   5.253  16.423  0.00  0.00    +0.000 A 
ATOM      2  C   UNL     1       5.442   4.012  16.069  0.00  0.00    +0.000 A 
ATOM      3  C   UNL     1       4.318   3.515  16.735  0.00  0.00    +0.000 A 
ATOM      4  C   UNL     1       3.689   4.256  17.767  0.00  0.00    +0.000 A 
ATOM      5  C   UNL     1       4.232   5.509  18.094  0.00  0.00    +0.000 A 
ATOM      6  C   UNL     1       5.343   5.998  17.424  0.00  0.00    +0.000 A 
ATOM      7  N   UNL     1       3.728   6.277  19.052  0.00  0.00    +0.000 NA
ATOM      8  C   UNL     1       2.642   5.872  19.753  0.00  0.00    +0.000 A 
ATOM      9  C   UNL     1       1.993   4.653  19.516  0.00  0.00    +0.000 A 
ATOM     10  N   UNL     1       0.915   4.285  20.252  0.00  0.00    +0.000 NA
ATOM     11  C   UNL     1       0.366   3.094  19.982  0.00  0.00    +0.000 A 
ATOM     12  N   UNL     1       0.790   2.234  19.056  0.00  0.00    +0.000 NA
ATOM     13  C   UNL     1       1.864   2.629  18.343  0.00  0.00    +0.000 A 
ATOM     14  C   UNL     1       2.537   3.841  18.513  0.00  0.00    +0.000 A 
ENDROOT
BRANCH   1  16
ATOM     15  O   UNL     1       7.481   5.309  14.602  0.00  0.00    +0.000 OA
ATOM     16  C   UNL     1       7.140   5.766  15.681  0.00  0.00    +0.000 C 
BRANCH  16  17
ATOM     17  O   UNL     1       7.822   6.737  16.323  0.00  0.00    +0.000 OA
ATOM     18  H   UNL     1       8.740   6.883  16.029  0.00  0.00    +0.000 HD
ENDBRANCH  16  17
ENDBRANCH   1  16
BRANCH   8  19
ATOM     19  N   UNL     1       2.137   6.706  20.791  0.00  0.00    +0.000 N 
ATOM     20  H   UNL     1       2.683   6.570  21.638  0.00  0.00    +0.000 HD
BRANCH  19  21
ATOM     21  C   UNL     1       1.462   7.939  20.695  0.00  0.00    +0.000 A 
ATOM     22  C   UNL     1       1.447   8.614  19.465  0.00  0.00    +0.000 A 
ATOM     23  C   UNL     1       0.746   9.816  19.306  0.00  0.00    +0.000 A 
ATOM     24  C   UNL     1       0.059  10.372  20.383  0.00  0.00    +0.000 A 
ATOM     25  C   UNL     1       0.095   9.732  21.615  0.00  0.00    +0.000 A 
ATOM     26 CL   UNL     1      -0.749  10.405  22.957  0.00  0.00    +0.000 Cl
ATOM     27  C   UNL     1       0.801   8.540  21.773  0.00  0.00    +0.000 A 
ENDBRANCH  19  21
ENDBRANCH   8  19
TORSDOF 4
ENDMDL
MODEL 3
REMARK VINA RESULT:      -8.3      3.859      6.624
REMARK  Name = 
REMARK  4 active torsions:
REMARK  status: ('A' for Active; 'I' for Inactive)
REMARK    1  A    between atoms: C_2  and  O_3
REMARK    2  A    between atoms: C_2  and  C_4
REMARK    3  A    between atoms: C_11  and  N_12
REMARK    4  A    between atoms: N_12  and  C_13
REMARK                            x       y       z     vdW  Elec       q    Type
REMARK                         _______ _______ _______ _____ _____    ______ ____
ROOT
ATOM      1  C   UNL     1       5.803   4.649  15.806  0.00  0.00    +0.000 A 
ATOM      2  C   UNL     1       5.355   3.336  15.937  0.00  0.00    +0.000 A 
ATOM      3  C   UNL     1       4.388   3.025  16.896  0.00  0.00    +0.000 A 
ATOM      4  C   UNL     1       3.843   4.023  17.742  0.00  0.00    +0.000 A 
ATOM      5  C   UNL     1       4.306   5.339  17.579  0.00  0.00    +0.000 A 
ATOM      6  C   UNL     1       5.260   5.642  16.620  0.00  0.00    +0.000 A 
ATOM      7  N   UNL     1       3.871   6.346  18.327  0.00  0.00    +0.000 NA
ATOM      8  C   UNL     1       2.938   6.133  19.285  0.00  0.00    +0.000 A 
ATOM      9  C   UNL     1       2.380   4.873  19.540  0.00  0.00    +0.000 A 
ATOM     10  N   UNL     1       1.456   4.707  20.518  0.00  0.00    +0.000 NA
ATOM     11  C   UNL     1       0.989   3.468  20.716  0.00  0.00    +0.000 A 
ATOM     12  N   UNL     1       1.358   2.380  20.039  0.00  0.00    +0.000 NA
ATOM     13  C   UNL     1       2.279   2.579  19.075  0.00  0.00    +0.000 A 
ATOM     14  C   UNL     1       2.852   3.812  18.756  0.00  0.00    +0.000 A 
ENDROOT
BRANCH   1  16
ATOM     15  O   UNL     1       7.737   5.723  14.958  0.00  0.00    +0.000 OA
ATOM     16  C   UNL     1       6.808   4.955  14.762  0.00  0.00    +0.000 C 
BRANCH  16  17
ATOM     17  O   UNL     1       6.578   4.357  13.576  0.00  0.00    +0.000 OA
ATOM     18  H   UNL     1       6.956   3.465  13.464  0.00  0.00    +0.000 HD
ENDBRANCH  16  17
ENDBRANCH   1  16
BRANCH   8  19
ATOM     19  N   UNL     1       2.508   7.227  20.088  0.00  0.00    +0.000 N 
ATOM     20  H   UNL     1       3.183   7.398  20.828  0.00  0.00    +0.000 HD
BRANCH  19  21
ATOM     21  C   UNL     1       1.701   8.328  19.736  0.00  0.00    +0.000 A 
ATOM     22  C   UNL     1       1.643   8.729  18.393  0.00  0.00    +0.000 A 
ATOM     23  C   UNL     1       0.816   9.783  17.985  0.00  0.00    +0.000 A 
ATOM     24  C   UNL     1       0.042  10.467  18.922  0.00  0.00    +0.000 A 
ATOM     25  C   UNL     1       0.118  10.103  20.261  0.00  0.00    +0.000 A 
ATOM     26 CL   UNL     1      -0.830  10.937  21.432  0.00  0.00    +0.000 Cl
ATOM     27  C   UNL     1       0.949   9.059  20.664  0.00  0.00    +0.000 A 
ENDBRANCH  19  21
ENDBRANCH   8  19
TORSDOF 4
ENDMDL
MODEL 4
REMARK VINA RESULT:      -8.3      3.495      6.565
REMARK  Name = 
REMARK  4 active torsions:
REMARK  status: ('A' for Active; 'I' for Inactive)
REMARK    1  A    between atoms: C_2  and  O_3
REMARK    2  A    between atoms: C_2  and  C_4
REMARK    3  A    between atoms: C_11  and  N_12
REMARK    4  A    between atoms: N_12  and  C_13
REMARK                            x       y       z     vdW  Elec       q    Type
REMARK                         _______ _______ _______ _____ _____    ______ ____
ROOT
ATOM      1  C   UNL     1       5.952   5.246  16.413  0.00  0.00    +0.000 A 
ATOM      2  C   UNL     1       5.419   4.011  16.050  0.00  0.00    +0.000 A 
ATOM      3  C   UNL     1       4.292   3.519  16.714  0.00  0.00    +0.000 A 
ATOM      4  C   UNL     1       3.670   4.257  17.753  0.00  0.00    +0.000 A 
ATOM      5  C   UNL     1       4.224   5.502  18.089  0.00  0.00    +0.000 A 
ATOM      6  C   UNL     1       5.338   5.988  17.421  0.00  0.00    +0.000 A 
ATOM      7  N   UNL     1       3.727   6.267  19.054  0.00  0.00    +0.000 NA
ATOM      8  C   UNL     1       2.639   5.865  19.753  0.00  0.00    +0.000 A 
ATOM      9  C   UNL     1       1.979   4.653  19.508  0.00  0.00    +0.000 A 
ATOM     10  N   UNL     1       0.899   4.288  20.242  0.00  0.00    +0.000 NA
ATOM     11  C   UNL     1       0.340   3.104  19.963  0.00  0.00    +0.000 A 
ATOM     12  N   UNL     1       0.757   2.248  19.029  0.00  0.00    +0.000 NA
ATOM     13  C   UNL     1       1.833   2.640  18.319  0.00  0.00    +0.000 A 
ATOM     14  C   UNL     1       2.516   3.845  18.497  0.00  0.00    +0.000 A 
ENDROOT
BRANCH   1  16
ATOM     15  O   UNL     1       7.464   5.306  14.589  0.00  0.00    +0.000 OA
ATOM     16  C   UNL     1       7.131   5.755  15.674  0.00  0.00    +0.000 C 
BRANCH  16  17
ATOM     17  O   UNL     1       7.823   6.712  16.325  0.00  0.00    +0.000 OA
ATOM     18  H   UNL     1       8.463   7.218  15.790  0.00  0.00    +0.000 HD
ENDBRANCH  16  17
ENDBRANCH   1  16
BRANCH   8  19
ATOM     19  N   UNL     1       2.142   6.694  20.798  0.00  0.00    +0.000 N 
ATOM     20  H   UNL     1       2.745   6.619  21.614  0.00  0.00    +0.000 HD
BRANCH  19  21
ATOM     21  C   UNL     1       1.382   7.878  20.713  0.00  0.00    +0.000 A 
ATOM     22  C   UNL     1       0.393   8.124  21.677  0.00  0.00    +0.000 A 
ATOM     23  C   UNL     1      -0.352   9.309  21.666  0.00  0.00    +0.000 A 
ATOM     24  C   UNL     1      -0.130  10.265  20.677  0.00  0.00    +0.000 A 
ATOM     25  C   UNL     1       0.822  10.019  19.695  0.00  0.00    +0.000 A 
ATOM     26 CL   UNL     1       1.109  11.188  18.464  0.00  0.00    +0.000 Cl
ATOM     27  C   UNL     1       1.555   8.833  19.704  0.00  0.00    +0.000 A 
ENDBRANCH  19  21
ENDBRANCH   8  19
TORSDOF 4
ENDMDL
MODEL 5
REMARK VINA RESULT:      -7.7      4.121      7.207
REMARK  Name = 
REMARK  4 active torsions:
REMARK  status: ('A' for Active; 'I' for Inactive)
REMARK    1  A    between atoms: C_2  and  O_3
REMARK    2  A    between atoms: C_2  and  C_4
REMARK    3  A    between atoms: C_11  and  N_12
REMARK    4  A    between atoms: N_12  and  C_13
REMARK                            x       y       z     vdW  Elec       q    Type
REMARK                         _______ _______ _______ _____ _____    ______ ____
ROOT
ATOM      1  C   UNL     1       5.876   3.700  13.351  0.00  0.00    +0.000 A 
ATOM      2  C   UNL     1       6.817   4.727  13.373  0.00  0.00    +0.000 A 
ATOM      3  C   UNL     1       7.203   5.289  14.593  0.00  0.00    +0.000 A 
ATOM      4  C   UNL     1       6.660   4.829  15.819  0.00  0.00    +0.000 A 
ATOM      5  C   UNL     1       5.722   3.786  15.765  0.00  0.00    +0.000 A 
ATOM      6  C   UNL     1       5.349   3.228  14.552  0.00  0.00    +0.000 A 
ATOM      7  N   UNL     1       5.143   3.290  16.852  0.00  0.00    +0.000 NA
ATOM      8  C   UNL     1       5.454   3.779  18.076  0.00  0.00    +0.000 A 
ATOM      9  C   UNL     1       6.386   4.807  18.273  0.00  0.00    +0.000 A 
ATOM     10  N   UNL     1       6.657   5.272  19.517  0.00  0.00    +0.000 NA
ATOM     11  C   UNL     1       7.541   6.272  19.619  0.00  0.00    +0.000 A 
ATOM     12  N   UNL     1       8.174   6.857  18.602  0.00  0.00    +0.000 NA
ATOM     13  C   UNL     1       7.881   6.373  17.379  0.00  0.00    +0.000 A 
ATOM     14  C   UNL     1       6.985   5.335  17.121  0.00  0.00    +0.000 A 
ENDROOT
BRANCH   1  16
ATOM     15  O   UNL     1       4.559   3.510  11.390  0.00  0.00    +0.000 OA
ATOM     16  C   UNL     1       5.505   3.105  12.046  0.00  0.00    +0.000 C 
BRANCH  16  17
ATOM     17  O   UNL     1       6.267   2.055  11.677  0.00  0.00    +0.000 OA
ATOM     18  H   UNL     1       5.788   1.244  11.424  0.00  0.00    +0.000 HD
ENDBRANCH  16  17
ENDBRANCH   1  16
BRANCH   8  19
ATOM     19  N   UNL     1       4.800   3.244  19.222  0.00  0.00    +0.000 N 
ATOM     20  H   UNL     1       5.492   2.955  19.910  0.00  0.00    +0.000 HD
BRANCH  19  21
ATOM     21  C   UNL     1       3.520   3.533  19.735  0.00  0.00    +0.000 A 
ATOM     22  C   UNL     1       2.647   2.474  20.025  0.00  0.00    +0.000 A 
ATOM     23  C   UNL     1       1.384   2.706  20.585  0.00  0.00    +0.000 A 
ATOM     24  C   UNL     1       0.967   4.009  20.851  0.00  0.00    +0.000 A 
ATOM     25  C   UNL     1       1.808   5.070  20.535  0.00  0.00    +0.000 A 
ATOM     26 CL   UNL     1       1.308   6.686  20.856  0.00  0.00    +0.000 Cl
ATOM     27  C   UNL     1       3.060   4.835  19.969  0.00  0.00    +0.000 A 
ENDBRANCH  19  21
ENDBRANCH   8  19
TORSDOF 4
ENDMDL
MODEL 6
REMARK VINA RESULT:      -7.7      3.678      6.779
REMARK  Name = 
REMARK  4 active torsions:
REMARK  status: ('A' for Active; 'I' for Inactive)
REMARK    1  A    between atoms: C_2  and  O_3
REMARK    2  A    between atoms: C_2  and  C_4
REMARK    3  A    between atoms: C_11  and  N_12
REMARK    4  A    between atoms: N_12  and  C_13
REMARK                            x       y       z     vdW  Elec       q    Type
REMARK                         _______ _______ _______ _____ _____    ______ ____
ROOT
ATOM      1  C   UNL     1       5.793   4.842  15.519  0.00  0.00    +0.000 A 
ATOM      2  C   UNL     1       5.477   3.732  16.297  0.00  0.00    +0.000 A 
ATOM      3  C   UNL     1       4.617   3.872  17.391  0.00  0.00    +0.000 A 
ATOM      4  C   UNL     1       4.050   5.128  17.723  0.00  0.00    +0.000 A 
ATOM      5  C   UNL     1       4.379   6.226  16.914  0.00  0.00    +0.000 A 
ATOM      6  C   UNL     1       5.227   6.078  15.827  0.00  0.00    +0.000 A 
ATOM      7  N   UNL     1       3.914   7.448  17.145  0.00  0.00    +0.000 NA
ATOM      8  C   UNL     1       3.079   7.676  18.187  0.00  0.00    +0.000 A 
ATOM      9  C   UNL     1       2.657   6.666  19.061  0.00  0.00    +0.000 A 
ATOM     10  N   UNL     1       1.828   6.944  20.098  0.00  0.00    +0.000 NA
ATOM     11  C   UNL     1       1.491   5.929  20.903  0.00  0.00    +0.000 A 
ATOM     12  N   UNL     1       1.904   4.667  20.779  0.00  0.00    +0.000 NA
ATOM     13  C   UNL     1       2.727   4.425  19.740  0.00  0.00    +0.000 A 
ATOM     14  C   UNL     1       3.161   5.381  18.820  0.00  0.00    +0.000 A 
ENDROOT
BRANCH   1  16
ATOM     15  O   UNL     1       7.592   5.435  14.095  0.00  0.00    +0.000 OA
ATOM     16  C   UNL     1       6.686   4.659  14.351  0.00  0.00    +0.000 C 
BRANCH  16  17
ATOM     17  O   UNL     1       6.377   3.600  13.576  0.00  0.00    +0.000 OA
ATOM     18  H   UNL     1       6.597   2.722  13.940  0.00  0.00    +0.000 HD
ENDBRANCH  16  17
ENDBRANCH   1  16
BRANCH   8  19
ATOM     19  N   UNL     1       2.614   9.000  18.425  0.00  0.00    +0.000 N 
ATOM     20  H   UNL     1       3.270   9.672  18.033  0.00  0.00    +0.000 HD
BRANCH  19  21
ATOM     21  C   UNL     1       1.295   9.467  18.587  0.00  0.00    +0.000 A 
ATOM     22  C   UNL     1       0.925  10.055  19.806  0.00  0.00    +0.000 A 
ATOM     23  C   UNL     1      -0.359  10.582  19.999  0.00  0.00    +0.000 A 
ATOM     24  C   UNL     1      -1.302  10.513  18.975  0.00  0.00    +0.000 A 
ATOM     25  C   UNL     1      -0.961   9.901  17.776  0.00  0.00    +0.000 A 
ATOM     26 CL   UNL     1      -2.114   9.807  16.501  0.00  0.00    +0.000 Cl
ATOM     27  C   UNL     1       0.315   9.370  17.591  0.00  0.00    +0.000 A 
ENDBRANCH  19  21
ENDBRANCH   8  19
TORSDOF 4
ENDMDL
MODEL 7
REMARK VINA RESULT:      -7.6      1.144      1.513
REMARK  Name = 
REMARK  4 active torsions:
REMARK  status: ('A' for Active; 'I' for Inactive)
REMARK    1  A    between atoms: C_2  and  O_3
REMARK    2  A    between atoms: C_2  and  C_4
REMARK    3  A    between atoms: C_11  and  N_12
REMARK    4  A    between atoms: N_12  and  C_13
REMARK                            x       y       z     vdW  Elec       q    Type
REMARK                         _______ _______ _______ _____ _____    ______ ____
ROOT
ATOM      1  C   UNL     1       1.984   8.524  18.666  0.00  0.00    +0.000 A 
ATOM      2  C   UNL     1       1.345   7.876  19.720  0.00  0.00    +0.000 A 
ATOM      3  C   UNL     1       1.765   6.601  20.110  0.00  0.00    +0.000 A 
ATOM      4  C   UNL     1       2.841   5.950  19.454  0.00  0.00    +0.000 A 
ATOM      5  C   UNL     1       3.473   6.632  18.403  0.00  0.00    +0.000 A 
ATOM      6  C   UNL     1       3.055   7.900  18.027  0.00  0.00    +0.000 A 
ATOM      7  N   UNL     1       4.480   6.108  17.715  0.00  0.00    +0.000 NA
ATOM      8  C   UNL     1       4.948   4.875  18.021  0.00  0.00    +0.000 A 
ATOM      9  C   UNL     1       4.420   4.094  19.058  0.00  0.00    +0.000 A 
ATOM     10  N   UNL     1       4.915   2.859  19.320  0.00  0.00    +0.000 NA
ATOM     11  C   UNL     1       4.341   2.166  20.310  0.00  0.00    +0.000 A 
ATOM     12  N   UNL     1       3.318   2.581  21.059  0.00  0.00    +0.000 NA
ATOM     13  C   UNL     1       2.849   3.811  20.772  0.00  0.00    +0.000 A 
ATOM     14  C   UNL     1       3.349   4.647  19.772  0.00  0.00    +0.000 A 
ENDROOT
BRANCH   1  16
ATOM     15  O   UNL     1       0.631  10.457  18.880  0.00  0.00    +0.000 OA
ATOM     16  C   UNL     1       1.536   9.885  18.293  0.00  0.00    +0.000 C 
BRANCH  16  17
ATOM     17  O   UNL     1       2.174  10.408  17.227  0.00  0.00    +0.000 OA
ATOM     18  H   UNL     1       1.796  10.197  16.353  0.00  0.00    +0.000 HD
ENDBRANCH  16  17
ENDBRANCH   1  16
BRANCH   8  19
ATOM     19  N   UNL     1       6.014   4.328  17.252  0.00  0.00    +0.000 N 
ATOM     20  H   UNL     1       6.447   3.560  17.759  0.00  0.00    +0.000 HD
BRANCH  19  21
ATOM     21  C   UNL     1       6.182   4.302  15.853  0.00  0.00    +0.000 A 
ATOM     22  C   UNL     1       5.248   3.612  15.067  0.00  0.00    +0.000 A 
ATOM     23  C   UNL     1       5.342   3.601  13.669  0.00  0.00    +0.000 A 
ATOM     24  C   UNL     1       6.386   4.271  13.034  0.00  0.00    +0.000 A 
ATOM     25  C   UNL     1       7.338   4.929  13.802  0.00  0.00    +0.000 A 
ATOM     26 CL   UNL     1       8.636   5.761  13.034  0.00  0.00    +0.000 Cl
ATOM     27  C   UNL     1       7.247   4.930  15.194  0.00  0.00    +0.000 A 
ENDBRANCH  19  21
ENDBRANCH   8  19
TORSDOF 4
ENDMDL
MODEL 8
REMARK VINA RESULT:      -7.5      4.037      6.998
REMARK  Name = 
REMARK  4 active torsions:
REMARK  status: ('A' for Active; 'I' for Inactive)
REMARK    1  A    between atoms: C_2  and  O_3
REMARK    2  A    between atoms: C_2  and  C_4
REMARK    3  A    between atoms: C_11  and  N_12
REMARK    4  A    between atoms: N_12  and  C_13
REMARK                            x       y       z     vdW  Elec       q    Type
REMARK                         _______ _______ _______ _____ _____    ______ ____
ROOT
ATOM      1  C   UNL     1       5.731   4.908  15.468  0.00  0.00    +0.000 A 
ATOM      2  C   UNL     1       5.414   3.777  16.216  0.00  0.00    +0.000 A 
ATOM      3  C   UNL     1       4.568   3.891  17.323  0.00  0.00    +0.000 A 
ATOM      4  C   UNL     1       4.016   5.141  17.701  0.00  0.00    +0.000 A 
ATOM      5  C   UNL     1       4.346   6.261  16.921  0.00  0.00    +0.000 A 
ATOM      6  C   UNL     1       5.180   6.139  15.820  0.00  0.00    +0.000 A 
ATOM      7  N   UNL     1       3.894   7.479  17.195  0.00  0.00    +0.000 NA
ATOM      8  C   UNL     1       3.073   7.682  18.253  0.00  0.00    +0.000 A 
ATOM      9  C   UNL     1       2.652   6.649  19.101  0.00  0.00    +0.000 A 
ATOM     10  N   UNL     1       1.838   6.903  20.155  0.00  0.00    +0.000 NA
ATOM     11  C   UNL     1       1.501   5.867  20.933  0.00  0.00    +0.000 A 
ATOM     12  N   UNL     1       1.901   4.606  20.766  0.00  0.00    +0.000 NA
ATOM     13  C   UNL     1       2.711   4.388  19.710  0.00  0.00    +0.000 A 
ATOM     14  C   UNL     1       3.142   5.368  18.815  0.00  0.00    +0.000 A 
ENDROOT
BRANCH   1  16
ATOM     15  O   UNL     1       6.340   3.991  13.370  0.00  0.00    +0.000 OA
ATOM     16  C   UNL     1       6.608   4.753  14.285  0.00  0.00    +0.000 C 
BRANCH  16  17
ATOM     17  O   UNL     1       7.741   5.483  14.333  0.00  0.00    +0.000 OA
ATOM     18  H   UNL     1       8.149   5.701  13.474  0.00  0.00    +0.000 HD
ENDBRANCH  16  17
ENDBRANCH   1  16
BRANCH   8  19
ATOM     19  N   UNL     1       2.623   9.002  18.536  0.00  0.00    +0.000 N 
ATOM     20  H   UNL     1       3.321   9.677  18.235  0.00  0.00    +0.000 HD
BRANCH  19  21
ATOM     21  C   UNL     1       1.306   9.494  18.631  0.00  0.00    +0.000 A 
ATOM     22  C   UNL     1       0.424   9.294  17.558  0.00  0.00    +0.000 A 
ATOM     23  C   UNL     1      -0.909   9.718  17.625  0.00  0.00    +0.000 A 
ATOM     24  C   UNL     1      -1.380  10.365  18.766  0.00  0.00    +0.000 A 
ATOM     25  C   UNL     1      -0.508  10.601  19.822  0.00  0.00    +0.000 A 
ATOM     26 CL   UNL     1      -1.073  11.400  21.239  0.00  0.00    +0.000 Cl
ATOM     27  C   UNL     1       0.821  10.186  19.748  0.00  0.00    +0.000 A 
ENDBRANCH  19  21
ENDBRANCH   8  19
TORSDOF 4
ENDMDL
MODEL 9
REMARK VINA RESULT:      -7.4      5.230      7.755
REMARK  Name = 
REMARK  4 active torsions:
REMARK  status: ('A' for Active; 'I' for Inactive)
REMARK    1  A    between atoms: C_2  and  O_3
REMARK    2  A    between atoms: C_2  and  C_4
REMARK    3  A    between atoms: C_11  and  N_12
REMARK    4  A    between atoms: N_12  and  C_13
REMARK                            x       y       z     vdW  Elec       q    Type
REMARK                         _______ _______ _______ _____ _____    ______ ____
ROOT
ATOM      1  C   UNL     1      -3.203  10.346  15.439  0.00  0.00    +0.000 A 
ATOM      2  C   UNL     1      -4.084  11.207  16.088  0.00  0.00    +0.000 A 
ATOM      3  C   UNL     1      -3.803  11.642  17.386  0.00  0.00    +0.000 A 
ATOM      4  C   UNL     1      -2.626  11.228  18.060  0.00  0.00    +0.000 A 
ATOM      5  C   UNL     1      -1.751  10.369  17.377  0.00  0.00    +0.000 A 
ATOM      6  C   UNL     1      -2.034   9.947  16.086  0.00  0.00    +0.000 A 
ATOM      7  N   UNL     1      -0.630   9.912  17.921  0.00  0.00    +0.000 NA
ATOM      8  C   UNL     1      -0.281  10.278  19.177  0.00  0.00    +0.000 A 
ATOM      9  C   UNL     1      -1.054  11.143  19.962  0.00  0.00    +0.000 A 
ATOM     10  N   UNL     1      -0.669  11.472  21.220  0.00  0.00    +0.000 NA
ATOM     11  C   UNL     1      -1.475  12.285  21.915  0.00  0.00    +0.000 A 
ATOM     12  N   UNL     1      -2.629  12.794  21.481  0.00  0.00    +0.000 NA
ATOM     13  C   UNL     1      -2.983  12.446  20.228  0.00  0.00    +0.000 A 
ATOM     14  C   UNL     1      -2.243  11.612  19.388  0.00  0.00    +0.000 A 
ENDROOT
BRANCH   1  16
ATOM     15  O   UNL     1      -2.643   9.740  13.218  0.00  0.00    +0.000 OA
ATOM     16  C   UNL     1      -3.513   9.923  14.054  0.00  0.00    +0.000 C 
BRANCH  16  17
ATOM     17  O   UNL     1      -4.831   9.809  13.789  0.00  0.00    +0.000 OA
ATOM     18  H   UNL     1      -5.115   8.974  13.375  0.00  0.00    +0.000 HD
ENDBRANCH  16  17
ENDBRANCH   1  16
BRANCH   8  19
ATOM     19  N   UNL     1       0.916   9.754  19.744  0.00  0.00    +0.000 N 
ATOM     20  H   UNL     1       1.006  10.065  20.708  0.00  0.00    +0.000 HD
BRANCH  19  21
ATOM     21  C   UNL     1       1.614   8.574  19.420  0.00  0.00    +0.000 A 
ATOM     22  C   UNL     1       2.345   8.520  18.224  0.00  0.00    +0.000 A 
ATOM     23  C   UNL     1       3.098   7.390  17.883  0.00  0.00    +0.000 A 
ATOM     24  C   UNL     1       3.119   6.283  18.730  0.00  0.00    +0.000 A 
ATOM     25  C   UNL     1       2.370   6.309  19.901  0.00  0.00    +0.000 A 
ATOM     26 CL   UNL     1       2.384   4.950  20.958  0.00  0.00    +0.000 Cl
ATOM     27  C   UNL     1       1.615   7.433  20.232  0.00  0.00    +0.000 A 
ENDBRANCH  19  21
ENDBRANCH   8  19
TORSDOF 4
ENDMDL
