MODEL 1
REMARK VINA RESULT:      -7.8      0.000      0.000
REMARK  Name = 
REMARK  10 active torsions:
REMARK  status: ('A' for Active; 'I' for Inactive)
REMARK    1  A    between atoms: C_1  and  C_2
REMARK    2  A    between atoms: N_4  and  C_5
REMARK    3  A    between atoms: C_5  and  C_6
REMARK    4  A    between atoms: C_5  and  C_7
REMARK    5  A    between atoms: C_5  and  C_8
REMARK    6  A    between atoms: C_9  and  O_10
REMARK    7  A    between atoms: O_10  and  C_11
REMARK    8  A    between atoms: C_11  and  C_13
REMARK    9  A    between atoms: C_22  and  S_23
REMARK   10  A    between atoms: S_23  and  C_24
REMARK                            x       y       z     vdW  Elec       q    Type
REMARK                         _______ _______ _______ _____ _____    ______ ____
ROOT
ATOM      1  C   UNL     1       1.358   8.311  21.118  0.00  0.00    +0.000 C 
ATOM      2  C   UNL     1       1.797   7.215  20.216  0.00  0.00    +0.000 A 
ATOM      3  N   UNL     1       1.742   5.949  20.629  0.00  0.00    +0.000 NA
ATOM      4  N   UNL     1       2.217   5.228  19.586  0.00  0.00    +0.000 N 
ATOM      5  C   UNL     1       2.784   6.027  18.599  0.00  0.00    +0.000 A 
ATOM      6  C   UNL     1       2.341   7.309  18.915  0.00  0.00    +0.000 A 
ENDROOT
BRANCH   4   7
ATOM      7  C   UNL     1       2.028   3.762  19.598  0.00  0.00    +0.000 C 
ATOM      8  C   UNL     1       3.386   3.024  19.742  0.00  0.00    +0.000 C 
ATOM      9  C   UNL     1       1.158   3.360  20.806  0.00  0.00    +0.000 C 
ATOM     10  C   UNL     1       1.376   3.241  18.306  0.00  0.00    +0.000 C 
ENDBRANCH   4   7
BRANCH   5  11
ATOM     11  O   UNL     1       3.557   5.471  17.659  0.00  0.00    +0.000 OA
BRANCH  11  12
ATOM     12  C   UNL     1       4.900   5.546  17.766  0.00  0.00    +0.000 C 
ATOM     13  O   UNL     1       5.576   5.798  18.754  0.00  0.00    +0.000 OA
BRANCH  12  14
ATOM     14  C   UNL     1       5.620   5.170  16.528  0.00  0.00    +0.000 A 
ATOM     15  C   UNL     1       6.979   5.440  16.286  0.00  0.00    +0.000 A 
ATOM     16  C   UNL     1       7.553   5.113  15.047  0.00  0.00    +0.000 A 
ATOM     17  C   UNL     1       6.747   4.512  14.098  0.00  0.00    +0.000 A 
ATOM     18  C   UNL     1       5.424   4.242  14.337  0.00  0.00    +0.000 A 
ATOM     19  C   UNL     1       4.834   4.560  15.533  0.00  0.00    +0.000 A 
ATOM     20  O   UNL     1       4.798   3.660  13.286  0.00  0.00    +0.000 OA
ATOM     21  C   UNL     1       5.880   3.589  12.341  0.00  0.00    +0.000 C 
ATOM     22  O   UNL     1       7.121   4.123  12.853  0.00  0.00    +0.000 OA
ENDBRANCH  12  14
ENDBRANCH  11  12
ENDBRANCH   5  11
BRANCH   6  23
ATOM     23  S   UNL     1       2.554   8.833  18.106  0.00  0.00    +0.000 S 
BRANCH  23  24
ATOM     24  C   UNL     1       1.062   9.778  18.273  0.00  0.00    +0.000 A 
ATOM     25  C   UNL     1       1.248  11.053  18.834  0.00  0.00    +0.000 A 
ATOM     26  C   UNL     1       0.184  11.938  18.985  0.00  0.00    +0.000 A 
ATOM     27  C   UNL     1      -1.085  11.567  18.571  0.00  0.00    +0.000 A 
ATOM     28  C   UNL     1      -1.289  10.302  18.007  0.00  0.00    +0.000 A 
ATOM     29  C   UNL     1      -0.220   9.409  17.859  0.00  0.00    +0.000 A 
ENDBRANCH  23  24
ENDBRANCH   6  23
TORSDOF 6
ENDMDL
MODEL 2
REMARK VINA RESULT:      -7.6      0.388      1.267
REMARK  Name = 
REMARK  10 active torsions:
REMARK  status: ('A' for Active; 'I' for Inactive)
REMARK    1  A    between atoms: C_1  and  C_2
REMARK    2  A    between atoms: N_4  and  C_5
REMARK    3  A    between atoms: C_5  and  C_6
REMARK    4  A    between atoms: C_5  and  C_7
REMARK    5  A    between atoms: C_5  and  C_8
REMARK    6  A    between atoms: C_9  and  O_10
REMARK    7  A    between atoms: O_10  and  C_11
REMARK    8  A    between atoms: C_11  and  C_13
REMARK    9  A    between atoms: C_22  and  S_23
REMARK   10  A    between atoms: S_23  and  C_24
REMARK                            x       y       z     vdW  Elec       q    Type
REMARK                         _______ _______ _______ _____ _____    ______ ____
ROOT
ATOM      1  C   UNL     1       1.286   8.416  21.308  0.00  0.00    +0.000 C 
ATOM      2  C   UNL     1       1.733   7.404  20.315  0.00  0.00    +0.000 A 
ATOM      3  N   UNL     1       1.708   6.108  20.626  0.00  0.00    +0.000 NA
ATOM      4  N   UNL     1       2.183   5.484  19.522  0.00  0.00    +0.000 N 
ATOM      5  C   UNL     1       2.722   6.370  18.596  0.00  0.00    +0.000 A 
ATOM      6  C   UNL     1       2.258   7.613  19.019  0.00  0.00    +0.000 A 
ENDROOT
BRANCH   4   7
ATOM      7  C   UNL     1       2.023   4.017  19.419  0.00  0.00    +0.000 C 
ATOM      8  C   UNL     1       0.884   3.511  20.344  0.00  0.00    +0.000 C 
ATOM      9  C   UNL     1       1.641   3.638  17.974  0.00  0.00    +0.000 C 
ATOM     10  C   UNL     1       3.296   3.256  19.824  0.00  0.00    +0.000 C 
ENDBRANCH   4   7
BRANCH   5  11
ATOM     11  O   UNL     1       3.492   5.907  17.606  0.00  0.00    +0.000 OA
BRANCH  11  12
ATOM     12  C   UNL     1       4.809   5.708  17.819  0.00  0.00    +0.000 C 
ATOM     13  O   UNL     1       5.427   5.741  18.874  0.00  0.00    +0.000 OA
BRANCH  12  14
ATOM     14  C   UNL     1       5.556   5.303  16.607  0.00  0.00    +0.000 A 
ATOM     15  C   UNL     1       6.912   5.599  16.372  0.00  0.00    +0.000 A 
ATOM     16  C   UNL     1       7.511   5.238  15.155  0.00  0.00    +0.000 A 
ATOM     17  C   UNL     1       6.735   4.578  14.221  0.00  0.00    +0.000 A 
ATOM     18  C   UNL     1       5.416   4.283  14.453  0.00  0.00    +0.000 A 
ATOM     19  C   UNL     1       4.801   4.633  15.627  0.00  0.00    +0.000 A 
ATOM     20  O   UNL     1       4.820   3.643  13.418  0.00  0.00    +0.000 OA
ATOM     21  C   UNL     1       5.918   3.563  12.491  0.00  0.00    +0.000 C 
ATOM     22  O   UNL     1       7.137   4.149  12.997  0.00  0.00    +0.000 OA
ENDBRANCH  12  14
ENDBRANCH  11  12
ENDBRANCH   5  11
BRANCH   6  23
ATOM     23  S   UNL     1       2.431   9.202  18.333  0.00  0.00    +0.000 S 
BRANCH  23  24
ATOM     24  C   UNL     1       0.899  10.075  18.532  0.00  0.00    +0.000 A 
ATOM     25  C   UNL     1      -0.171   9.533  17.799  0.00  0.00    +0.000 A 
ATOM     26  C   UNL     1      -1.452  10.072  17.886  0.00  0.00    +0.000 A 
ATOM     27  C   UNL     1      -1.689  11.156  18.715  0.00  0.00    +0.000 A 
ATOM     28  C   UNL     1      -0.636  11.707  19.455  0.00  0.00    +0.000 A 
ATOM     29  C   UNL     1       0.654  11.170  19.364  0.00  0.00    +0.000 A 
ENDBRANCH  23  24
ENDBRANCH   6  23
TORSDOF 6
ENDMDL
MODEL 3
REMARK VINA RESULT:      -7.5      2.783      7.016
REMARK  Name = 
REMARK  10 active torsions:
REMARK  status: ('A' for Active; 'I' for Inactive)
REMARK    1  A    between atoms: C_1  and  C_2
REMARK    2  A    between atoms: N_4  and  C_5
REMARK    3  A    between atoms: C_5  and  C_6
REMARK    4  A    between atoms: C_5  and  C_7
REMARK    5  A    between atoms: C_5  and  C_8
REMARK    6  A    between atoms: C_9  and  O_10
REMARK    7  A    between atoms: O_10  and  C_11
REMARK    8  A    between atoms: C_11  and  C_13
REMARK    9  A    between atoms: C_22  and  S_23
REMARK   10  A    between atoms: S_23  and  C_24
REMARK                            x       y       z     vdW  Elec       q    Type
REMARK                         _______ _______ _______ _____ _____    ______ ____
ROOT
ATOM      1  C   UNL     1       6.162   3.940  15.069  0.00  0.00    +0.000 C 
ATOM      2  C   UNL     1       5.144   4.075  16.144  0.00  0.00    +0.000 A 
ATOM      3  N   UNL     1       4.580   2.987  16.668  0.00  0.00    +0.000 NA
ATOM      4  N   UNL     1       3.711   3.464  17.591  0.00  0.00    +0.000 N 
ATOM      5  C   UNL     1       3.546   4.842  17.507  0.00  0.00    +0.000 A 
ATOM      6  C   UNL     1       4.610   5.255  16.709  0.00  0.00    +0.000 A 
ENDROOT
BRANCH   4   7
ATOM      7  C   UNL     1       3.122   2.516  18.561  0.00  0.00    +0.000 C 
ATOM      8  C   UNL     1       3.583   1.062  18.274  0.00  0.00    +0.000 C 
ATOM      9  C   UNL     1       3.592   2.873  19.986  0.00  0.00    +0.000 C 
ATOM     10  C   UNL     1       1.585   2.511  18.520  0.00  0.00    +0.000 C 
ENDBRANCH   4   7
BRANCH   5  11
ATOM     11  O   UNL     1       2.517   5.426  18.131  0.00  0.00    +0.000 OA
BRANCH  11  12
ATOM     12  C   UNL     1       2.743   6.211  19.204  0.00  0.00    +0.000 C 
ATOM     13  O   UNL     1       3.445   5.989  20.181  0.00  0.00    +0.000 OA
BRANCH  12  14
ATOM     14  C   UNL     1       2.120   7.551  19.106  0.00  0.00    +0.000 A 
ATOM     15  C   UNL     1       2.110   8.340  17.941  0.00  0.00    +0.000 A 
ATOM     16  C   UNL     1       1.561   9.632  17.970  0.00  0.00    +0.000 A 
ATOM     17  C   UNL     1       1.029  10.083  19.163  0.00  0.00    +0.000 A 
ATOM     18  C   UNL     1       1.032   9.312  20.296  0.00  0.00    +0.000 A 
ATOM     19  C   UNL     1       1.570   8.051  20.300  0.00  0.00    +0.000 A 
ATOM     20  O   UNL     1       0.474   9.928  21.366  0.00  0.00    +0.000 OA
ATOM     21  C   UNL     1       0.112  11.192  20.781  0.00  0.00    +0.000 C 
ATOM     22  O   UNL     1       0.456  11.294  19.383  0.00  0.00    +0.000 OA
ENDBRANCH  12  14
ENDBRANCH  11  12
ENDBRANCH   5  11
BRANCH   6  23
ATOM     23  S   UNL     1       5.135   6.839  16.218  0.00  0.00    +0.000 S 
BRANCH  23  24
ATOM     24  C   UNL     1       6.487   7.334  17.255  0.00  0.00    +0.000 A 
ATOM     25  C   UNL     1       6.956   6.322  18.111  0.00  0.00    +0.000 A 
ATOM     26  C   UNL     1       8.045   6.535  18.952  0.00  0.00    +0.000 A 
ATOM     27  C   UNL     1       8.692   7.759  18.946  0.00  0.00    +0.000 A 
ATOM     28  C   UNL     1       8.242   8.777  18.097  0.00  0.00    +0.000 A 
ATOM     29  C   UNL     1       7.143   8.567  17.255  0.00  0.00    +0.000 A 
ENDBRANCH  23  24
ENDBRANCH   6  23
TORSDOF 6
ENDMDL
MODEL 4
REMARK VINA RESULT:      -7.3      0.756      1.578
REMARK  Name = 
REMARK  10 active torsions:
REMARK  status: ('A' for Active; 'I' for Inactive)
REMARK    1  A    between atoms: C_1  and  C_2
REMARK    2  A    between atoms: N_4  and  C_5
REMARK    3  A    between atoms: C_5  and  C_6
REMARK    4  A    between atoms: C_5  and  C_7
REMARK    5  A    between atoms: C_5  and  C_8
REMARK    6  A    between atoms: C_9  and  O_10
REMARK    7  A    between atoms: O_10  and  C_11
REMARK    8  A    between atoms: C_11  and  C_13
REMARK    9  A    between atoms: C_22  and  S_23
REMARK   10  A    between atoms: S_23  and  C_24
REMARK                            x       y       z     vdW  Elec       q    Type
REMARK                         _______ _______ _______ _____ _____    ______ ____
ROOT
ATOM      1  C   UNL     1       1.769   8.211  20.986  0.00  0.00    +0.000 C 
ATOM      2  C   UNL     1       2.032   7.043  20.106  0.00  0.00    +0.000 A 
ATOM      3  N   UNL     1       1.946   5.806  20.597  0.00  0.00    +0.000 NA
ATOM      4  N   UNL     1       2.252   5.002  19.551  0.00  0.00    +0.000 N 
ATOM      5  C   UNL     1       2.752   5.709  18.462  0.00  0.00    +0.000 A 
ATOM      6  C   UNL     1       2.428   7.032  18.750  0.00  0.00    +0.000 A 
ENDROOT
BRANCH   4   7
ATOM      7  C   UNL     1       1.975   3.555  19.669  0.00  0.00    +0.000 C 
ATOM      8  C   UNL     1       1.390   2.987  18.348  0.00  0.00    +0.000 C 
ATOM      9  C   UNL     1       3.288   2.796  19.952  0.00  0.00    +0.000 C 
ATOM     10  C   UNL     1       0.958   3.239  20.777  0.00  0.00    +0.000 C 
ENDBRANCH   4   7
BRANCH   5  11
ATOM     11  O   UNL     1       3.375   5.054  17.476  0.00  0.00    +0.000 OA
BRANCH  11  12
ATOM     12  C   UNL     1       4.722   5.078  17.405  0.00  0.00    +0.000 C 
ATOM     13  O   UNL     1       5.536   5.182  18.313  0.00  0.00    +0.000 OA
BRANCH  12  14
ATOM     14  C   UNL     1       5.253   4.846  16.042  0.00  0.00    +0.000 A 
ATOM     15  C   UNL     1       4.648   4.009  15.085  0.00  0.00    +0.000 A 
ATOM     16  C   UNL     1       5.271   3.793  13.845  0.00  0.00    +0.000 A 
ATOM     17  C   UNL     1       6.471   4.434  13.602  0.00  0.00    +0.000 A 
ATOM     18  C   UNL     1       7.056   5.255  14.532  0.00  0.00    +0.000 A 
ATOM     19  C   UNL     1       6.477   5.476  15.754  0.00  0.00    +0.000 A 
ATOM     20  O   UNL     1       8.231   5.785  14.114  0.00  0.00    +0.000 OA
ATOM     21  C   UNL     1       8.330   5.203  12.802  0.00  0.00    +0.000 C 
ATOM     22  O   UNL     1       7.214   4.350  12.469  0.00  0.00    +0.000 OA
ENDBRANCH  12  14
ENDBRANCH  11  12
ENDBRANCH   5  11
BRANCH   6  23
ATOM     23  S   UNL     1       2.642   8.496  17.834  0.00  0.00    +0.000 S 
BRANCH  23  24
ATOM     24  C   UNL     1       1.264   9.567  18.149  0.00  0.00    +0.000 A 
ATOM     25  C   UNL     1       1.624  10.857  18.578  0.00  0.00    +0.000 A 
ATOM     26  C   UNL     1       0.660  11.833  18.818  0.00  0.00    +0.000 A 
ATOM     27  C   UNL     1      -0.680  11.542  18.624  0.00  0.00    +0.000 A 
ATOM     28  C   UNL     1      -1.057  10.264  18.193  0.00  0.00    +0.000 A 
ATOM     29  C   UNL     1      -0.090   9.279  17.957  0.00  0.00    +0.000 A 
ENDBRANCH  23  24
ENDBRANCH   6  23
TORSDOF 6
ENDMDL
MODEL 5
REMARK VINA RESULT:      -7.2      0.956      1.543
REMARK  Name = 
REMARK  10 active torsions:
REMARK  status: ('A' for Active; 'I' for Inactive)
REMARK    1  A    between atoms: C_1  and  C_2
REMARK    2  A    between atoms: N_4  and  C_5
REMARK    3  A    between atoms: C_5  and  C_6
REMARK    4  A    between atoms: C_5  and  C_7
REMARK    5  A    between atoms: C_5  and  C_8
REMARK    6  A    between atoms: C_9  and  O_10
REMARK    7  A    between atoms: O_10  and  C_11
REMARK    8  A    between atoms: C_11  and  C_13
REMARK    9  A    between atoms: C_22  and  S_23
REMARK   10  A    between atoms: S_23  and  C_24
REMARK                            x       y       z     vdW  Elec       q    Type
REMARK                         _______ _______ _______ _____ _____    ______ ____
ROOT
ATOM      1  C   UNL     1       1.327   8.770  21.442  0.00  0.00    +0.000 C 
ATOM      2  C   UNL     1       1.685   7.770  20.402  0.00  0.00    +0.000 A 
ATOM      3  N   UNL     1       1.766   6.478  20.720  0.00  0.00    +0.000 NA
ATOM      4  N   UNL     1       2.116   5.864  19.565  0.00  0.00    +0.000 N 
ATOM      5  C   UNL     1       2.481   6.764  18.570  0.00  0.00    +0.000 A 
ATOM      6  C   UNL     1       2.018   7.989  19.046  0.00  0.00    +0.000 A 
ENDROOT
BRANCH   4   7
ATOM      7  C   UNL     1       2.015   4.391  19.492  0.00  0.00    +0.000 C 
ATOM      8  C   UNL     1       1.024   3.843  20.553  0.00  0.00    +0.000 C 
ATOM      9  C   UNL     1       1.479   3.976  18.107  0.00  0.00    +0.000 C 
ATOM     10  C   UNL     1       3.363   3.695  19.743  0.00  0.00    +0.000 C 
ENDBRANCH   4   7
BRANCH   5  11
ATOM     11  O   UNL     1       3.131   6.327  17.487  0.00  0.00    +0.000 OA
BRANCH  11  12
ATOM     12  C   UNL     1       4.463   6.118  17.545  0.00  0.00    +0.000 C 
ATOM     13  O   UNL     1       5.254   6.458  18.414  0.00  0.00    +0.000 OA
BRANCH  12  14
ATOM     14  C   UNL     1       4.985   5.278  16.443  0.00  0.00    +0.000 A 
ATOM     15  C   UNL     1       4.747   3.897  16.314  0.00  0.00    +0.000 A 
ATOM     16  C   UNL     1       5.351   3.172  15.274  0.00  0.00    +0.000 A 
ATOM     17  C   UNL     1       6.161   3.860  14.390  0.00  0.00    +0.000 A 
ATOM     18  C   UNL     1       6.386   5.207  14.511  0.00  0.00    +0.000 A 
ATOM     19  C   UNL     1       5.819   5.938  15.522  0.00  0.00    +0.000 A 
ATOM     20  O   UNL     1       7.213   5.700  13.558  0.00  0.00    +0.000 OA
ATOM     21  C   UNL     1       7.492   4.504  12.808  0.00  0.00    +0.000 C 
ATOM     22  O   UNL     1       6.823   3.335  13.328  0.00  0.00    +0.000 OA
ENDBRANCH  12  14
ENDBRANCH  11  12
ENDBRANCH   5  11
BRANCH   6  23
ATOM     23  S   UNL     1       2.019   9.576  18.335  0.00  0.00    +0.000 S 
BRANCH  23  24
ATOM     24  C   UNL     1       0.360  10.206  18.353  0.00  0.00    +0.000 A 
ATOM     25  C   UNL     1       0.214  11.421  19.043  0.00  0.00    +0.000 A 
ATOM     26  C   UNL     1      -1.015  12.073  19.106  0.00  0.00    +0.000 A 
ATOM     27  C   UNL     1      -2.118  11.526  18.471  0.00  0.00    +0.000 A 
ATOM     28  C   UNL     1      -1.990  10.318  17.775  0.00  0.00    +0.000 A 
ATOM     29  C   UNL     1      -0.757   9.658  17.716  0.00  0.00    +0.000 A 
ENDBRANCH  23  24
ENDBRANCH   6  23
TORSDOF 6
ENDMDL
MODEL 6
REMARK VINA RESULT:      -7.2      0.721      1.615
REMARK  Name = 
REMARK  10 active torsions:
REMARK  status: ('A' for Active; 'I' for Inactive)
REMARK    1  A    between atoms: C_1  and  C_2
REMARK    2  A    between atoms: N_4  and  C_5
REMARK    3  A    between atoms: C_5  and  C_6
REMARK    4  A    between atoms: C_5  and  C_7
REMARK    5  A    between atoms: C_5  and  C_8
REMARK    6  A    between atoms: C_9  and  O_10
REMARK    7  A    between atoms: O_10  and  C_11
REMARK    8  A    between atoms: C_11  and  C_13
REMARK    9  A    between atoms: C_22  and  S_23
REMARK   10  A    between atoms: S_23  and  C_24
REMARK                            x       y       z     vdW  Elec       q    Type
REMARK                         _______ _______ _______ _____ _____    ______ ____
ROOT
ATOM      1  C   UNL     1       1.516   8.252  20.994  0.00  0.00    +0.000 C 
ATOM      2  C   UNL     1       1.874   7.073  20.163  0.00  0.00    +0.000 A 
ATOM      3  N   UNL     1       1.774   5.845  20.672  0.00  0.00    +0.000 NA
ATOM      4  N   UNL     1       2.180   5.028  19.671  0.00  0.00    +0.000 N 
ATOM      5  C   UNL     1       2.752   5.724  18.611  0.00  0.00    +0.000 A 
ATOM      6  C   UNL     1       2.378   7.045  18.843  0.00  0.00    +0.000 A 
ENDROOT
BRANCH   4   7
ATOM      7  C   UNL     1       1.925   3.577  19.798  0.00  0.00    +0.000 C 
ATOM      8  C   UNL     1       3.246   2.766  19.714  0.00  0.00    +0.000 C 
ATOM      9  C   UNL     1       1.290   3.280  21.171  0.00  0.00    +0.000 C 
ATOM     10  C   UNL     1       1.006   3.042  18.687  0.00  0.00    +0.000 C 
ENDBRANCH   4   7
BRANCH   5  11
ATOM     11  O   UNL     1       3.466   5.064  17.693  0.00  0.00    +0.000 OA
BRANCH  11  12
ATOM     12  C   UNL     1       4.765   5.375  17.506  0.00  0.00    +0.000 C 
ATOM     13  O   UNL     1       5.571   5.818  18.314  0.00  0.00    +0.000 OA
BRANCH  12  14
ATOM     14  C   UNL     1       5.276   5.027  16.160  0.00  0.00    +0.000 A 
ATOM     15  C   UNL     1       4.658   4.112  15.287  0.00  0.00    +0.000 A 
ATOM     16  C   UNL     1       5.263   3.791  14.061  0.00  0.00    +0.000 A 
ATOM     17  C   UNL     1       6.458   4.410  13.746  0.00  0.00    +0.000 A 
ATOM     18  C   UNL     1       7.055   5.308  14.593  0.00  0.00    +0.000 A 
ATOM     19  C   UNL     1       6.494   5.632  15.801  0.00  0.00    +0.000 A 
ATOM     20  O   UNL     1       8.223   5.801  14.115  0.00  0.00    +0.000 OA
ATOM     21  C   UNL     1       8.303   5.110  12.855  0.00  0.00    +0.000 C 
ATOM     22  O   UNL     1       7.184   4.231  12.613  0.00  0.00    +0.000 OA
ENDBRANCH  12  14
ENDBRANCH  11  12
ENDBRANCH   5  11
BRANCH   6  23
ATOM     23  S   UNL     1       2.635   8.495  17.917  0.00  0.00    +0.000 S 
BRANCH  23  24
ATOM     24  C   UNL     1       1.249   9.575  18.159  0.00  0.00    +0.000 A 
ATOM     25  C   UNL     1       0.060   9.128  17.556  0.00  0.00    +0.000 A 
ATOM     26  C   UNL     1      -1.131   9.837  17.695  0.00  0.00    +0.000 A 
ATOM     27  C   UNL     1      -1.157  11.000  18.447  0.00  0.00    +0.000 A 
ATOM     28  C   UNL     1       0.016  11.458  19.058  0.00  0.00    +0.000 A 
ATOM     29  C   UNL     1       1.216  10.750  18.914  0.00  0.00    +0.000 A 
ENDBRANCH  23  24
ENDBRANCH   6  23
TORSDOF 6
ENDMDL
MODEL 7
REMARK VINA RESULT:      -6.9      2.912      5.420
REMARK  Name = 
REMARK  10 active torsions:
REMARK  status: ('A' for Active; 'I' for Inactive)
REMARK    1  A    between atoms: C_1  and  C_2
REMARK    2  A    between atoms: N_4  and  C_5
REMARK    3  A    between atoms: C_5  and  C_6
REMARK    4  A    between atoms: C_5  and  C_7
REMARK    5  A    between atoms: C_5  and  C_8
REMARK    6  A    between atoms: C_9  and  O_10
REMARK    7  A    between atoms: O_10  and  C_11
REMARK    8  A    between atoms: C_11  and  C_13
REMARK    9  A    between atoms: C_22  and  S_23
REMARK   10  A    between atoms: S_23  and  C_24
REMARK                            x       y       z     vdW  Elec       q    Type
REMARK                         _______ _______ _______ _____ _____    ______ ____
ROOT
ATOM      1  C   UNL     1      -0.400  14.038  21.089  0.00  0.00    +0.000 C 
ATOM      2  C   UNL     1      -0.220  12.579  20.870  0.00  0.00    +0.000 A 
ATOM      3  N   UNL     1       0.165  11.797  21.878  0.00  0.00    +0.000 NA
ATOM      4  N   UNL     1       0.239  10.557  21.338  0.00  0.00    +0.000 N 
ATOM      5  C   UNL     1       0.127  10.570  19.952  0.00  0.00    +0.000 A 
ATOM      6  C   UNL     1      -0.360  11.844  19.671  0.00  0.00    +0.000 A 
ENDROOT
BRANCH   4   7
ATOM      7  C   UNL     1       0.363   9.398  22.248  0.00  0.00    +0.000 C 
ATOM      8  C   UNL     1      -0.208   9.726  23.654  0.00  0.00    +0.000 C 
ATOM      9  C   UNL     1      -0.448   8.211  21.690  0.00  0.00    +0.000 C 
ATOM     10  C   UNL     1       1.823   8.964  22.453  0.00  0.00    +0.000 C 
ENDBRANCH   4   7
BRANCH   5  11
ATOM     11  O   UNL     1       0.476   9.487  19.249  0.00  0.00    +0.000 OA
BRANCH  11  12
ATOM     12  C   UNL     1       1.620   9.493  18.534  0.00  0.00    +0.000 C 
ATOM     13  O   UNL     1       2.172  10.435  17.981  0.00  0.00    +0.000 OA
BRANCH  12  14
ATOM     14  C   UNL     1       2.323   8.190  18.520  0.00  0.00    +0.000 A 
ATOM     15  C   UNL     1       2.191   7.204  19.516  0.00  0.00    +0.000 A 
ATOM     16  C   UNL     1       2.961   6.032  19.452  0.00  0.00    +0.000 A 
ATOM     17  C   UNL     1       3.826   5.882  18.385  0.00  0.00    +0.000 A 
ATOM     18  C   UNL     1       3.950   6.839  17.411  0.00  0.00    +0.000 A 
ATOM     19  C   UNL     1       3.219   7.998  17.453  0.00  0.00    +0.000 A 
ATOM     20  O   UNL     1       4.852   6.516  16.454  0.00  0.00    +0.000 OA
ATOM     21  C   UNL     1       5.296   5.233  16.933  0.00  0.00    +0.000 C 
ATOM     22  O   UNL     1       4.644   4.823  18.154  0.00  0.00    +0.000 OA
ENDBRANCH  12  14
ENDBRANCH  11  12
ENDBRANCH   5  11
BRANCH   6  23
ATOM     23  S   UNL     1      -0.838  12.591  18.175  0.00  0.00    +0.000 S 
BRANCH  23  24
ATOM     24  C   UNL     1      -2.315  11.799  17.592  0.00  0.00    +0.000 A 
ATOM     25  C   UNL     1      -3.384  11.834  18.504  0.00  0.00    +0.000 A 
ATOM     26  C   UNL     1      -4.628  11.301  18.179  0.00  0.00    +0.000 A 
ATOM     27  C   UNL     1      -4.830  10.732  16.932  0.00  0.00    +0.000 A 
ATOM     28  C   UNL     1      -3.778  10.692  16.009  0.00  0.00    +0.000 A 
ATOM     29  C   UNL     1      -2.524  11.222  16.337  0.00  0.00    +0.000 A 
ENDBRANCH  23  24
ENDBRANCH   6  23
TORSDOF 6
ENDMDL
MODEL 8
REMARK VINA RESULT:      -6.9      2.103      3.023
REMARK  Name = 
REMARK  10 active torsions:
REMARK  status: ('A' for Active; 'I' for Inactive)
REMARK    1  A    between atoms: C_1  and  C_2
REMARK    2  A    between atoms: N_4  and  C_5
REMARK    3  A    between atoms: C_5  and  C_6
REMARK    4  A    between atoms: C_5  and  C_7
REMARK    5  A    between atoms: C_5  and  C_8
REMARK    6  A    between atoms: C_9  and  O_10
REMARK    7  A    between atoms: O_10  and  C_11
REMARK    8  A    between atoms: C_11  and  C_13
REMARK    9  A    between atoms: C_22  and  S_23
REMARK   10  A    between atoms: S_23  and  C_24
REMARK                            x       y       z     vdW  Elec       q    Type
REMARK                         _______ _______ _______ _____ _____    ______ ____
ROOT
ATOM      1  C   UNL     1       1.909   8.082  21.037  0.00  0.00    +0.000 C 
ATOM      2  C   UNL     1       2.052   6.945  20.092  0.00  0.00    +0.000 A 
ATOM      3  N   UNL     1       1.911   5.693  20.529  0.00  0.00    +0.000 NA
ATOM      4  N   UNL     1       2.111   4.925  19.432  0.00  0.00    +0.000 N 
ATOM      5  C   UNL     1       2.600   5.651  18.352  0.00  0.00    +0.000 A 
ATOM      6  C   UNL     1       2.377   6.976  18.717  0.00  0.00    +0.000 A 
ENDROOT
BRANCH   4   7
ATOM      7  C   UNL     1       1.748   3.493  19.499  0.00  0.00    +0.000 C 
ATOM      8  C   UNL     1       2.981   2.617  19.846  0.00  0.00    +0.000 C 
ATOM      9  C   UNL     1       0.703   3.274  20.612  0.00  0.00    +0.000 C 
ATOM     10  C   UNL     1       1.189   2.965  18.167  0.00  0.00    +0.000 C 
ENDBRANCH   4   7
BRANCH   5  11
ATOM     11  O   UNL     1       3.129   5.008  17.306  0.00  0.00    +0.000 OA
BRANCH  11  12
ATOM     12  C   UNL     1       4.249   4.273  17.468  0.00  0.00    +0.000 C 
ATOM     13  O   UNL     1       4.423   3.083  17.246  0.00  0.00    +0.000 OA
BRANCH  12  14
ATOM     14  C   UNL     1       5.430   5.067  17.877  0.00  0.00    +0.000 A 
ATOM     15  C   UNL     1       6.236   4.777  18.993  0.00  0.00    +0.000 A 
ATOM     16  C   UNL     1       7.291   5.636  19.343  0.00  0.00    +0.000 A 
ATOM     17  C   UNL     1       7.509   6.749  18.553  0.00  0.00    +0.000 A 
ATOM     18  C   UNL     1       6.728   7.028  17.461  0.00  0.00    +0.000 A 
ATOM     19  C   UNL     1       5.686   6.213  17.102  0.00  0.00    +0.000 A 
ATOM     20  O   UNL     1       7.091   8.164  16.819  0.00  0.00    +0.000 OA
ATOM     21  C   UNL     1       8.201   8.583  17.633  0.00  0.00    +0.000 C 
ATOM     22  O   UNL     1       8.475   7.686  18.731  0.00  0.00    +0.000 OA
ENDBRANCH  12  14
ENDBRANCH  11  12
ENDBRANCH   5  11
BRANCH   6  23
ATOM     23  S   UNL     1       2.639   8.467  17.859  0.00  0.00    +0.000 S 
BRANCH  23  24
ATOM     24  C   UNL     1       1.278   9.556  18.187  0.00  0.00    +0.000 A 
ATOM     25  C   UNL     1       0.061   9.144  17.616  0.00  0.00    +0.000 A 
ATOM     26  C   UNL     1      -1.114   9.863  17.823  0.00  0.00    +0.000 A 
ATOM     27  C   UNL     1      -1.096  11.001  18.612  0.00  0.00    +0.000 A 
ATOM     28  C   UNL     1       0.106  11.424  19.192  0.00  0.00    +0.000 A 
ATOM     29  C   UNL     1       1.290  10.706  18.980  0.00  0.00    +0.000 A 
ENDBRANCH  23  24
ENDBRANCH   6  23
TORSDOF 6
ENDMDL
MODEL 9
REMARK VINA RESULT:      -6.9      1.028      1.477
REMARK  Name = 
REMARK  10 active torsions:
REMARK  status: ('A' for Active; 'I' for Inactive)
REMARK    1  A    between atoms: C_1  and  C_2
REMARK    2  A    between atoms: N_4  and  C_5
REMARK    3  A    between atoms: C_5  and  C_6
REMARK    4  A    between atoms: C_5  and  C_7
REMARK    5  A    between atoms: C_5  and  C_8
REMARK    6  A    between atoms: C_9  and  O_10
REMARK    7  A    between atoms: O_10  and  C_11
REMARK    8  A    between atoms: C_11  and  C_13
REMARK    9  A    between atoms: C_22  and  S_23
REMARK   10  A    between atoms: S_23  and  C_24
REMARK                            x       y       z     vdW  Elec       q    Type
REMARK                         _______ _______ _______ _____ _____    ______ ____
ROOT
ATOM      1  C   UNL     1       1.166   7.894  20.906  0.00  0.00    +0.000 C 
ATOM      2  C   UNL     1       1.802   6.682  20.329  0.00  0.00    +0.000 A 
ATOM      3  N   UNL     1       1.682   5.507  20.949  0.00  0.00    +0.000 NA
ATOM      4  N   UNL     1       2.377   4.641  20.174  0.00  0.00    +0.000 N 
ATOM      5  C   UNL     1       3.125   5.282  19.193  0.00  0.00    +0.000 A 
ATOM      6  C   UNL     1       2.605   6.573  19.171  0.00  0.00    +0.000 A 
ENDROOT
BRANCH   4   7
ATOM      7  C   UNL     1       2.214   3.191  20.417  0.00  0.00    +0.000 C 
ATOM      8  C   UNL     1       1.541   2.926  21.790  0.00  0.00    +0.000 C 
ATOM      9  C   UNL     1       1.300   2.583  19.334  0.00  0.00    +0.000 C 
ATOM     10  C   UNL     1       3.556   2.442  20.428  0.00  0.00    +0.000 C 
ENDBRANCH   4   7
BRANCH   5  11
ATOM     11  O   UNL     1       4.086   4.611  18.548  0.00  0.00    +0.000 OA
BRANCH  11  12
ATOM     12  C   UNL     1       3.918   4.284  17.250  0.00  0.00    +0.000 C 
ATOM     13  O   UNL     1       2.923   3.836  16.696  0.00  0.00    +0.000 OA
BRANCH  12  14
ATOM     14  C   UNL     1       5.080   4.616  16.394  0.00  0.00    +0.000 A 
ATOM     15  C   UNL     1       6.103   5.512  16.755  0.00  0.00    +0.000 A 
ATOM     16  C   UNL     1       7.124   5.820  15.841  0.00  0.00    +0.000 A 
ATOM     17  C   UNL     1       7.090   5.209  14.602  0.00  0.00    +0.000 A 
ATOM     18  C   UNL     1       6.097   4.330  14.253  0.00  0.00    +0.000 A 
ATOM     19  C   UNL     1       5.083   4.018  15.121  0.00  0.00    +0.000 A 
ATOM     20  O   UNL     1       6.231   3.841  12.997  0.00  0.00    +0.000 OA
ATOM     21  C   UNL     1       7.432   4.514  12.579  0.00  0.00    +0.000 C 
ATOM     22  O   UNL     1       7.986   5.378  13.595  0.00  0.00    +0.000 OA
ENDBRANCH  12  14
ENDBRANCH  11  12
ENDBRANCH   5  11
BRANCH   6  23
ATOM     23  S   UNL     1       2.958   7.941  18.155  0.00  0.00    +0.000 S 
BRANCH  23  24
ATOM     24  C   UNL     1       1.575   9.051  18.200  0.00  0.00    +0.000 A 
ATOM     25  C   UNL     1       1.855  10.295  18.793  0.00  0.00    +0.000 A 
ATOM     26  C   UNL     1       0.890  11.297  18.859  0.00  0.00    +0.000 A 
ATOM     27  C   UNL     1      -0.369  11.077  18.326  0.00  0.00    +0.000 A 
ATOM     28  C   UNL     1      -0.665   9.847  17.728  0.00  0.00    +0.000 A 
ATOM     29  C   UNL     1       0.302   8.836  17.665  0.00  0.00    +0.000 A 
ENDBRANCH  23  24
ENDBRANCH   6  23
TORSDOF 6
ENDMDL
