MODEL 1
REMARK VINA RESULT:      -7.6      0.000      0.000
REMARK  Name = 
REMARK  8 active torsions:
REMARK  status: ('A' for Active; 'I' for Inactive)
REMARK    1  A    between atoms: C_1  and  C_2
REMARK    2  A    between atoms: C_2  and  C_3
REMARK    3  A    between atoms: C_3  and  N_4
REMARK    4  A    between atoms: C_9  and  C_11
REMARK    5  A    between atoms: C_14  and  N_15
REMARK    6  A    between atoms: N_18  and  C_19
REMARK    7  A    between atoms: C_19  and  C_20
REMARK    8  A    between atoms: C_19  and  C_21
REMARK                            x       y       z     vdW  Elec       q    Type
REMARK                         _______ _______ _______ _____ _____    ______ ____
ROOT
ATOM      1  C   UNL     1       6.368   5.530  17.397  0.00  0.00    +0.000 A 
ATOM      2  C   UNL     1       6.434   6.822  16.901  0.00  0.00    +0.000 A 
ATOM      3  C   UNL     1       7.331   7.756  17.407  0.00  0.00    +0.000 A 
ATOM      4  C   UNL     1       8.120   7.471  18.515  0.00  0.00    +0.000 A 
ATOM      5  C   UNL     1       8.005   6.196  19.088  0.00  0.00    +0.000 A 
ATOM      6  C   UNL     1       7.141   5.228  18.525  0.00  0.00    +0.000 A 
ENDROOT
BRANCH   1  12
ATOM      7  N   UNL     1       1.821   4.472  19.287  0.00  0.00    +0.000 NA
ATOM      8  C   UNL     1       2.452   3.158  19.017  0.00  0.00    +0.000 C 
ATOM      9  C   UNL     1       2.456   2.714  17.553  0.00  0.00    +0.000 C 
ATOM     10  C   UNL     1       3.147   3.598  16.518  0.00  0.00    +0.000 C 
ATOM     11  N   UNL     1       4.030   4.623  17.061  0.00  0.00    +0.000 N 
ATOM     12  C   UNL     1       5.415   4.531  16.825  0.00  0.00    +0.000 C 
ATOM     13  O   UNL     1       5.905   3.629  16.145  0.00  0.00    +0.000 OA
ATOM     14  C   UNL     1       3.320   5.769  17.633  0.00  0.00    +0.000 C 
ATOM     15  C   UNL     1       2.802   5.558  19.067  0.00  0.00    +0.000 C 
BRANCH   7  16
ATOM     16  C   UNL     1       1.376   4.493  20.711  0.00  0.00    +0.000 C 
BRANCH  16  18
ATOM     17  C   UNL     1       1.389   2.338  22.047  0.00  0.00    +0.000 C 
ATOM     18  C   UNL     1       2.178   3.574  21.646  0.00  0.00    +0.000 C 
ENDBRANCH  16  18
ENDBRANCH   7  16
ENDBRANCH   1  12
BRANCH   4  19
ATOM     19  N   UNL     1       8.970   8.444  19.100  0.00  0.00    +0.000 N 
ATOM     20  C   UNL     1       8.993   9.786  18.768  0.00  0.00    +0.000 C 
ATOM     21  O   UNL     1       8.370  10.319  17.857  0.00  0.00    +0.000 OA
ATOM     22  N   UNL     1       9.775  10.539  19.616  0.00  0.00    +0.000 N 
ATOM     23  H   UNL     1       9.560   8.141  19.859  0.00  0.00    +0.000 HD
ATOM     24  H   UNL     1      10.562  10.088  20.057  0.00  0.00    +0.000 HD
BRANCH  22  25
ATOM     25  C   UNL     1       9.872  11.980  19.367  0.00  0.00    +0.000 C 
ATOM     26  C   UNL     1       9.737  12.768  20.662  0.00  0.00    +0.000 C 
ATOM     27  C   UNL     1      11.169  12.326  18.637  0.00  0.00    +0.000 C 
ENDBRANCH  22  25
ENDBRANCH   4  19
TORSDOF 5
ENDMDL
MODEL 2
REMARK VINA RESULT:      -7.6      1.172      1.340
REMARK  Name = 
REMARK  8 active torsions:
REMARK  status: ('A' for Active; 'I' for Inactive)
REMARK    1  A    between atoms: C_1  and  C_2
REMARK    2  A    between atoms: C_2  and  C_3
REMARK    3  A    between atoms: C_3  and  N_4
REMARK    4  A    between atoms: C_9  and  C_11
REMARK    5  A    between atoms: C_14  and  N_15
REMARK    6  A    between atoms: N_18  and  C_19
REMARK    7  A    between atoms: C_19  and  C_20
REMARK    8  A    between atoms: C_19  and  C_21
REMARK                            x       y       z     vdW  Elec       q    Type
REMARK                         _______ _______ _______ _____ _____    ______ ____
ROOT
ATOM      1  C   UNL     1       7.240   6.458  17.579  0.00  0.00    +0.000 A 
ATOM      2  C   UNL     1       7.137   7.740  17.064  0.00  0.00    +0.000 A 
ATOM      3  C   UNL     1       7.828   8.810  17.621  0.00  0.00    +0.000 A 
ATOM      4  C   UNL     1       8.558   8.665  18.795  0.00  0.00    +0.000 A 
ATOM      5  C   UNL     1       8.603   7.392  19.382  0.00  0.00    +0.000 A 
ATOM      6  C   UNL     1       7.956   6.293  18.771  0.00  0.00    +0.000 A 
ENDROOT
BRANCH   1  12
ATOM      7  N   UNL     1       2.741   4.747  19.061  0.00  0.00    +0.000 NA
ATOM      8  C   UNL     1       3.588   3.541  18.897  0.00  0.00    +0.000 C 
ATOM      9  C   UNL     1       3.804   3.076  17.455  0.00  0.00    +0.000 C 
ATOM     10  C   UNL     1       4.453   4.036  16.462  0.00  0.00    +0.000 C 
ATOM     11  N   UNL     1       5.112   5.195  17.052  0.00  0.00    +0.000 N 
ATOM     12  C   UNL     1       6.511   5.313  16.952  0.00  0.00    +0.000 C 
ATOM     13  O   UNL     1       7.197   4.485  16.353  0.00  0.00    +0.000 OA
ATOM     14  C   UNL     1       4.183   6.228  17.514  0.00  0.00    +0.000 C 
ATOM     15  C   UNL     1       3.563   5.966  18.899  0.00  0.00    +0.000 C 
BRANCH   7  16
ATOM     16  C   UNL     1       2.158   4.726  20.434  0.00  0.00    +0.000 C 
BRANCH  16  18
ATOM     17  C   UNL     1       1.567   2.610  21.700  0.00  0.00    +0.000 C 
ATOM     18  C   UNL     1       1.109   3.626  20.667  0.00  0.00    +0.000 C 
ENDBRANCH  16  18
ENDBRANCH   7  16
ENDBRANCH   1  12
BRANCH   4  19
ATOM     19  N   UNL     1       9.189   9.767  19.427  0.00  0.00    +0.000 N 
ATOM     20  C   UNL     1       9.782  10.830  18.771  0.00  0.00    +0.000 C 
ATOM     21  O   UNL     1       9.948  10.935  17.561  0.00  0.00    +0.000 OA
ATOM     22  N   UNL     1      10.150  11.850  19.620  0.00  0.00    +0.000 N 
ATOM     23  H   UNL     1       9.147   9.804  20.434  0.00  0.00    +0.000 HD
ATOM     24  H   UNL     1      10.394  11.610  20.568  0.00  0.00    +0.000 HD
BRANCH  22  25
ATOM     25  C   UNL     1      10.784  13.037  19.037  0.00  0.00    +0.000 C 
ATOM     26  C   UNL     1       9.856  14.241  19.107  0.00  0.00    +0.000 C 
ATOM     27  C   UNL     1      12.126  13.329  19.708  0.00  0.00    +0.000 C 
ENDBRANCH  22  25
ENDBRANCH   4  19
TORSDOF 5
ENDMDL
MODEL 3
REMARK VINA RESULT:      -7.5      5.220      6.904
REMARK  Name = 
REMARK  8 active torsions:
REMARK  status: ('A' for Active; 'I' for Inactive)
REMARK    1  A    between atoms: C_1  and  C_2
REMARK    2  A    between atoms: C_2  and  C_3
REMARK    3  A    between atoms: C_3  and  N_4
REMARK    4  A    between atoms: C_9  and  C_11
REMARK    5  A    between atoms: C_14  and  N_15
REMARK    6  A    between atoms: N_18  and  C_19
REMARK    7  A    between atoms: C_19  and  C_20
REMARK    8  A    between atoms: C_19  and  C_21
REMARK                            x       y       z     vdW  Elec       q    Type
REMARK                         _______ _______ _______ _____ _____    ______ ____
ROOT
ATOM      1  C   UNL     1       2.185   7.448  19.330  0.00  0.00    +0.000 A 
ATOM      2  C   UNL     1       2.249   7.990  18.056  0.00  0.00    +0.000 A 
ATOM      3  C   UNL     1       1.831   9.289  17.791  0.00  0.00    +0.000 A 
ATOM      4  C   UNL     1       1.216  10.062  18.770  0.00  0.00    +0.000 A 
ATOM      5  C   UNL     1       1.061   9.499  20.045  0.00  0.00    +0.000 A 
ATOM      6  C   UNL     1       1.552   8.202  20.325  0.00  0.00    +0.000 A 
ENDROOT
BRANCH   1  12
ATOM      7  N   UNL     1       5.216   4.795  16.305  0.00  0.00    +0.000 NA
ATOM      8  C   UNL     1       4.120   3.868  16.678  0.00  0.00    +0.000 C 
ATOM      9  C   UNL     1       4.217   3.257  18.077  0.00  0.00    +0.000 C 
ATOM     10  C   UNL     1       4.247   4.188  19.286  0.00  0.00    +0.000 C 
ATOM     11  N   UNL     1       3.848   5.566  19.025  0.00  0.00    +0.000 N 
ATOM     12  C   UNL     1       2.662   6.057  19.602  0.00  0.00    +0.000 C 
ATOM     13  O   UNL     1       1.965   5.372  20.349  0.00  0.00    +0.000 OA
ATOM     14  C   UNL     1       4.871   6.354  18.335  0.00  0.00    +0.000 C 
ATOM     15  C   UNL     1       4.920   6.154  16.809  0.00  0.00    +0.000 C 
BRANCH   7  16
ATOM     16  C   UNL     1       5.312   4.832  14.817  0.00  0.00    +0.000 C 
BRANCH  16  18
ATOM     17  C   UNL     1       6.054   3.552  12.759  0.00  0.00    +0.000 C 
ATOM     18  C   UNL     1       6.344   3.862  14.218  0.00  0.00    +0.000 C 
ENDBRANCH  16  18
ENDBRANCH   7  16
ENDBRANCH   1  12
BRANCH   4  19
ATOM     19  N   UNL     1       0.699  11.353  18.490  0.00  0.00    +0.000 N 
ATOM     20  C   UNL     1       1.028  12.509  19.172  0.00  0.00    +0.000 C 
ATOM     21  O   UNL     1       1.724  12.585  20.178  0.00  0.00    +0.000 OA
ATOM     22  N   UNL     1       0.529  13.647  18.577  0.00  0.00    +0.000 N 
ATOM     23  H   UNL     1       0.088  11.439  17.692  0.00  0.00    +0.000 HD
ATOM     24  H   UNL     1      -0.327  13.568  18.051  0.00  0.00    +0.000 HD
BRANCH  22  25
ATOM     25  C   UNL     1       0.819  14.938  19.208  0.00  0.00    +0.000 C 
ATOM     26  C   UNL     1       1.994  15.626  18.528  0.00  0.00    +0.000 C 
ATOM     27  C   UNL     1      -0.419  15.834  19.222  0.00  0.00    +0.000 C 
ENDBRANCH  22  25
ENDBRANCH   4  19
TORSDOF 5
ENDMDL
MODEL 4
REMARK VINA RESULT:      -7.5      5.021      6.574
REMARK  Name = 
REMARK  8 active torsions:
REMARK  status: ('A' for Active; 'I' for Inactive)
REMARK    1  A    between atoms: C_1  and  C_2
REMARK    2  A    between atoms: C_2  and  C_3
REMARK    3  A    between atoms: C_3  and  N_4
REMARK    4  A    between atoms: C_9  and  C_11
REMARK    5  A    between atoms: C_14  and  N_15
REMARK    6  A    between atoms: N_18  and  C_19
REMARK    7  A    between atoms: C_19  and  C_20
REMARK    8  A    between atoms: C_19  and  C_21
REMARK                            x       y       z     vdW  Elec       q    Type
REMARK                         _______ _______ _______ _____ _____    ______ ____
ROOT
ATOM      1  C   UNL     1       2.547   7.773  18.482  0.00  0.00    +0.000 A 
ATOM      2  C   UNL     1       2.191   7.595  19.809  0.00  0.00    +0.000 A 
ATOM      3  C   UNL     1       1.270   8.426  20.438  0.00  0.00    +0.000 A 
ATOM      4  C   UNL     1       0.755   9.547  19.798  0.00  0.00    +0.000 A 
ATOM      5  C   UNL     1       1.171   9.796  18.482  0.00  0.00    +0.000 A 
ATOM      6  C   UNL     1       2.054   8.907  17.825  0.00  0.00    +0.000 A 
ENDROOT
BRANCH   1  12
ATOM      7  N   UNL     1       2.412   2.745  18.740  0.00  0.00    +0.000 NA
ATOM      8  C   UNL     1       3.825   3.115  18.992  0.00  0.00    +0.000 C 
ATOM      9  C   UNL     1       4.641   3.491  17.753  0.00  0.00    +0.000 C 
ATOM     10  C   UNL     1       4.173   4.659  16.890  0.00  0.00    +0.000 C 
ATOM     11  N   UNL     1       3.174   5.528  17.501  0.00  0.00    +0.000 N 
ATOM     12  C   UNL     1       3.519   6.856  17.814  0.00  0.00    +0.000 C 
ATOM     13  O   UNL     1       4.630   7.321  17.559  0.00  0.00    +0.000 OA
ATOM     14  C   UNL     1       1.829   4.949  17.527  0.00  0.00    +0.000 C 
ATOM     15  C   UNL     1       1.573   3.963  18.682  0.00  0.00    +0.000 C 
BRANCH   7  16
ATOM     16  C   UNL     1       1.947   1.882  19.864  0.00  0.00    +0.000 C 
BRANCH  16  18
ATOM     17  C   UNL     1       2.156   3.159  22.044  0.00  0.00    +0.000 C 
ATOM     18  C   UNL     1       1.204   2.631  20.983  0.00  0.00    +0.000 C 
ENDBRANCH  16  18
ENDBRANCH   7  16
ENDBRANCH   1  12
BRANCH   4  19
ATOM     19  N   UNL     1      -0.111  10.456  20.458  0.00  0.00    +0.000 N 
ATOM     20  C   UNL     1       0.288  11.610  21.107  0.00  0.00    +0.000 C 
ATOM     21  O   UNL     1       1.443  11.970  21.302  0.00  0.00    +0.000 OA
ATOM     22  N   UNL     1      -0.768  12.402  21.497  0.00  0.00    +0.000 N 
ATOM     23  H   UNL     1      -1.101  10.273  20.397  0.00  0.00    +0.000 HD
ATOM     24  H   UNL     1      -1.644  11.950  21.712  0.00  0.00    +0.000 HD
BRANCH  22  25
ATOM     25  C   UNL     1      -0.468  13.659  22.190  0.00  0.00    +0.000 C 
ATOM     26  C   UNL     1      -0.653  14.851  21.262  0.00  0.00    +0.000 C 
ATOM     27  C   UNL     1      -1.311  13.803  23.457  0.00  0.00    +0.000 C 
ENDBRANCH  22  25
ENDBRANCH   4  19
TORSDOF 5
ENDMDL
MODEL 5
REMARK VINA RESULT:      -7.4      4.650      7.274
REMARK  Name = 
REMARK  8 active torsions:
REMARK  status: ('A' for Active; 'I' for Inactive)
REMARK    1  A    between atoms: C_1  and  C_2
REMARK    2  A    between atoms: C_2  and  C_3
REMARK    3  A    between atoms: C_3  and  N_4
REMARK    4  A    between atoms: C_9  and  C_11
REMARK    5  A    between atoms: C_14  and  N_15
REMARK    6  A    between atoms: N_18  and  C_19
REMARK    7  A    between atoms: C_19  and  C_20
REMARK    8  A    between atoms: C_19  and  C_21
REMARK                            x       y       z     vdW  Elec       q    Type
REMARK                         _______ _______ _______ _____ _____    ______ ____
ROOT
ATOM      1  C   UNL     1       2.018   6.184  19.173  0.00  0.00    +0.000 A 
ATOM      2  C   UNL     1       2.152   7.474  18.687  0.00  0.00    +0.000 A 
ATOM      3  C   UNL     1       1.896   8.586  19.482  0.00  0.00    +0.000 A 
ATOM      4  C   UNL     1       1.376   8.451  20.764  0.00  0.00    +0.000 A 
ATOM      5  C   UNL     1       1.149   7.153  21.243  0.00  0.00    +0.000 A 
ATOM      6  C   UNL     1       1.478   6.026  20.455  0.00  0.00    +0.000 A 
ENDROOT
BRANCH   1  12
ATOM      7  N   UNL     1       6.642   4.443  18.195  0.00  0.00    +0.000 NA
ATOM      8  C   UNL     1       5.951   4.486  16.884  0.00  0.00    +0.000 C 
ATOM      9  C   UNL     1       4.965   3.346  16.619  0.00  0.00    +0.000 C 
ATOM     10  C   UNL     1       3.789   3.153  17.573  0.00  0.00    +0.000 C 
ATOM     11  N   UNL     1       3.518   4.273  18.466  0.00  0.00    +0.000 N 
ATOM     12  C   UNL     1       2.323   5.000  18.313  0.00  0.00    +0.000 C 
ATOM     13  O   UNL     1       1.479   4.701  17.468  0.00  0.00    +0.000 OA
ATOM     14  C   UNL     1       4.464   4.379  19.580  0.00  0.00    +0.000 C 
ATOM     15  C   UNL     1       5.795   5.071  19.233  0.00  0.00    +0.000 C 
BRANCH   7  16
ATOM     16  C   UNL     1       7.919   5.205  18.076  0.00  0.00    +0.000 C 
BRANCH  16  18
ATOM     17  C   UNL     1       7.711   7.675  17.540  0.00  0.00    +0.000 C 
ATOM     18  C   UNL     1       7.866   6.635  18.639  0.00  0.00    +0.000 C 
ENDBRANCH  16  18
ENDBRANCH   7  16
ENDBRANCH   1  12
BRANCH   4  19
ATOM     19  N   UNL     1       1.020   9.577  21.551  0.00  0.00    +0.000 N 
ATOM     20  C   UNL     1      -0.039  10.427  21.292  0.00  0.00    +0.000 C 
ATOM     21  O   UNL     1      -0.761  10.407  20.302  0.00  0.00    +0.000 OA
ATOM     22  N   UNL     1      -0.274  11.322  22.313  0.00  0.00    +0.000 N 
ATOM     23  H   UNL     1       1.547   9.731  22.397  0.00  0.00    +0.000 HD
ATOM     24  H   UNL     1       0.510  11.609  22.879  0.00  0.00    +0.000 HD
BRANCH  22  25
ATOM     25  C   UNL     1      -1.379  12.273  22.155  0.00  0.00    +0.000 C 
ATOM     26  C   UNL     1      -2.488  11.990  23.158  0.00  0.00    +0.000 C 
ATOM     27  C   UNL     1      -0.884  13.715  22.264  0.00  0.00    +0.000 C 
ENDBRANCH  22  25
ENDBRANCH   4  19
TORSDOF 5
ENDMDL
MODEL 6
REMARK VINA RESULT:      -7.4      1.013      1.449
REMARK  Name = 
REMARK  8 active torsions:
REMARK  status: ('A' for Active; 'I' for Inactive)
REMARK    1  A    between atoms: C_1  and  C_2
REMARK    2  A    between atoms: C_2  and  C_3
REMARK    3  A    between atoms: C_3  and  N_4
REMARK    4  A    between atoms: C_9  and  C_11
REMARK    5  A    between atoms: C_14  and  N_15
REMARK    6  A    between atoms: N_18  and  C_19
REMARK    7  A    between atoms: C_19  and  C_20
REMARK    8  A    between atoms: C_19  and  C_21
REMARK                            x       y       z     vdW  Elec       q    Type
REMARK                         _______ _______ _______ _____ _____    ______ ____
ROOT
ATOM      1  C   UNL     1       7.047   6.353  17.570  0.00  0.00    +0.000 A 
ATOM      2  C   UNL     1       7.817   6.156  18.704  0.00  0.00    +0.000 A 
ATOM      3  C   UNL     1       8.501   7.201  19.315  0.00  0.00    +0.000 A 
ATOM      4  C   UNL     1       8.540   8.469  18.746  0.00  0.00    +0.000 A 
ATOM      5  C   UNL     1       7.838   8.668  17.548  0.00  0.00    +0.000 A 
ATOM      6  C   UNL     1       7.087   7.618  16.969  0.00  0.00    +0.000 A 
ENDROOT
BRANCH   1  12
ATOM      7  N   UNL     1       2.537   4.690  19.075  0.00  0.00    +0.000 NA
ATOM      8  C   UNL     1       3.366   3.474  18.893  0.00  0.00    +0.000 C 
ATOM      9  C   UNL     1       3.564   3.019  17.446  0.00  0.00    +0.000 C 
ATOM     10  C   UNL     1       4.218   3.980  16.455  0.00  0.00    +0.000 C 
ATOM     11  N   UNL     1       4.897   5.124  17.050  0.00  0.00    +0.000 N 
ATOM     12  C   UNL     1       6.297   5.224  16.939  0.00  0.00    +0.000 C 
ATOM     13  O   UNL     1       6.966   4.393  16.327  0.00  0.00    +0.000 OA
ATOM     14  C   UNL     1       3.986   6.166  17.529  0.00  0.00    +0.000 C 
ATOM     15  C   UNL     1       3.374   5.900  18.917  0.00  0.00    +0.000 C 
BRANCH   7  16
ATOM     16  C   UNL     1       1.966   4.664  20.453  0.00  0.00    +0.000 C 
BRANCH  16  18
ATOM     17  C   UNL     1       1.653   2.564  21.839  0.00  0.00    +0.000 C 
ATOM     18  C   UNL     1       1.069   3.451  20.751  0.00  0.00    +0.000 C 
ENDBRANCH  16  18
ENDBRANCH   7  16
ENDBRANCH   1  12
BRANCH   4  19
ATOM     19  N   UNL     1       9.311   9.519  19.307  0.00  0.00    +0.000 N 
ATOM     20  C   UNL     1       9.308  10.831  18.870  0.00  0.00    +0.000 C 
ATOM     21  O   UNL     1       8.731  11.265  17.881  0.00  0.00    +0.000 OA
ATOM     22  N   UNL     1      10.001  11.679  19.706  0.00  0.00    +0.000 N 
ATOM     23  H   UNL     1       9.858   9.299  20.125  0.00  0.00    +0.000 HD
ATOM     24  H   UNL     1      10.772  11.297  20.233  0.00  0.00    +0.000 HD
BRANCH  22  25
ATOM     25  C   UNL     1      10.062  13.099  19.350  0.00  0.00    +0.000 C 
ATOM     26  C   UNL     1       9.106  13.917  20.206  0.00  0.00    +0.000 C 
ATOM     27  C   UNL     1      11.492  13.630  19.450  0.00  0.00    +0.000 C 
ENDBRANCH  22  25
ENDBRANCH   4  19
TORSDOF 5
ENDMDL
MODEL 7
REMARK VINA RESULT:      -7.3      4.519      7.455
REMARK  Name = 
REMARK  8 active torsions:
REMARK  status: ('A' for Active; 'I' for Inactive)
REMARK    1  A    between atoms: C_1  and  C_2
REMARK    2  A    between atoms: C_2  and  C_3
REMARK    3  A    between atoms: C_3  and  N_4
REMARK    4  A    between atoms: C_9  and  C_11
REMARK    5  A    between atoms: C_14  and  N_15
REMARK    6  A    between atoms: N_18  and  C_19
REMARK    7  A    between atoms: C_19  and  C_20
REMARK    8  A    between atoms: C_19  and  C_21
REMARK                            x       y       z     vdW  Elec       q    Type
REMARK                         _______ _______ _______ _____ _____    ______ ____
ROOT
ATOM      1  C   UNL     1       2.105   5.992  19.143  0.00  0.00    +0.000 A 
ATOM      2  C   UNL     1       1.610   5.723  20.409  0.00  0.00    +0.000 A 
ATOM      3  C   UNL     1       1.135   6.733  21.239  0.00  0.00    +0.000 A 
ATOM      4  C   UNL     1       1.246   8.072  20.882  0.00  0.00    +0.000 A 
ATOM      5  C   UNL     1       1.827   8.371  19.641  0.00  0.00    +0.000 A 
ATOM      6  C   UNL     1       2.244   7.336  18.772  0.00  0.00    +0.000 A 
ENDROOT
BRANCH   1  12
ATOM      7  N   UNL     1       6.819   5.534  17.429  0.00  0.00    +0.000 NA
ATOM      8  C   UNL     1       5.947   5.316  16.249  0.00  0.00    +0.000 C 
ATOM      9  C   UNL     1       5.288   3.938  16.158  0.00  0.00    +0.000 C 
ATOM     10  C   UNL     1       4.376   3.482  17.295  0.00  0.00    +0.000 C 
ATOM     11  N   UNL     1       3.948   4.530  18.213  0.00  0.00    +0.000 N 
ATOM     12  C   UNL     1       2.589   4.893  18.253  0.00  0.00    +0.000 C 
ATOM     13  O   UNL     1       1.740   4.330  17.562  0.00  0.00    +0.000 OA
ATOM     14  C   UNL     1       4.988   4.950  19.154  0.00  0.00    +0.000 C 
ATOM     15  C   UNL     1       6.003   5.960  18.588  0.00  0.00    +0.000 C 
BRANCH   7  16
ATOM     16  C   UNL     1       7.797   6.609  17.095  0.00  0.00    +0.000 C 
BRANCH  16  18
ATOM     17  C   UNL     1       8.102   9.003  17.871  0.00  0.00    +0.000 C 
ATOM     18  C   UNL     1       8.155   7.536  18.268  0.00  0.00    +0.000 C 
ENDBRANCH  16  18
ENDBRANCH   7  16
ENDBRANCH   1  12
BRANCH   4  19
ATOM     19  N   UNL     1       0.854   9.116  21.759  0.00  0.00    +0.000 N 
ATOM     20  C   UNL     1      -0.052  10.115  21.454  0.00  0.00    +0.000 C 
ATOM     21  O   UNL     1      -0.570  10.316  20.361  0.00  0.00    +0.000 OA
ATOM     22  N   UNL     1      -0.392  10.886  22.543  0.00  0.00    +0.000 N 
ATOM     23  H   UNL     1       1.222   9.089  22.697  0.00  0.00    +0.000 HD
ATOM     24  H   UNL     1       0.292  10.997  23.276  0.00  0.00    +0.000 HD
BRANCH  22  25
ATOM     25  C   UNL     1      -1.353  11.975  22.344  0.00  0.00    +0.000 C 
ATOM     26  C   UNL     1      -2.492  11.888  23.348  0.00  0.00    +0.000 C 
ATOM     27  C   UNL     1      -0.660  13.336  22.404  0.00  0.00    +0.000 C 
ENDBRANCH  22  25
ENDBRANCH   4  19
TORSDOF 5
ENDMDL
MODEL 8
REMARK VINA RESULT:      -7.2      4.943      6.675
REMARK  Name = 
REMARK  8 active torsions:
REMARK  status: ('A' for Active; 'I' for Inactive)
REMARK    1  A    between atoms: C_1  and  C_2
REMARK    2  A    between atoms: C_2  and  C_3
REMARK    3  A    between atoms: C_3  and  N_4
REMARK    4  A    between atoms: C_9  and  C_11
REMARK    5  A    between atoms: C_14  and  N_15
REMARK    6  A    between atoms: N_18  and  C_19
REMARK    7  A    between atoms: C_19  and  C_20
REMARK    8  A    between atoms: C_19  and  C_21
REMARK                            x       y       z     vdW  Elec       q    Type
REMARK                         _______ _______ _______ _____ _____    ______ ____
ROOT
ATOM      1  C   UNL     1       2.074   7.100  19.468  0.00  0.00    +0.000 A 
ATOM      2  C   UNL     1       1.512   8.010  20.347  0.00  0.00    +0.000 A 
ATOM      3  C   UNL     1       1.104   9.273  19.932  0.00  0.00    +0.000 A 
ATOM      4  C   UNL     1       1.353   9.723  18.641  0.00  0.00    +0.000 A 
ATOM      5  C   UNL     1       2.003   8.848  17.759  0.00  0.00    +0.000 A 
ATOM      6  C   UNL     1       2.352   7.539  18.168  0.00  0.00    +0.000 A 
ENDROOT
BRANCH   1  12
ATOM      7  N   UNL     1       5.218   4.049  16.982  0.00  0.00    +0.000 NA
ATOM      8  C   UNL     1       4.068   3.198  17.372  0.00  0.00    +0.000 C 
ATOM      9  C   UNL     1       4.046   2.744  18.833  0.00  0.00    +0.000 C 
ATOM     10  C   UNL     1       4.023   3.803  19.932  0.00  0.00    +0.000 C 
ATOM     11  N   UNL     1       3.690   5.153  19.494  0.00  0.00    +0.000 N 
ATOM     12  C   UNL     1       2.484   5.737  19.925  0.00  0.00    +0.000 C 
ATOM     13  O   UNL     1       1.714   5.157  20.690  0.00  0.00    +0.000 OA
ATOM     14  C   UNL     1       4.785   5.833  18.798  0.00  0.00    +0.000 C 
ATOM     15  C   UNL     1       4.934   5.463  17.311  0.00  0.00    +0.000 C 
BRANCH   7  16
ATOM     16  C   UNL     1       5.419   3.917  15.510  0.00  0.00    +0.000 C 
BRANCH  16  18
ATOM     17  C   UNL     1       6.865   4.421  13.489  0.00  0.00    +0.000 C 
ATOM     18  C   UNL     1       6.579   4.753  14.945  0.00  0.00    +0.000 C 
ENDBRANCH  16  18
ENDBRANCH   7  16
ENDBRANCH   1  12
BRANCH   4  19
ATOM     19  N   UNL     1       1.029  11.042  18.231  0.00  0.00    +0.000 N 
ATOM     20  C   UNL     1       1.341  12.193  18.930  0.00  0.00    +0.000 C 
ATOM     21  O   UNL     1       1.843  12.251  20.046  0.00  0.00    +0.000 OA
ATOM     22  N   UNL     1       1.078  13.344  18.219  0.00  0.00    +0.000 N 
ATOM     23  H   UNL     1       0.588  11.147  17.330  0.00  0.00    +0.000 HD
ATOM     24  H   UNL     1       0.330  13.320  17.543  0.00  0.00    +0.000 HD
BRANCH  22  25
ATOM     25  C   UNL     1       1.374  14.630  18.856  0.00  0.00    +0.000 C 
ATOM     26  C   UNL     1       2.598  15.280  18.227  0.00  0.00    +0.000 C 
ATOM     27  C   UNL     1       0.163  15.561  18.807  0.00  0.00    +0.000 C 
ENDBRANCH  22  25
ENDBRANCH   4  19
TORSDOF 5
ENDMDL
MODEL 9
REMARK VINA RESULT:      -7.1      4.980      7.288
REMARK  Name = 
REMARK  8 active torsions:
REMARK  status: ('A' for Active; 'I' for Inactive)
REMARK    1  A    between atoms: C_1  and  C_2
REMARK    2  A    between atoms: C_2  and  C_3
REMARK    3  A    between atoms: C_3  and  N_4
REMARK    4  A    between atoms: C_9  and  C_11
REMARK    5  A    between atoms: C_14  and  N_15
REMARK    6  A    between atoms: N_18  and  C_19
REMARK    7  A    between atoms: C_19  and  C_20
REMARK    8  A    between atoms: C_19  and  C_21
REMARK                            x       y       z     vdW  Elec       q    Type
REMARK                         _______ _______ _______ _____ _____    ______ ____
ROOT
ATOM      1  C   UNL     1       1.955   6.358  19.760  0.00  0.00    +0.000 A 
ATOM      2  C   UNL     1       2.103   7.244  18.706  0.00  0.00    +0.000 A 
ATOM      3  C   UNL     1       1.904   8.611  18.864  0.00  0.00    +0.000 A 
ATOM      4  C   UNL     1       1.429   9.136  20.060  0.00  0.00    +0.000 A 
ATOM      5  C   UNL     1       1.187   8.244  21.115  0.00  0.00    +0.000 A 
ATOM      6  C   UNL     1       1.459   6.864  20.968  0.00  0.00    +0.000 A 
ENDROOT
BRANCH   1  12
ATOM      7  N   UNL     1       5.781   4.370  17.157  0.00  0.00    +0.000 NA
ATOM      8  C   UNL     1       4.575   3.633  16.710  0.00  0.00    +0.000 C 
ATOM      9  C   UNL     1       4.063   2.557  17.669  0.00  0.00    +0.000 C 
ATOM     10  C   UNL     1       3.659   2.964  19.085  0.00  0.00    +0.000 C 
ATOM     11  N   UNL     1       3.483   4.395  19.297  0.00  0.00    +0.000 N 
ATOM     12  C   UNL     1       2.197   4.894  19.579  0.00  0.00    +0.000 C 
ATOM     13  O   UNL     1       1.218   4.156  19.685  0.00  0.00    +0.000 OA
ATOM     14  C   UNL     1       4.743   5.135  19.394  0.00  0.00    +0.000 C 
ATOM     15  C   UNL     1       5.390   5.489  18.043  0.00  0.00    +0.000 C 
BRANCH   7  16
ATOM     16  C   UNL     1       6.471   4.914  15.952  0.00  0.00    +0.000 C 
BRANCH  16  18
ATOM     17  C   UNL     1       6.423   4.003  13.586  0.00  0.00    +0.000 C 
ATOM     18  C   UNL     1       5.669   4.791  14.646  0.00  0.00    +0.000 C 
ENDBRANCH  16  18
ENDBRANCH   7  16
ENDBRANCH   1  12
BRANCH   4  19
ATOM     19  N   UNL     1       1.131  10.515  20.207  0.00  0.00    +0.000 N 
ATOM     20  C   UNL     1      -0.080  11.106  19.898  0.00  0.00    +0.000 C 
ATOM     21  O   UNL     1      -1.037  10.562  19.359  0.00  0.00    +0.000 OA
ATOM     22  N   UNL     1      -0.161  12.418  20.311  0.00  0.00    +0.000 N 
ATOM     23  H   UNL     1       1.842  11.096  20.624  0.00  0.00    +0.000 HD
ATOM     24  H   UNL     1       0.693  12.952  20.356  0.00  0.00    +0.000 HD
BRANCH  22  25
ATOM     25  C   UNL     1      -1.404  13.149  20.045  0.00  0.00    +0.000 C 
ATOM     26  C   UNL     1      -2.373  13.019  21.211  0.00  0.00    +0.000 C 
ATOM     27  C   UNL     1      -1.120  14.614  19.717  0.00  0.00    +0.000 C 
ENDBRANCH  22  25
ENDBRANCH   4  19
TORSDOF 5
ENDMDL
