MODEL 1
REMARK VINA RESULT:      -7.4      0.000      0.000
REMARK  Name = 
REMARK  7 active torsions:
REMARK  status: ('A' for Active; 'I' for Inactive)
REMARK    1  A    between atoms: C_1  and  C_2
REMARK    2  A    between atoms: C_6  and  O_7
REMARK    3  A    between atoms: O_7  and  C_8
REMARK    4  A    between atoms: C_8  and  C_9
REMARK    5  A    between atoms: C_9  and  N_10
REMARK    6  A    between atoms: N_10  and  S_11
REMARK    7  A    between atoms: S_11  and  C_14
REMARK                            x       y       z     vdW  Elec       q    Type
REMARK                         _______ _______ _______ _____ _____    ______ ____
ROOT
ATOM      1  N   UNL     1       7.571   6.550  16.949  0.00  0.00    +0.000 NA
ATOM      2  H   UNL     1       8.488   6.580  16.498  0.00  0.00    +0.000 HD
ENDROOT
BRANCH   1   3
ATOM      3  S   UNL     1       7.488   5.143  17.883  0.00  0.00    +0.000 S 
ATOM      4  O   UNL     1       8.117   4.101  17.107  0.00  0.00    +0.000 OA
ATOM      5  O   UNL     1       7.958   5.486  19.209  0.00  0.00    +0.000 OA
BRANCH   3   6
ATOM      6  C   UNL     1       5.752   4.788  17.963  0.00  0.00    +0.000 A 
ATOM      7  C   UNL     1       5.025   5.108  19.114  0.00  0.00    +0.000 A 
ATOM      8  C   UNL     1       3.651   4.847  19.149  0.00  0.00    +0.000 A 
ATOM      9  C   UNL     1       3.021   4.283  18.041  0.00  0.00    +0.000 A 
ATOM     10 CL   UNL     1       1.327   3.973  18.081  0.00  0.00    +0.000 Cl
ATOM     11  C   UNL     1       3.748   3.968  16.892  0.00  0.00    +0.000 A 
ATOM     12  C   UNL     1       5.119   4.222  16.851  0.00  0.00    +0.000 A 
ENDBRANCH   3   6
ENDBRANCH   1   3
BRANCH   1  13
ATOM     13  C   UNL     1       7.136   7.803  17.598  0.00  0.00    +0.000 C 
BRANCH  13  14
ATOM     14  C   UNL     1       8.338   8.585  18.134  0.00  0.00    +0.000 C 
BRANCH  14  15
ATOM     15  O   UNL     1       8.233   9.929  17.662  0.00  0.00    +0.000 OA
BRANCH  15  21
ATOM     16  C   UNL     1      10.352  14.410  18.053  0.00  0.00    +0.000 C 
ATOM     17  C   UNL     1      10.044  13.044  18.593  0.00  0.00    +0.000 A 
ATOM     18  C   UNL     1      10.522  12.640  19.843  0.00  0.00    +0.000 A 
ATOM     19  C   UNL     1      10.229  11.365  20.326  0.00  0.00    +0.000 A 
ATOM     20  C   UNL     1       9.458  10.491  19.560  0.00  0.00    +0.000 A 
ATOM     21  C   UNL     1       8.973  10.879  18.309  0.00  0.00    +0.000 A 
ATOM     22  C   UNL     1       9.267  12.157  17.830  0.00  0.00    +0.000 A 
ENDBRANCH  15  21
ENDBRANCH  14  15
ENDBRANCH  13  14
ENDBRANCH   1  13
TORSDOF 6
ENDMDL
MODEL 2
REMARK VINA RESULT:      -7.4      5.246      8.054
REMARK  Name = 
REMARK  7 active torsions:
REMARK  status: ('A' for Active; 'I' for Inactive)
REMARK    1  A    between atoms: C_1  and  C_2
REMARK    2  A    between atoms: C_6  and  O_7
REMARK    3  A    between atoms: O_7  and  C_8
REMARK    4  A    between atoms: C_8  and  C_9
REMARK    5  A    between atoms: C_9  and  N_10
REMARK    6  A    between atoms: N_10  and  S_11
REMARK    7  A    between atoms: S_11  and  C_14
REMARK                            x       y       z     vdW  Elec       q    Type
REMARK                         _______ _______ _______ _____ _____    ______ ____
ROOT
ATOM      1  N   UNL     1       4.595   5.917  19.282  0.00  0.00    +0.000 NA
ATOM      2  H   UNL     1       3.955   5.661  20.036  0.00  0.00    +0.000 HD
ENDROOT
BRANCH   1   3
ATOM      3  S   UNL     1       5.740   4.684  19.119  0.00  0.00    +0.000 S 
ATOM      4  O   UNL     1       6.948   5.164  19.750  0.00  0.00    +0.000 OA
ATOM      5  O   UNL     1       5.103   3.455  19.541  0.00  0.00    +0.000 OA
BRANCH   3   6
ATOM      6  C   UNL     1       6.034   4.607  17.371  0.00  0.00    +0.000 A 
ATOM      7  C   UNL     1       7.107   5.309  16.812  0.00  0.00    +0.000 A 
ATOM      8  C   UNL     1       7.342   5.214  15.435  0.00  0.00    +0.000 A 
ATOM      9  C   UNL     1       6.516   4.421  14.641  0.00  0.00    +0.000 A 
ATOM     10 CL   UNL     1       6.813   4.296  12.949  0.00  0.00    +0.000 Cl
ATOM     11  C   UNL     1       5.448   3.719  15.202  0.00  0.00    +0.000 A 
ATOM     12  C   UNL     1       5.206   3.811  16.573  0.00  0.00    +0.000 A 
ENDBRANCH   3   6
ENDBRANCH   1   3
BRANCH   1  13
ATOM     13  C   UNL     1       3.959   6.400  18.040  0.00  0.00    +0.000 C 
BRANCH  13  14
ATOM     14  C   UNL     1       2.478   6.711  18.271  0.00  0.00    +0.000 C 
BRANCH  14  15
ATOM     15  O   UNL     1       1.713   5.646  17.703  0.00  0.00    +0.000 OA
BRANCH  15  21
ATOM     16  C   UNL     1       1.347   2.702  21.694  0.00  0.00    +0.000 C 
ATOM     17  C   UNL     1       1.599   2.916  20.230  0.00  0.00    +0.000 A 
ATOM     18  C   UNL     1       1.918   1.844  19.390  0.00  0.00    +0.000 A 
ATOM     19  C   UNL     1       2.154   2.063  18.034  0.00  0.00    +0.000 A 
ATOM     20  C   UNL     1       2.073   3.354  17.513  0.00  0.00    +0.000 A 
ATOM     21  C   UNL     1       1.758   4.436  18.338  0.00  0.00    +0.000 A 
ATOM     22  C   UNL     1       1.520   4.212  19.695  0.00  0.00    +0.000 A 
ENDBRANCH  15  21
ENDBRANCH  14  15
ENDBRANCH  13  14
ENDBRANCH   1  13
TORSDOF 6
ENDMDL
MODEL 3
REMARK VINA RESULT:      -7.4      5.710      7.125
REMARK  Name = 
REMARK  7 active torsions:
REMARK  status: ('A' for Active; 'I' for Inactive)
REMARK    1  A    between atoms: C_1  and  C_2
REMARK    2  A    between atoms: C_6  and  O_7
REMARK    3  A    between atoms: O_7  and  C_8
REMARK    4  A    between atoms: C_8  and  C_9
REMARK    5  A    between atoms: C_9  and  N_10
REMARK    6  A    between atoms: N_10  and  S_11
REMARK    7  A    between atoms: S_11  and  C_14
REMARK                            x       y       z     vdW  Elec       q    Type
REMARK                         _______ _______ _______ _____ _____    ______ ____
ROOT
ATOM      1  N   UNL     1       2.816   2.684  19.929  0.00  0.00    +0.000 NA
ATOM      2  H   UNL     1       3.396   2.027  20.456  0.00  0.00    +0.000 HD
ENDROOT
BRANCH   1   3
ATOM      3  S   UNL     1       3.200   2.531  18.290  0.00  0.00    +0.000 S 
ATOM      4  O   UNL     1       3.862   1.256  18.144  0.00  0.00    +0.000 OA
ATOM      5  O   UNL     1       2.003   2.851  17.542  0.00  0.00    +0.000 OA
BRANCH   3   6
ATOM      6  C   UNL     1       4.406   3.803  18.017  0.00  0.00    +0.000 A 
ATOM      7  C   UNL     1       5.218   4.234  19.070  0.00  0.00    +0.000 A 
ATOM      8  C   UNL     1       6.184   5.218  18.830  0.00  0.00    +0.000 A 
ATOM      9  C   UNL     1       6.332   5.751  17.550  0.00  0.00    +0.000 A 
ATOM     10 CL   UNL     1       7.528   6.954  17.253  0.00  0.00    +0.000 Cl
ATOM     11  C   UNL     1       5.522   5.316  16.499  0.00  0.00    +0.000 A 
ATOM     12  C   UNL     1       4.555   4.337  16.732  0.00  0.00    +0.000 A 
ENDBRANCH   3   6
ENDBRANCH   1   3
BRANCH   1  13
ATOM     13  C   UNL     1       1.380   2.689  20.275  0.00  0.00    +0.000 C 
BRANCH  13  14
ATOM     14  C   UNL     1       0.864   4.123  20.429  0.00  0.00    +0.000 C 
BRANCH  14  15
ATOM     15  O   UNL     1       1.990   4.974  20.645  0.00  0.00    +0.000 OA
BRANCH  15  21
ATOM     16  C   UNL     1       0.805   9.791  20.992  0.00  0.00    +0.000 C 
ATOM     17  C   UNL     1       1.368   8.621  20.239  0.00  0.00    +0.000 A 
ATOM     18  C   UNL     1       1.859   8.771  18.938  0.00  0.00    +0.000 A 
ATOM     19  C   UNL     1       2.374   7.672  18.253  0.00  0.00    +0.000 A 
ATOM     20  C   UNL     1       2.398   6.419  18.865  0.00  0.00    +0.000 A 
ATOM     21  C   UNL     1       1.910   6.251  20.163  0.00  0.00    +0.000 A 
ATOM     22  C   UNL     1       1.397   7.355  20.846  0.00  0.00    +0.000 A 
ENDBRANCH  15  21
ENDBRANCH  14  15
ENDBRANCH  13  14
ENDBRANCH   1  13
TORSDOF 6
ENDMDL
MODEL 4
REMARK VINA RESULT:      -7.3      4.872      7.741
REMARK  Name = 
REMARK  7 active torsions:
REMARK  status: ('A' for Active; 'I' for Inactive)
REMARK    1  A    between atoms: C_1  and  C_2
REMARK    2  A    between atoms: C_6  and  O_7
REMARK    3  A    between atoms: O_7  and  C_8
REMARK    4  A    between atoms: C_8  and  C_9
REMARK    5  A    between atoms: C_9  and  N_10
REMARK    6  A    between atoms: N_10  and  S_11
REMARK    7  A    between atoms: S_11  and  C_14
REMARK                            x       y       z     vdW  Elec       q    Type
REMARK                         _______ _______ _______ _____ _____    ______ ____
ROOT
ATOM      1  N   UNL     1       5.619   5.964  18.245  0.00  0.00    +0.000 NA
ATOM      2  H   UNL     1       5.072   5.118  18.414  0.00  0.00    +0.000 HD
ENDROOT
BRANCH   1   3
ATOM      3  S   UNL     1       7.107   5.508  17.585  0.00  0.00    +0.000 S 
ATOM      4  O   UNL     1       7.843   6.730  17.357  0.00  0.00    +0.000 OA
ATOM      5  O   UNL     1       7.636   4.452  18.421  0.00  0.00    +0.000 OA
BRANCH   3   6
ATOM      6  C   UNL     1       6.680   4.829  16.003  0.00  0.00    +0.000 A 
ATOM      7  C   UNL     1       5.602   3.945  15.890  0.00  0.00    +0.000 A 
ATOM      8  C   UNL     1       5.261   3.441  14.629  0.00  0.00    +0.000 A 
ATOM      9  C   UNL     1       5.988   3.827  13.505  0.00  0.00    +0.000 A 
ATOM     10 CL   UNL     1       5.560   3.216  11.953  0.00  0.00    +0.000 Cl
ATOM     11  C   UNL     1       7.061   4.713  13.620  0.00  0.00    +0.000 A 
ATOM     12  C   UNL     1       7.409   5.216  14.874  0.00  0.00    +0.000 A 
ENDBRANCH   3   6
ENDBRANCH   1   3
BRANCH   1  13
ATOM     13  C   UNL     1       4.904   7.065  17.567  0.00  0.00    +0.000 C 
BRANCH  13  14
ATOM     14  C   UNL     1       3.389   6.912  17.732  0.00  0.00    +0.000 C 
BRANCH  14  15
ATOM     15  O   UNL     1       3.136   6.467  19.066  0.00  0.00    +0.000 OA
BRANCH  15  21
ATOM     16  C   UNL     1       1.383   2.661  21.743  0.00  0.00    +0.000 C 
ATOM     17  C   UNL     1       1.589   3.372  20.438  0.00  0.00    +0.000 A 
ATOM     18  C   UNL     1       1.112   2.831  19.240  0.00  0.00    +0.000 A 
ATOM     19  C   UNL     1       1.317   3.504  18.037  0.00  0.00    +0.000 A 
ATOM     20  C   UNL     1       2.000   4.720  18.027  0.00  0.00    +0.000 A 
ATOM     21  C   UNL     1       2.484   5.274  19.214  0.00  0.00    +0.000 A 
ATOM     22  C   UNL     1       2.275   4.598  20.417  0.00  0.00    +0.000 A 
ENDBRANCH  15  21
ENDBRANCH  14  15
ENDBRANCH  13  14
ENDBRANCH   1  13
TORSDOF 6
ENDMDL
MODEL 5
REMARK VINA RESULT:      -7.3      1.281      1.680
REMARK  Name = 
REMARK  7 active torsions:
REMARK  status: ('A' for Active; 'I' for Inactive)
REMARK    1  A    between atoms: C_1  and  C_2
REMARK    2  A    between atoms: C_6  and  O_7
REMARK    3  A    between atoms: O_7  and  C_8
REMARK    4  A    between atoms: C_8  and  C_9
REMARK    5  A    between atoms: C_9  and  N_10
REMARK    6  A    between atoms: N_10  and  S_11
REMARK    7  A    between atoms: S_11  and  C_14
REMARK                            x       y       z     vdW  Elec       q    Type
REMARK                         _______ _______ _______ _____ _____    ______ ____
ROOT
ATOM      1  N   UNL     1       7.756   6.709  16.461  0.00  0.00    +0.000 NA
ATOM      2  H   UNL     1       8.774   6.621  16.464  0.00  0.00    +0.000 HD
ENDROOT
BRANCH   1   3
ATOM      3  S   UNL     1       7.092   5.154  16.460  0.00  0.00    +0.000 S 
ATOM      4  O   UNL     1       6.650   4.901  15.108  0.00  0.00    +0.000 OA
ATOM      5  O   UNL     1       8.044   4.285  17.118  0.00  0.00    +0.000 OA
BRANCH   3   6
ATOM      6  C   UNL     1       5.651   5.307  17.483  0.00  0.00    +0.000 A 
ATOM      7  C   UNL     1       4.415   5.617  16.907  0.00  0.00    +0.000 A 
ATOM      8  C   UNL     1       3.283   5.705  17.725  0.00  0.00    +0.000 A 
ATOM      9  C   UNL     1       3.395   5.478  19.096  0.00  0.00    +0.000 A 
ATOM     10 CL   UNL     1       1.999   5.576  20.100  0.00  0.00    +0.000 Cl
ATOM     11  C   UNL     1       4.630   5.166  19.668  0.00  0.00    +0.000 A 
ATOM     12  C   UNL     1       5.763   5.079  18.858  0.00  0.00    +0.000 A 
ENDBRANCH   3   6
ENDBRANCH   1   3
BRANCH   1  13
ATOM     13  C   UNL     1       7.194   7.668  17.432  0.00  0.00    +0.000 C 
BRANCH  13  14
ATOM     14  C   UNL     1       8.309   8.363  18.219  0.00  0.00    +0.000 C 
BRANCH  14  15
ATOM     15  O   UNL     1       8.273   9.754  17.894  0.00  0.00    +0.000 OA
BRANCH  15  21
ATOM     16  C   UNL     1      12.101  12.915  17.593  0.00  0.00    +0.000 C 
ATOM     17  C   UNL     1      11.124  12.096  18.386  0.00  0.00    +0.000 A 
ATOM     18  C   UNL     1      11.160  12.087  19.784  0.00  0.00    +0.000 A 
ATOM     19  C   UNL     1      10.247  11.316  20.503  0.00  0.00    +0.000 A 
ATOM     20  C   UNL     1       9.297  10.551  19.827  0.00  0.00    +0.000 A 
ATOM     21  C   UNL     1       9.249  10.547  18.431  0.00  0.00    +0.000 A 
ATOM     22  C   UNL     1      10.163  11.322  17.715  0.00  0.00    +0.000 A 
ENDBRANCH  15  21
ENDBRANCH  14  15
ENDBRANCH  13  14
ENDBRANCH   1  13
TORSDOF 6
ENDMDL
MODEL 6
REMARK VINA RESULT:      -7.2      1.219      1.306
REMARK  Name = 
REMARK  7 active torsions:
REMARK  status: ('A' for Active; 'I' for Inactive)
REMARK    1  A    between atoms: C_1  and  C_2
REMARK    2  A    between atoms: C_6  and  O_7
REMARK    3  A    between atoms: O_7  and  C_8
REMARK    4  A    between atoms: C_8  and  C_9
REMARK    5  A    between atoms: C_9  and  N_10
REMARK    6  A    between atoms: N_10  and  S_11
REMARK    7  A    between atoms: S_11  and  C_14
REMARK                            x       y       z     vdW  Elec       q    Type
REMARK                         _______ _______ _______ _____ _____    ______ ____
ROOT
ATOM      1  N   UNL     1       7.479   6.775  18.418  0.00  0.00    +0.000 NA
ATOM      2  H   UNL     1       6.742   6.900  19.114  0.00  0.00    +0.000 HD
ENDROOT
BRANCH   1   3
ATOM      3  S   UNL     1       7.097   5.420  17.482  0.00  0.00    +0.000 S 
ATOM      4  O   UNL     1       7.031   5.876  16.113  0.00  0.00    +0.000 OA
ATOM      5  O   UNL     1       7.997   4.360  17.883  0.00  0.00    +0.000 OA
BRANCH   3   6
ATOM      6  C   UNL     1       5.451   5.001  17.994  0.00  0.00    +0.000 A 
ATOM      7  C   UNL     1       5.253   4.043  18.993  0.00  0.00    +0.000 A 
ATOM      8  C   UNL     1       3.949   3.746  19.405  0.00  0.00    +0.000 A 
ATOM      9  C   UNL     1       2.867   4.407  18.826  0.00  0.00    +0.000 A 
ATOM     10 CL   UNL     1       1.264   4.049  19.342  0.00  0.00    +0.000 Cl
ATOM     11  C   UNL     1       3.068   5.366  17.831  0.00  0.00    +0.000 A 
ATOM     12  C   UNL     1       4.365   5.665  17.414  0.00  0.00    +0.000 A 
ENDBRANCH   3   6
ENDBRANCH   1   3
BRANCH   1  13
ATOM     13  C   UNL     1       7.883   7.993  17.686  0.00  0.00    +0.000 C 
BRANCH  13  14
ATOM     14  C   UNL     1       8.770   8.884  18.560  0.00  0.00    +0.000 C 
BRANCH  14  15
ATOM     15  O   UNL     1       8.778  10.192  17.987  0.00  0.00    +0.000 OA
BRANCH  15  21
ATOM     16  C   UNL     1      12.330  13.616  17.363  0.00  0.00    +0.000 C 
ATOM     17  C   UNL     1      11.471  12.749  18.236  0.00  0.00    +0.000 A 
ATOM     18  C   UNL     1      11.598  12.779  19.629  0.00  0.00    +0.000 A 
ATOM     19  C   UNL     1      10.795  11.963  20.424  0.00  0.00    +0.000 A 
ATOM     20  C   UNL     1       9.863  11.112  19.829  0.00  0.00    +0.000 A 
ATOM     21  C   UNL     1       9.724  11.068  18.440  0.00  0.00    +0.000 A 
ATOM     22  C   UNL     1      10.529  11.889  17.648  0.00  0.00    +0.000 A 
ENDBRANCH  15  21
ENDBRANCH  14  15
ENDBRANCH  13  14
ENDBRANCH   1  13
TORSDOF 6
ENDMDL
MODEL 7
REMARK VINA RESULT:      -7.2      1.030      1.611
REMARK  Name = 
REMARK  7 active torsions:
REMARK  status: ('A' for Active; 'I' for Inactive)
REMARK    1  A    between atoms: C_1  and  C_2
REMARK    2  A    between atoms: C_6  and  O_7
REMARK    3  A    between atoms: O_7  and  C_8
REMARK    4  A    between atoms: C_8  and  C_9
REMARK    5  A    between atoms: C_9  and  N_10
REMARK    6  A    between atoms: N_10  and  S_11
REMARK    7  A    between atoms: S_11  and  C_14
REMARK                            x       y       z     vdW  Elec       q    Type
REMARK                         _______ _______ _______ _____ _____    ______ ____
ROOT
ATOM      1  N   UNL     1       7.824   6.605  18.075  0.00  0.00    +0.000 NA
ATOM      2  H   UNL     1       7.800   6.442  19.083  0.00  0.00    +0.000 HD
ENDROOT
BRANCH   1   3
ATOM      3  S   UNL     1       7.471   5.147  17.295  0.00  0.00    +0.000 S 
ATOM      4  O   UNL     1       7.466   5.433  15.879  0.00  0.00    +0.000 OA
ATOM      5  O   UNL     1       8.344   4.141  17.861  0.00  0.00    +0.000 OA
BRANCH   3   6
ATOM      6  C   UNL     1       5.801   4.798  17.784  0.00  0.00    +0.000 A 
ATOM      7  C   UNL     1       5.413   4.967  19.117  0.00  0.00    +0.000 A 
ATOM      8  C   UNL     1       4.085   4.715  19.479  0.00  0.00    +0.000 A 
ATOM      9  C   UNL     1       3.165   4.307  18.514  0.00  0.00    +0.000 A 
ATOM     10 CL   UNL     1       1.529   4.008  18.959  0.00  0.00    +0.000 Cl
ATOM     11  C   UNL     1       3.555   4.143  17.183  0.00  0.00    +0.000 A 
ATOM     12  C   UNL     1       4.878   4.390  16.816  0.00  0.00    +0.000 A 
ENDBRANCH   3   6
ENDBRANCH   1   3
BRANCH   1  13
ATOM     13  C   UNL     1       7.098   7.801  17.603  0.00  0.00    +0.000 C 
BRANCH  13  14
ATOM     14  C   UNL     1       8.024   9.021  17.570  0.00  0.00    +0.000 C 
BRANCH  14  15
ATOM     15  O   UNL     1       8.745   9.058  18.802  0.00  0.00    +0.000 OA
BRANCH  15  21
ATOM     16  C   UNL     1       9.663  12.750  22.004  0.00  0.00    +0.000 C 
ATOM     17  C   UNL     1       9.811  12.102  20.658  0.00  0.00    +0.000 A 
ATOM     18  C   UNL     1      10.558  12.711  19.645  0.00  0.00    +0.000 A 
ATOM     19  C   UNL     1      10.680  12.097  18.399  0.00  0.00    +0.000 A 
ATOM     20  C   UNL     1      10.056  10.872  18.163  0.00  0.00    +0.000 A 
ATOM     21  C   UNL     1       9.305  10.251  19.164  0.00  0.00    +0.000 A 
ATOM     22  C   UNL     1       9.187  10.869  20.410  0.00  0.00    +0.000 A 
ENDBRANCH  15  21
ENDBRANCH  14  15
ENDBRANCH  13  14
ENDBRANCH   1  13
TORSDOF 6
ENDMDL
MODEL 8
REMARK VINA RESULT:      -7.2      1.065      1.682
REMARK  Name = 
REMARK  7 active torsions:
REMARK  status: ('A' for Active; 'I' for Inactive)
REMARK    1  A    between atoms: C_1  and  C_2
REMARK    2  A    between atoms: C_6  and  O_7
REMARK    3  A    between atoms: O_7  and  C_8
REMARK    4  A    between atoms: C_8  and  C_9
REMARK    5  A    between atoms: C_9  and  N_10
REMARK    6  A    between atoms: N_10  and  S_11
REMARK    7  A    between atoms: S_11  and  C_14
REMARK                            x       y       z     vdW  Elec       q    Type
REMARK                         _______ _______ _______ _____ _____    ______ ____
ROOT
ATOM      1  N   UNL     1       7.219   6.884  17.197  0.00  0.00    +0.000 NA
ATOM      2  H   UNL     1       7.384   7.095  16.211  0.00  0.00    +0.000 HD
ENDROOT
BRANCH   1   3
ATOM      3  S   UNL     1       7.212   5.204  17.382  0.00  0.00    +0.000 S 
ATOM      4  O   UNL     1       7.515   4.649  16.083  0.00  0.00    +0.000 OA
ATOM      5  O   UNL     1       8.024   4.901  18.542  0.00  0.00    +0.000 OA
BRANCH   3   6
ATOM      6  C   UNL     1       5.519   4.825  17.752  0.00  0.00    +0.000 A 
ATOM      7  C   UNL     1       4.738   4.133  16.822  0.00  0.00    +0.000 A 
ATOM      8  C   UNL     1       3.413   3.817  17.142  0.00  0.00    +0.000 A 
ATOM      9  C   UNL     1       2.888   4.186  18.379  0.00  0.00    +0.000 A 
ATOM     10 CL   UNL     1       1.261   3.787  18.777  0.00  0.00    +0.000 Cl
ATOM     11  C   UNL     1       3.671   4.874  19.308  0.00  0.00    +0.000 A 
ATOM     12  C   UNL     1       4.992   5.194  18.995  0.00  0.00    +0.000 A 
ENDBRANCH   3   6
ENDBRANCH   1   3
BRANCH   1  13
ATOM     13  C   UNL     1       8.031   7.653  18.161  0.00  0.00    +0.000 C 
BRANCH  13  14
ATOM     14  C   UNL     1       8.041   9.141  17.799  0.00  0.00    +0.000 C 
BRANCH  14  15
ATOM     15  O   UNL     1       9.010   9.787  18.626  0.00  0.00    +0.000 OA
BRANCH  15  21
ATOM     16  C   UNL     1       8.135  14.634  17.943  0.00  0.00    +0.000 C 
ATOM     17  C   UNL     1       9.046  13.442  17.923  0.00  0.00    +0.000 A 
ATOM     18  C   UNL     1      10.382  13.563  17.527  0.00  0.00    +0.000 A 
ATOM     19  C   UNL     1      11.212  12.443  17.510  0.00  0.00    +0.000 A 
ATOM     20  C   UNL     1      10.709  11.198  17.887  0.00  0.00    +0.000 A 
ATOM     21  C   UNL     1       9.376  11.059  18.284  0.00  0.00    +0.000 A 
ATOM     22  C   UNL     1       8.549  12.184  18.301  0.00  0.00    +0.000 A 
ENDBRANCH  15  21
ENDBRANCH  14  15
ENDBRANCH  13  14
ENDBRANCH   1  13
TORSDOF 6
ENDMDL
MODEL 9
REMARK VINA RESULT:      -7.1      1.418      1.906
REMARK  Name = 
REMARK  7 active torsions:
REMARK  status: ('A' for Active; 'I' for Inactive)
REMARK    1  A    between atoms: C_1  and  C_2
REMARK    2  A    between atoms: C_6  and  O_7
REMARK    3  A    between atoms: O_7  and  C_8
REMARK    4  A    between atoms: C_8  and  C_9
REMARK    5  A    between atoms: C_9  and  N_10
REMARK    6  A    between atoms: N_10  and  S_11
REMARK    7  A    between atoms: S_11  and  C_14
REMARK                            x       y       z     vdW  Elec       q    Type
REMARK                         _______ _______ _______ _____ _____    ______ ____
ROOT
ATOM      1  N   UNL     1       6.710   7.417  17.058  0.00  0.00    +0.000 NA
ATOM      2  H   UNL     1       6.594   7.976  16.211  0.00  0.00    +0.000 HD
ENDROOT
BRANCH   1   3
ATOM      3  S   UNL     1       6.473   5.792  16.655  0.00  0.00    +0.000 S 
ATOM      4  O   UNL     1       6.126   5.767  15.253  0.00  0.00    +0.000 OA
ATOM      5  O   UNL     1       7.612   5.058  17.166  0.00  0.00    +0.000 OA
BRANCH   3   6
ATOM      6  C   UNL     1       5.031   5.331  17.579  0.00  0.00    +0.000 A 
ATOM      7  C   UNL     1       3.877   6.118  17.513  0.00  0.00    +0.000 A 
ATOM      8  C   UNL     1       2.739   5.724  18.226  0.00  0.00    +0.000 A 
ATOM      9  C   UNL     1       2.763   4.555  18.984  0.00  0.00    +0.000 A 
ATOM     10 CL   UNL     1       1.358   4.065  19.852  0.00  0.00    +0.000 Cl
ATOM     11  C   UNL     1       3.915   3.769  19.046  0.00  0.00    +0.000 A 
ATOM     12  C   UNL     1       5.054   4.158  18.340  0.00  0.00    +0.000 A 
ENDBRANCH   3   6
ENDBRANCH   1   3
BRANCH   1  13
ATOM     13  C   UNL     1       7.899   7.731  17.875  0.00  0.00    +0.000 C 
BRANCH  13  14
ATOM     14  C   UNL     1       8.128   9.243  17.945  0.00  0.00    +0.000 C 
BRANCH  14  15
ATOM     15  O   UNL     1       9.021   9.502  19.030  0.00  0.00    +0.000 OA
BRANCH  15  21
ATOM     16  C   UNL     1      10.084  13.735  21.412  0.00  0.00    +0.000 C 
ATOM     17  C   UNL     1      10.125  12.860  20.194  0.00  0.00    +0.000 A 
ATOM     18  C   UNL     1      10.735  13.298  19.014  0.00  0.00    +0.000 A 
ATOM     19  C   UNL     1      10.759  12.473  17.890  0.00  0.00    +0.000 A 
ATOM     20  C   UNL     1      10.172  11.208  17.942  0.00  0.00    +0.000 A 
ATOM     21  C   UNL     1       9.558  10.756  19.112  0.00  0.00    +0.000 A 
ATOM     22  C   UNL     1       9.538  11.585  20.236  0.00  0.00    +0.000 A 
ENDBRANCH  15  21
ENDBRANCH  14  15
ENDBRANCH  13  14
ENDBRANCH   1  13
TORSDOF 6
ENDMDL
