MODEL 1
REMARK VINA RESULT:      -8.0      0.000      0.000
REMARK  Name = 
REMARK  13 active torsions:
REMARK  status: ('A' for Active; 'I' for Inactive)
REMARK    1  A    between atoms: C_1  and  O_2
REMARK    2  A    between atoms: O_2  and  C_3
REMARK    3  A    between atoms: C_6  and  C_7
REMARK    4  A    between atoms: C_7  and  C_8
REMARK    5  A    between atoms: N_10  and  C_11
REMARK    6  A    between atoms: C_11  and  C_12
REMARK    7  A    between atoms: C_11  and  C_16
REMARK    8  A    between atoms: C_12  and  C_13
REMARK    9  A    between atoms: C_13  and  C_14
REMARK   10  A    between atoms: C_13  and  C_15
REMARK   11  A    between atoms: N_18  and  C_19
REMARK   12  A    between atoms: C_27  and  O_28
REMARK   13  A    between atoms: O_28  and  C_29
REMARK                            x       y       z     vdW  Elec       q    Type
REMARK                         _______ _______ _______ _____ _____    ______ ____
ROOT
ATOM      1  C   UNL     1       2.591   5.132  18.887  0.00  0.00    +0.000 C 
ENDROOT
BRANCH   1   4
ATOM      2  C   UNL     1       2.316   7.621  18.836  0.00  0.00    +0.000 C 
ATOM      3  O   UNL     1       2.069   7.697  20.036  0.00  0.00    +0.000 OA
ATOM      4  N   UNL     1       2.577   6.430  18.202  0.00  0.00    +0.000 N 
ATOM      5  H   UNL     1       3.056   6.458  17.303  0.00  0.00    +0.000 HD
BRANCH   2   6
ATOM      6  C   UNL     1       2.313   8.835  17.920  0.00  0.00    +0.000 C 
BRANCH   6  10
ATOM      7  C   UNL     1      -0.988  11.573  18.596  0.00  0.00    +0.000 A 
ATOM      8  C   UNL     1       0.306  11.874  19.056  0.00  0.00    +0.000 A 
ATOM      9  C   UNL     1       1.378  11.004  18.827  0.00  0.00    +0.000 A 
ATOM     10  C   UNL     1       1.174   9.795  18.160  0.00  0.00    +0.000 A 
ATOM     11  C   UNL     1      -0.133   9.461  17.779  0.00  0.00    +0.000 A 
ATOM     12  C   UNL     1      -1.217  10.330  17.988  0.00  0.00    +0.000 A 
BRANCH   7  14
ATOM     13  C   UNL     1      -2.425  12.679  20.127  0.00  0.00    +0.000 C 
ATOM     14  O   UNL     1      -2.030  12.441  18.776  0.00  0.00    +0.000 OA
ENDBRANCH   7  14
BRANCH  12  15
ATOM     15  O   UNL     1      -2.398   9.797  17.539  0.00  0.00    +0.000 OA
ATOM     16  C   UNL     1      -2.764   9.976  16.179  0.00  0.00    +0.000 C 
ENDBRANCH  12  15
ENDBRANCH   6  10
ENDBRANCH   2   6
ENDBRANCH   1   4
BRANCH   1  17
ATOM     17  C   UNL     1       4.050   4.615  18.846  0.00  0.00    +0.000 C 
ATOM     18  O   UNL     1       4.479   3.894  19.743  0.00  0.00    +0.000 OA
ATOM     19  N   UNL     1       4.830   4.979  17.763  0.00  0.00    +0.000 N 
ATOM     20  H   UNL     1       4.557   5.803  17.236  0.00  0.00    +0.000 HD
BRANCH  19  21
ATOM     21  C   UNL     1       6.245   4.575  17.730  0.00  0.00    +0.000 C 
ATOM     22  C   UNL     1       6.785   4.337  16.319  0.00  0.00    +0.000 C 
ATOM     23  C   UNL     1       6.841   5.648  15.552  0.00  0.00    +0.000 C 
ATOM     24  O   UNL     1       7.792   6.522  16.159  0.00  0.00    +0.000 OA
ATOM     25  C   UNL     1       7.510   6.813  17.519  0.00  0.00    +0.000 C 
ATOM     26  C   UNL     1       7.159   5.606  18.383  0.00  0.00    +0.000 C 
ATOM     27  O   UNL     1       7.479   5.538  19.570  0.00  0.00    +0.000 OA
ENDBRANCH  19  21
ENDBRANCH   1  17
BRANCH   1  28
ATOM     28  C   UNL     1       1.538   4.184  18.286  0.00  0.00    +0.000 C 
BRANCH  28  29
ATOM     29  C   UNL     1       0.991   3.077  19.218  0.00  0.00    +0.000 C 
ATOM     30  C   UNL     1       1.750   1.752  19.131  0.00  0.00    +0.000 C 
ATOM     31  C   UNL     1       1.036   3.555  20.675  0.00  0.00    +0.000 C 
ENDBRANCH  28  29
ENDBRANCH   1  28
TORSDOF 9
ENDMDL
MODEL 2
REMARK VINA RESULT:      -7.9      0.869      1.909
REMARK  Name = 
REMARK  13 active torsions:
REMARK  status: ('A' for Active; 'I' for Inactive)
REMARK    1  A    between atoms: C_1  and  O_2
REMARK    2  A    between atoms: O_2  and  C_3
REMARK    3  A    between atoms: C_6  and  C_7
REMARK    4  A    between atoms: C_7  and  C_8
REMARK    5  A    between atoms: N_10  and  C_11
REMARK    6  A    between atoms: C_11  and  C_12
REMARK    7  A    between atoms: C_11  and  C_16
REMARK    8  A    between atoms: C_12  and  C_13
REMARK    9  A    between atoms: C_13  and  C_14
REMARK   10  A    between atoms: C_13  and  C_15
REMARK   11  A    between atoms: N_18  and  C_19
REMARK   12  A    between atoms: C_27  and  O_28
REMARK   13  A    between atoms: O_28  and  C_29
REMARK                            x       y       z     vdW  Elec       q    Type
REMARK                         _______ _______ _______ _____ _____    ______ ____
ROOT
ATOM      1  C   UNL     1       2.481   5.070  18.783  0.00  0.00    +0.000 C 
ENDROOT
BRANCH   1   4
ATOM      2  C   UNL     1       2.321   7.569  18.735  0.00  0.00    +0.000 C 
ATOM      3  O   UNL     1       2.146   7.659  19.946  0.00  0.00    +0.000 OA
ATOM      4  N   UNL     1       2.490   6.366  18.093  0.00  0.00    +0.000 N 
ATOM      5  H   UNL     1       2.917   6.369  17.168  0.00  0.00    +0.000 HD
BRANCH   2   6
ATOM      6  C   UNL     1       2.323   8.780  17.814  0.00  0.00    +0.000 C 
BRANCH   6  10
ATOM      7  C   UNL     1      -0.640  11.799  18.796  0.00  0.00    +0.000 A 
ATOM      8  C   UNL     1      -1.023  10.563  18.244  0.00  0.00    +0.000 A 
ATOM      9  C   UNL     1      -0.074   9.580  17.941  0.00  0.00    +0.000 A 
ATOM     10  C   UNL     1       1.284   9.821  18.152  0.00  0.00    +0.000 A 
ATOM     11  C   UNL     1       1.667  11.085  18.622  0.00  0.00    +0.000 A 
ATOM     12  C   UNL     1       0.726  12.077  18.946  0.00  0.00    +0.000 A 
BRANCH   7  14
ATOM     13  C   UNL     1      -2.399  12.438  20.254  0.00  0.00    +0.000 C 
ATOM     14  O   UNL     1      -1.566  12.746  19.138  0.00  0.00    +0.000 OA
ENDBRANCH   7  14
BRANCH  12  15
ATOM     15  O   UNL     1       1.325  13.231  19.383  0.00  0.00    +0.000 OA
ATOM     16  C   UNL     1       1.544  13.412  20.775  0.00  0.00    +0.000 C 
ENDBRANCH  12  15
ENDBRANCH   6  10
ENDBRANCH   2   6
ENDBRANCH   1   4
BRANCH   1  17
ATOM     17  C   UNL     1       3.951   4.588  18.855  0.00  0.00    +0.000 C 
ATOM     18  O   UNL     1       4.335   3.905  19.801  0.00  0.00    +0.000 OA
ATOM     19  N   UNL     1       4.794   4.938  17.815  0.00  0.00    +0.000 N 
ATOM     20  H   UNL     1       4.539   5.739  17.246  0.00  0.00    +0.000 HD
BRANCH  19  21
ATOM     21  C   UNL     1       6.217   4.568  17.889  0.00  0.00    +0.000 C 
ATOM     22  C   UNL     1       6.878   4.386  16.521  0.00  0.00    +0.000 C 
ATOM     23  C   UNL     1       6.963   5.721  15.800  0.00  0.00    +0.000 C 
ATOM     24  O   UNL     1       7.838   6.597  16.510  0.00  0.00    +0.000 OA
ATOM     25  C   UNL     1       7.438   6.840  17.849  0.00  0.00    +0.000 C 
ATOM     26  C   UNL     1       7.047   5.599  18.645  0.00  0.00    +0.000 C 
ATOM     27  O   UNL     1       7.269   5.502  19.853  0.00  0.00    +0.000 OA
ENDBRANCH  19  21
ENDBRANCH   1  17
BRANCH   1  28
ATOM     28  C   UNL     1       1.501   4.096  18.106  0.00  0.00    +0.000 C 
BRANCH  28  29
ATOM     29  C   UNL     1       0.959   2.941  18.982  0.00  0.00    +0.000 C 
ATOM     30  C   UNL     1       1.803   1.666  18.933  0.00  0.00    +0.000 C 
ATOM     31  C   UNL     1       0.870   3.395  20.445  0.00  0.00    +0.000 C 
ENDBRANCH  28  29
ENDBRANCH   1  28
TORSDOF 9
ENDMDL
MODEL 3
REMARK VINA RESULT:      -7.4      1.498      1.758
REMARK  Name = 
REMARK  13 active torsions:
REMARK  status: ('A' for Active; 'I' for Inactive)
REMARK    1  A    between atoms: C_1  and  O_2
REMARK    2  A    between atoms: O_2  and  C_3
REMARK    3  A    between atoms: C_6  and  C_7
REMARK    4  A    between atoms: C_7  and  C_8
REMARK    5  A    between atoms: N_10  and  C_11
REMARK    6  A    between atoms: C_11  and  C_12
REMARK    7  A    between atoms: C_11  and  C_16
REMARK    8  A    between atoms: C_12  and  C_13
REMARK    9  A    between atoms: C_13  and  C_14
REMARK   10  A    between atoms: C_13  and  C_15
REMARK   11  A    between atoms: N_18  and  C_19
REMARK   12  A    between atoms: C_27  and  O_28
REMARK   13  A    between atoms: O_28  and  C_29
REMARK                            x       y       z     vdW  Elec       q    Type
REMARK                         _______ _______ _______ _____ _____    ______ ____
ROOT
ATOM      1  C   UNL     1       2.425   5.029  18.782  0.00  0.00    +0.000 C 
ENDROOT
BRANCH   1   4
ATOM      2  C   UNL     1       2.328   7.529  18.665  0.00  0.00    +0.000 C 
ATOM      3  O   UNL     1       2.242   7.661  19.882  0.00  0.00    +0.000 OA
ATOM      4  N   UNL     1       2.419   6.303  18.052  0.00  0.00    +0.000 N 
ATOM      5  H   UNL     1       2.780   6.266  17.100  0.00  0.00    +0.000 HD
BRANCH   2   6
ATOM      6  C   UNL     1       2.297   8.711  17.708  0.00  0.00    +0.000 C 
BRANCH   6  10
ATOM      7  C   UNL     1       0.659  12.342  19.437  0.00  0.00    +0.000 A 
ATOM      8  C   UNL     1       1.777  12.388  18.586  0.00  0.00    +0.000 A 
ATOM      9  C   UNL     1       2.300  11.223  18.012  0.00  0.00    +0.000 A 
ATOM     10  C   UNL     1       1.736   9.980  18.303  0.00  0.00    +0.000 A 
ATOM     11  C   UNL     1       0.676   9.931  19.219  0.00  0.00    +0.000 A 
ATOM     12  C   UNL     1       0.130  11.093  19.791  0.00  0.00    +0.000 A 
BRANCH   7  14
ATOM     13  C   UNL     1       0.142  14.637  19.126  0.00  0.00    +0.000 C 
ATOM     14  O   UNL     1       0.116  13.482  19.964  0.00  0.00    +0.000 OA
ENDBRANCH   7  14
BRANCH  12  15
ATOM     15  O   UNL     1      -0.894  10.807  20.658  0.00  0.00    +0.000 OA
ATOM     16  C   UNL     1      -0.613  10.698  22.046  0.00  0.00    +0.000 C 
ENDBRANCH  12  15
ENDBRANCH   6  10
ENDBRANCH   2   6
ENDBRANCH   1   4
BRANCH   1  17
ATOM     17  C   UNL     1       3.898   4.556  18.851  0.00  0.00    +0.000 C 
ATOM     18  O   UNL     1       4.278   3.841  19.774  0.00  0.00    +0.000 OA
ATOM     19  N   UNL     1       4.748   4.950  17.833  0.00  0.00    +0.000 N 
ATOM     20  H   UNL     1       4.492   5.770  17.291  0.00  0.00    +0.000 HD
BRANCH  19  21
ATOM     21  C   UNL     1       6.173   4.588  17.907  0.00  0.00    +0.000 C 
ATOM     22  C   UNL     1       6.833   4.405  16.540  0.00  0.00    +0.000 C 
ATOM     23  C   UNL     1       6.912   5.738  15.814  0.00  0.00    +0.000 C 
ATOM     24  O   UNL     1       7.782   6.622  16.520  0.00  0.00    +0.000 OA
ATOM     25  C   UNL     1       7.381   6.867  17.859  0.00  0.00    +0.000 C 
ATOM     26  C   UNL     1       6.998   5.627  18.659  0.00  0.00    +0.000 C 
ATOM     27  O   UNL     1       7.221   5.534  19.867  0.00  0.00    +0.000 OA
ENDBRANCH  19  21
ENDBRANCH   1  17
BRANCH   1  28
ATOM     28  C   UNL     1       1.440   4.030  18.149  0.00  0.00    +0.000 C 
BRANCH  28  29
ATOM     29  C   UNL     1       0.908   2.906  19.070  0.00  0.00    +0.000 C 
ATOM     30  C   UNL     1       1.716   1.609  19.009  0.00  0.00    +0.000 C 
ATOM     31  C   UNL     1       0.895   3.390  20.526  0.00  0.00    +0.000 C 
ENDBRANCH  28  29
ENDBRANCH   1  28
TORSDOF 9
ENDMDL
MODEL 4
REMARK VINA RESULT:      -7.4      1.116      2.001
REMARK  Name = 
REMARK  13 active torsions:
REMARK  status: ('A' for Active; 'I' for Inactive)
REMARK    1  A    between atoms: C_1  and  O_2
REMARK    2  A    between atoms: O_2  and  C_3
REMARK    3  A    between atoms: C_6  and  C_7
REMARK    4  A    between atoms: C_7  and  C_8
REMARK    5  A    between atoms: N_10  and  C_11
REMARK    6  A    between atoms: C_11  and  C_12
REMARK    7  A    between atoms: C_11  and  C_16
REMARK    8  A    between atoms: C_12  and  C_13
REMARK    9  A    between atoms: C_13  and  C_14
REMARK   10  A    between atoms: C_13  and  C_15
REMARK   11  A    between atoms: N_18  and  C_19
REMARK   12  A    between atoms: C_27  and  O_28
REMARK   13  A    between atoms: O_28  and  C_29
REMARK                            x       y       z     vdW  Elec       q    Type
REMARK                         _______ _______ _______ _____ _____    ______ ____
ROOT
ATOM      1  C   UNL     1       3.059   5.322  19.631  0.00  0.00    +0.000 C 
ENDROOT
BRANCH   1   4
ATOM      2  C   UNL     1       2.289   7.667  19.213  0.00  0.00    +0.000 C 
ATOM      3  O   UNL     1       1.846   7.808  20.348  0.00  0.00    +0.000 OA
ATOM      4  N   UNL     1       2.887   6.507  18.783  0.00  0.00    +0.000 N 
ATOM      5  H   UNL     1       3.484   6.550  17.958  0.00  0.00    +0.000 HD
BRANCH   2   6
ATOM      6  C   UNL     1       2.179   8.751  18.150  0.00  0.00    +0.000 C 
BRANCH   6  10
ATOM      7  C   UNL     1      -1.242  11.383  18.617  0.00  0.00    +0.000 A 
ATOM      8  C   UNL     1      -1.326  10.222  17.830  0.00  0.00    +0.000 A 
ATOM      9  C   UNL     1      -0.232   9.360  17.689  0.00  0.00    +0.000 A 
ATOM     10  C   UNL     1       0.984   9.658  18.306  0.00  0.00    +0.000 A 
ATOM     11  C   UNL     1       1.087  10.860  19.020  0.00  0.00    +0.000 A 
ATOM     12  C   UNL     1      -0.006  11.727  19.183  0.00  0.00    +0.000 A 
BRANCH   7  14
ATOM     13  C   UNL     1      -3.598  11.640  18.499  0.00  0.00    +0.000 C 
ATOM     14  O   UNL     1      -2.321  12.205  18.797  0.00  0.00    +0.000 OA
ENDBRANCH   7  14
BRANCH  12  15
ATOM     15  O   UNL     1       0.326  12.840  19.913  0.00  0.00    +0.000 OA
ATOM     16  C   UNL     1       0.695  14.030  19.229  0.00  0.00    +0.000 C 
ENDBRANCH  12  15
ENDBRANCH   6  10
ENDBRANCH   2   6
ENDBRANCH   1   4
BRANCH   1  17
ATOM     17  C   UNL     1       4.271   4.538  19.068  0.00  0.00    +0.000 C 
ATOM     18  O   UNL     1       4.891   3.755  19.784  0.00  0.00    +0.000 OA
ATOM     19  N   UNL     1       4.606   4.739  17.741  0.00  0.00    +0.000 N 
ATOM     20  H   UNL     1       4.292   5.596  17.296  0.00  0.00    +0.000 HD
BRANCH  19  21
ATOM     21  C   UNL     1       5.800   4.074  17.194  0.00  0.00    +0.000 C 
ATOM     22  C   UNL     1       5.749   3.864  15.680  0.00  0.00    +0.000 C 
ATOM     23  C   UNL     1       5.810   5.203  14.964  0.00  0.00    +0.000 C 
ATOM     24  O   UNL     1       7.076   5.819  15.200  0.00  0.00    +0.000 OA
ATOM     25  C   UNL     1       7.356   6.036  16.574  0.00  0.00    +0.000 C 
ATOM     26  C   UNL     1       7.082   4.847  17.488  0.00  0.00    +0.000 C 
ATOM     27  O   UNL     1       7.774   4.611  18.479  0.00  0.00    +0.000 OA
ENDBRANCH  19  21
ENDBRANCH   1  17
BRANCH   1  28
ATOM     28  C   UNL     1       1.747   4.524  19.732  0.00  0.00    +0.000 C 
BRANCH  28  29
ATOM     29  C   UNL     1       1.878   3.012  20.035  0.00  0.00    +0.000 C 
ATOM     30  C   UNL     1       1.495   2.623  21.464  0.00  0.00    +0.000 C 
ATOM     31  C   UNL     1       0.995   2.210  19.071  0.00  0.00    +0.000 C 
ENDBRANCH  28  29
ENDBRANCH   1  28
TORSDOF 9
ENDMDL
MODEL 5
REMARK VINA RESULT:      -7.3      0.928      1.104
REMARK  Name = 
REMARK  13 active torsions:
REMARK  status: ('A' for Active; 'I' for Inactive)
REMARK    1  A    between atoms: C_1  and  O_2
REMARK    2  A    between atoms: O_2  and  C_3
REMARK    3  A    between atoms: C_6  and  C_7
REMARK    4  A    between atoms: C_7  and  C_8
REMARK    5  A    between atoms: N_10  and  C_11
REMARK    6  A    between atoms: C_11  and  C_12
REMARK    7  A    between atoms: C_11  and  C_16
REMARK    8  A    between atoms: C_12  and  C_13
REMARK    9  A    between atoms: C_13  and  C_14
REMARK   10  A    between atoms: C_13  and  C_15
REMARK   11  A    between atoms: N_18  and  C_19
REMARK   12  A    between atoms: C_27  and  O_28
REMARK   13  A    between atoms: O_28  and  C_29
REMARK                            x       y       z     vdW  Elec       q    Type
REMARK                         _______ _______ _______ _____ _____    ______ ____
ROOT
ATOM      1  C   UNL     1       3.161   5.187  19.586  0.00  0.00    +0.000 C 
ENDROOT
BRANCH   1   4
ATOM      2  C   UNL     1       2.366   7.539  19.257  0.00  0.00    +0.000 C 
ATOM      3  O   UNL     1       1.868   7.611  20.376  0.00  0.00    +0.000 OA
ATOM      4  N   UNL     1       3.005   6.414  18.795  0.00  0.00    +0.000 N 
ATOM      5  H   UNL     1       3.639   6.510  18.003  0.00  0.00    +0.000 HD
BRANCH   2   6
ATOM      6  C   UNL     1       2.286   8.676  18.249  0.00  0.00    +0.000 C 
BRANCH   6  10
ATOM      7  C   UNL     1      -1.006  11.431  18.904  0.00  0.00    +0.000 A 
ATOM      8  C   UNL     1       0.147  11.480  19.707  0.00  0.00    +0.000 A 
ATOM      9  C   UNL     1       1.219  10.605  19.490  0.00  0.00    +0.000 A 
ATOM     10  C   UNL     1       1.148   9.639  18.486  0.00  0.00    +0.000 A 
ATOM     11  C   UNL     1      -0.037   9.539  17.745  0.00  0.00    +0.000 A 
ATOM     12  C   UNL     1      -1.116  10.419  17.939  0.00  0.00    +0.000 A 
BRANCH   7  14
ATOM     13  C   UNL     1      -1.853  13.300  20.095  0.00  0.00    +0.000 C 
ATOM     14  O   UNL     1      -2.037  12.313  19.081  0.00  0.00    +0.000 OA
ENDBRANCH   7  14
BRANCH  12  15
ATOM     15  O   UNL     1      -2.169  10.134  17.108  0.00  0.00    +0.000 OA
ATOM     16  C   UNL     1      -3.351   9.572  17.659  0.00  0.00    +0.000 C 
ENDBRANCH  12  15
ENDBRANCH   6  10
ENDBRANCH   2   6
ENDBRANCH   1   4
BRANCH   1  17
ATOM     17  C   UNL     1       4.360   4.413  18.986  0.00  0.00    +0.000 C 
ATOM     18  O   UNL     1       4.991   3.614  19.674  0.00  0.00    +0.000 OA
ATOM     19  N   UNL     1       4.673   4.641  17.658  0.00  0.00    +0.000 N 
ATOM     20  H   UNL     1       4.353   5.508  17.236  0.00  0.00    +0.000 HD
BRANCH  19  21
ATOM     21  C   UNL     1       5.855   3.986  17.076  0.00  0.00    +0.000 C 
ATOM     22  C   UNL     1       5.793   3.841  15.554  0.00  0.00    +0.000 C 
ATOM     23  C   UNL     1       5.868   5.208  14.895  0.00  0.00    +0.000 C 
ATOM     24  O   UNL     1       7.142   5.798  15.150  0.00  0.00    +0.000 OA
ATOM     25  C   UNL     1       7.433   5.953  16.530  0.00  0.00    +0.000 C 
ATOM     26  C   UNL     1       7.148   4.729  17.395  0.00  0.00    +0.000 C 
ATOM     27  O   UNL     1       7.843   4.443  18.371  0.00  0.00    +0.000 OA
ENDBRANCH  19  21
ENDBRANCH   1  17
BRANCH   1  28
ATOM     28  C   UNL     1       1.837   4.405  19.650  0.00  0.00    +0.000 C 
BRANCH  28  29
ATOM     29  C   UNL     1       1.929   2.923  20.087  0.00  0.00    +0.000 C 
ATOM     30  C   UNL     1       1.418   2.652  21.502  0.00  0.00    +0.000 C 
ATOM     31  C   UNL     1       1.130   2.044  19.116  0.00  0.00    +0.000 C 
ENDBRANCH  28  29
ENDBRANCH   1  28
TORSDOF 9
ENDMDL
MODEL 6
REMARK VINA RESULT:      -7.2      1.592      2.104
REMARK  Name = 
REMARK  13 active torsions:
REMARK  status: ('A' for Active; 'I' for Inactive)
REMARK    1  A    between atoms: C_1  and  O_2
REMARK    2  A    between atoms: O_2  and  C_3
REMARK    3  A    between atoms: C_6  and  C_7
REMARK    4  A    between atoms: C_7  and  C_8
REMARK    5  A    between atoms: N_10  and  C_11
REMARK    6  A    between atoms: C_11  and  C_12
REMARK    7  A    between atoms: C_11  and  C_16
REMARK    8  A    between atoms: C_12  and  C_13
REMARK    9  A    between atoms: C_13  and  C_14
REMARK   10  A    between atoms: C_13  and  C_15
REMARK   11  A    between atoms: N_18  and  C_19
REMARK   12  A    between atoms: C_27  and  O_28
REMARK   13  A    between atoms: O_28  and  C_29
REMARK                            x       y       z     vdW  Elec       q    Type
REMARK                         _______ _______ _______ _____ _____    ______ ____
ROOT
ATOM      1  C   UNL     1       2.543   5.000  18.507  0.00  0.00    +0.000 C 
ENDROOT
BRANCH   1   4
ATOM      2  C   UNL     1       2.307   7.487  18.675  0.00  0.00    +0.000 C 
ATOM      3  O   UNL     1       2.343   7.487  19.901  0.00  0.00    +0.000 OA
ATOM      4  N   UNL     1       2.395   6.339  17.925  0.00  0.00    +0.000 N 
ATOM      5  H   UNL     1       2.654   6.424  16.943  0.00  0.00    +0.000 HD
BRANCH   2   6
ATOM      6  C   UNL     1       2.114   8.758  17.861  0.00  0.00    +0.000 C 
BRANCH   6  10
ATOM      7  C   UNL     1       0.070  11.966  19.954  0.00  0.00    +0.000 A 
ATOM      8  C   UNL     1      -0.371  10.636  20.064  0.00  0.00    +0.000 A 
ATOM      9  C   UNL     1       0.293   9.595  19.405  0.00  0.00    +0.000 A 
ATOM     10  C   UNL     1       1.396   9.864  18.594  0.00  0.00    +0.000 A 
ATOM     11  C   UNL     1       1.779  11.202  18.420  0.00  0.00    +0.000 A 
ATOM     12  C   UNL     1       1.132  12.256  19.086  0.00  0.00    +0.000 A 
BRANCH   7  14
ATOM     13  C   UNL     1      -1.718  13.525  20.023  0.00  0.00    +0.000 C 
ATOM     14  O   UNL     1      -0.548  12.981  20.632  0.00  0.00    +0.000 OA
ENDBRANCH   7  14
BRANCH  12  15
ATOM     15  O   UNL     1       1.671  13.476  18.765  0.00  0.00    +0.000 OA
ATOM     16  C   UNL     1       3.032  13.545  18.361  0.00  0.00    +0.000 C 
ENDBRANCH  12  15
ENDBRANCH   6  10
ENDBRANCH   2   6
ENDBRANCH   1   4
BRANCH   1  17
ATOM     17  C   UNL     1       3.971   4.512  18.158  0.00  0.00    +0.000 C 
ATOM     18  O   UNL     1       4.135   3.471  17.527  0.00  0.00    +0.000 OA
ATOM     19  N   UNL     1       5.036   5.297  18.564  0.00  0.00    +0.000 N 
ATOM     20  H   UNL     1       4.882   5.946  19.330  0.00  0.00    +0.000 HD
BRANCH  19  21
ATOM     21  C   UNL     1       6.408   4.825  18.322  0.00  0.00    +0.000 C 
ATOM     22  C   UNL     1       6.784   4.754  16.841  0.00  0.00    +0.000 C 
ATOM     23  C   UNL     1       6.851   6.153  16.251  0.00  0.00    +0.000 C 
ATOM     24  O   UNL     1       7.917   6.882  16.858  0.00  0.00    +0.000 OA
ATOM     25  C   UNL     1       7.797   6.999  18.267  0.00  0.00    +0.000 C 
ATOM     26  C   UNL     1       7.453   5.706  18.999  0.00  0.00    +0.000 C 
ATOM     27  O   UNL     1       7.887   5.457  20.125  0.00  0.00    +0.000 OA
ENDBRANCH  19  21
ENDBRANCH   1  17
BRANCH   1  28
ATOM     28  C   UNL     1       1.400   4.075  18.051  0.00  0.00    +0.000 C 
BRANCH  28  29
ATOM     29  C   UNL     1       0.871   3.064  19.096  0.00  0.00    +0.000 C 
ATOM     30  C   UNL     1       1.619   1.730  19.114  0.00  0.00    +0.000 C 
ATOM     31  C   UNL     1       0.955   3.675  20.501  0.00  0.00    +0.000 C 
ENDBRANCH  28  29
ENDBRANCH   1  28
TORSDOF 9
ENDMDL
MODEL 7
REMARK VINA RESULT:      -7.2      0.992      1.178
REMARK  Name = 
REMARK  13 active torsions:
REMARK  status: ('A' for Active; 'I' for Inactive)
REMARK    1  A    between atoms: C_1  and  O_2
REMARK    2  A    between atoms: O_2  and  C_3
REMARK    3  A    between atoms: C_6  and  C_7
REMARK    4  A    between atoms: C_7  and  C_8
REMARK    5  A    between atoms: N_10  and  C_11
REMARK    6  A    between atoms: C_11  and  C_12
REMARK    7  A    between atoms: C_11  and  C_16
REMARK    8  A    between atoms: C_12  and  C_13
REMARK    9  A    between atoms: C_13  and  C_14
REMARK   10  A    between atoms: C_13  and  C_15
REMARK   11  A    between atoms: N_18  and  C_19
REMARK   12  A    between atoms: C_27  and  O_28
REMARK   13  A    between atoms: O_28  and  C_29
REMARK                            x       y       z     vdW  Elec       q    Type
REMARK                         _______ _______ _______ _____ _____    ______ ____
ROOT
ATOM      1  C   UNL     1       3.029   5.132  20.056  0.00  0.00    +0.000 C 
ENDROOT
BRANCH   1   4
ATOM      2  C   UNL     1       2.091   7.442  19.815  0.00  0.00    +0.000 C 
ATOM      3  O   UNL     1       1.472   7.386  20.873  0.00  0.00    +0.000 OA
ATOM      4  N   UNL     1       2.863   6.406  19.346  0.00  0.00    +0.000 N 
ATOM      5  H   UNL     1       3.569   6.612  18.640  0.00  0.00    +0.000 HD
BRANCH   2   6
ATOM      6  C   UNL     1       2.029   8.650  18.892  0.00  0.00    +0.000 C 
BRANCH   6  10
ATOM      7  C   UNL     1      -1.265  11.365  19.684  0.00  0.00    +0.000 A 
ATOM      8  C   UNL     1      -0.298  11.096  20.669  0.00  0.00    +0.000 A 
ATOM      9  C   UNL     1       0.776  10.235  20.414  0.00  0.00    +0.000 A 
ATOM     10  C   UNL     1       0.890   9.596  19.179  0.00  0.00    +0.000 A 
ATOM     11  C   UNL     1      -0.123   9.801  18.231  0.00  0.00    +0.000 A 
ATOM     12  C   UNL     1      -1.199  10.675  18.465  0.00  0.00    +0.000 A 
BRANCH   7  14
ATOM     13  C   UNL     1      -1.915  13.565  20.292  0.00  0.00    +0.000 C 
ATOM     14  O   UNL     1      -2.290  12.242  19.911  0.00  0.00    +0.000 OA
ENDBRANCH   7  14
BRANCH  12  15
ATOM     15  O   UNL     1      -2.067  10.718  17.404  0.00  0.00    +0.000 OA
ATOM     16  C   UNL     1      -3.170   9.823  17.378  0.00  0.00    +0.000 C 
ENDBRANCH  12  15
ENDBRANCH   6  10
ENDBRANCH   2   6
ENDBRANCH   1   4
BRANCH   1  17
ATOM     17  C   UNL     1       4.345   4.498  19.542  0.00  0.00    +0.000 C 
ATOM     18  O   UNL     1       4.807   3.499  20.087  0.00  0.00    +0.000 OA
ATOM     19  N   UNL     1       4.957   5.084  18.448  0.00  0.00    +0.000 N 
ATOM     20  H   UNL     1       4.733   6.053  18.241  0.00  0.00    +0.000 HD
BRANCH  19  21
ATOM     21  C   UNL     1       6.250   4.559  17.982  0.00  0.00    +0.000 C 
ATOM     22  C   UNL     1       6.344   4.413  16.463  0.00  0.00    +0.000 C 
ATOM     23  C   UNL     1       6.335   5.782  15.804  0.00  0.00    +0.000 C 
ATOM     24  O   UNL     1       7.511   6.503  16.171  0.00  0.00    +0.000 OA
ATOM     25  C   UNL     1       7.655   6.684  17.571  0.00  0.00    +0.000 C 
ATOM     26  C   UNL     1       7.422   5.434  18.414  0.00  0.00    +0.000 C 
ATOM     27  O   UNL     1       8.050   5.221  19.452  0.00  0.00    +0.000 OA
ENDBRANCH  19  21
ENDBRANCH   1  17
BRANCH   1  28
ATOM     28  C   UNL     1       1.773   4.255  19.910  0.00  0.00    +0.000 C 
BRANCH  28  29
ATOM     29  C   UNL     1       1.707   3.346  18.660  0.00  0.00    +0.000 C 
ATOM     30  C   UNL     1       0.705   2.196  18.772  0.00  0.00    +0.000 C 
ATOM     31  C   UNL     1       1.334   4.181  17.428  0.00  0.00    +0.000 C 
ENDBRANCH  28  29
ENDBRANCH   1  28
TORSDOF 9
ENDMDL
MODEL 8
REMARK VINA RESULT:      -7.2      0.967      1.222
REMARK  Name = 
REMARK  13 active torsions:
REMARK  status: ('A' for Active; 'I' for Inactive)
REMARK    1  A    between atoms: C_1  and  O_2
REMARK    2  A    between atoms: O_2  and  C_3
REMARK    3  A    between atoms: C_6  and  C_7
REMARK    4  A    between atoms: C_7  and  C_8
REMARK    5  A    between atoms: N_10  and  C_11
REMARK    6  A    between atoms: C_11  and  C_12
REMARK    7  A    between atoms: C_11  and  C_16
REMARK    8  A    between atoms: C_12  and  C_13
REMARK    9  A    between atoms: C_13  and  C_14
REMARK   10  A    between atoms: C_13  and  C_15
REMARK   11  A    between atoms: N_18  and  C_19
REMARK   12  A    between atoms: C_27  and  O_28
REMARK   13  A    between atoms: O_28  and  C_29
REMARK                            x       y       z     vdW  Elec       q    Type
REMARK                         _______ _______ _______ _____ _____    ______ ____
ROOT
ATOM      1  C   UNL     1       2.674   5.383  19.890  0.00  0.00    +0.000 C 
ENDROOT
BRANCH   1   4
ATOM      2  C   UNL     1       2.054   7.686  19.127  0.00  0.00    +0.000 C 
ATOM      3  O   UNL     1       1.849   8.094  20.266  0.00  0.00    +0.000 OA
ATOM      4  N   UNL     1       2.452   6.399  18.854  0.00  0.00    +0.000 N 
ATOM      5  H   UNL     1       2.884   6.209  17.951  0.00  0.00    +0.000 HD
BRANCH   2   6
ATOM      6  C   UNL     1       1.845   8.554  17.895  0.00  0.00    +0.000 C 
BRANCH   6  10
ATOM      7  C   UNL     1      -0.250  12.279  18.664  0.00  0.00    +0.000 A 
ATOM      8  C   UNL     1       1.151  12.204  18.765  0.00  0.00    +0.000 A 
ATOM      9  C   UNL     1       1.833  11.010  18.502  0.00  0.00    +0.000 A 
ATOM     10  C   UNL     1       1.128   9.855  18.164  0.00  0.00    +0.000 A 
ATOM     11  C   UNL     1      -0.273   9.914  18.149  0.00  0.00    +0.000 A 
ATOM     12  C   UNL     1      -0.972  11.108  18.395  0.00  0.00    +0.000 A 
BRANCH   7  14
ATOM     13  C   UNL     1      -0.169  14.505  19.484  0.00  0.00    +0.000 C 
ATOM     14  O   UNL     1      -0.918  13.454  18.875  0.00  0.00    +0.000 OA
ENDBRANCH   7  14
BRANCH  12  15
ATOM     15  O   UNL     1      -2.330  10.931  18.331  0.00  0.00    +0.000 OA
ATOM     16  C   UNL     1      -2.848   9.805  17.637  0.00  0.00    +0.000 C 
ENDBRANCH  12  15
ENDBRANCH   6  10
ENDBRANCH   2   6
ENDBRANCH   1   4
BRANCH   1  17
ATOM     17  C   UNL     1       4.017   4.686  19.558  0.00  0.00    +0.000 C 
ATOM     18  O   UNL     1       4.255   3.560  19.985  0.00  0.00    +0.000 OA
ATOM     19  N   UNL     1       4.914   5.369  18.755  0.00  0.00    +0.000 N 
ATOM     20  H   UNL     1       4.825   6.379  18.696  0.00  0.00    +0.000 HD
BRANCH  19  21
ATOM     21  C   UNL     1       6.233   4.775  18.485  0.00  0.00    +0.000 C 
ATOM     22  C   UNL     1       6.509   4.536  17.000  0.00  0.00    +0.000 C 
ATOM     23  C   UNL     1       6.637   5.864  16.272  0.00  0.00    +0.000 C 
ATOM     24  O   UNL     1       7.786   6.565  16.745  0.00  0.00    +0.000 OA
ATOM     25  C   UNL     1       7.763   6.823  18.140  0.00  0.00    +0.000 C 
ATOM     26  C   UNL     1       7.377   5.634  19.014  0.00  0.00    +0.000 C 
ATOM     27  O   UNL     1       7.861   5.460  20.132  0.00  0.00    +0.000 OA
ENDBRANCH  19  21
ENDBRANCH   1  17
BRANCH   1  28
ATOM     28  C   UNL     1       1.458   4.447  20.009  0.00  0.00    +0.000 C 
BRANCH  28  29
ATOM     29  C   UNL     1       1.025   3.708  18.721  0.00  0.00    +0.000 C 
ATOM     30  C   UNL     1       1.808   4.114  17.471  0.00  0.00    +0.000 C 
ATOM     31  C   UNL     1       1.187   2.194  18.911  0.00  0.00    +0.000 C 
ENDBRANCH  28  29
ENDBRANCH   1  28
TORSDOF 9
ENDMDL
MODEL 9
REMARK VINA RESULT:      -7.2      4.809      7.632
REMARK  Name = 
REMARK  13 active torsions:
REMARK  status: ('A' for Active; 'I' for Inactive)
REMARK    1  A    between atoms: C_1  and  O_2
REMARK    2  A    between atoms: O_2  and  C_3
REMARK    3  A    between atoms: C_6  and  C_7
REMARK    4  A    between atoms: C_7  and  C_8
REMARK    5  A    between atoms: N_10  and  C_11
REMARK    6  A    between atoms: C_11  and  C_12
REMARK    7  A    between atoms: C_11  and  C_16
REMARK    8  A    between atoms: C_12  and  C_13
REMARK    9  A    between atoms: C_13  and  C_14
REMARK   10  A    between atoms: C_13  and  C_15
REMARK   11  A    between atoms: N_18  and  C_19
REMARK   12  A    between atoms: C_27  and  O_28
REMARK   13  A    between atoms: O_28  and  C_29
REMARK                            x       y       z     vdW  Elec       q    Type
REMARK                         _______ _______ _______ _____ _____    ______ ____
ROOT
ATOM      1  C   UNL     1       6.772   6.216  17.675  0.00  0.00    +0.000 C 
ENDROOT
BRANCH   1   4
ATOM      2  C   UNL     1       8.026   8.342  18.102  0.00  0.00    +0.000 C 
ATOM      3  O   UNL     1       7.327   9.000  17.338  0.00  0.00    +0.000 OA
ATOM      4  N   UNL     1       7.831   7.000  18.323  0.00  0.00    +0.000 N 
ATOM      5  H   UNL     1       8.232   6.586  19.164  0.00  0.00    +0.000 HD
BRANCH   2   6
ATOM      6  C   UNL     1       9.210   8.938  18.848  0.00  0.00    +0.000 C 
BRANCH   6  10
ATOM      7  C   UNL     1       9.031  13.243  19.383  0.00  0.00    +0.000 A 
ATOM      8  C   UNL     1       9.105  12.677  18.098  0.00  0.00    +0.000 A 
ATOM      9  C   UNL     1       9.146  11.289  17.918  0.00  0.00    +0.000 A 
ATOM     10  C   UNL     1       9.148  10.435  19.022  0.00  0.00    +0.000 A 
ATOM     11  C   UNL     1       9.160  11.007  20.302  0.00  0.00    +0.000 A 
ATOM     12  C   UNL     1       9.103  12.397  20.499  0.00  0.00    +0.000 A 
BRANCH   7  14
ATOM     13  C   UNL     1       9.725  15.400  18.680  0.00  0.00    +0.000 C 
ATOM     14  O   UNL     1       8.944  14.596  19.563  0.00  0.00    +0.000 OA
ENDBRANCH   7  14
BRANCH  12  15
ATOM     15  O   UNL     1       9.130  12.729  21.829  0.00  0.00    +0.000 OA
ATOM     16  C   UNL     1       8.387  11.945  22.752  0.00  0.00    +0.000 C 
ENDBRANCH  12  15
ENDBRANCH   6  10
ENDBRANCH   2   6
ENDBRANCH   1   4
BRANCH   1  17
ATOM     17  C   UNL     1       5.995   5.491  18.801  0.00  0.00    +0.000 C 
ATOM     18  O   UNL     1       6.551   5.211  19.860  0.00  0.00    +0.000 OA
ATOM     19  N   UNL     1       4.662   5.194  18.573  0.00  0.00    +0.000 N 
ATOM     20  H   UNL     1       4.344   5.147  17.610  0.00  0.00    +0.000 HD
BRANCH  19  21
ATOM     21  C   UNL     1       3.913   4.433  19.586  0.00  0.00    +0.000 C 
ATOM     22  C   UNL     1       2.411   4.717  19.584  0.00  0.00    +0.000 C 
ATOM     23  C   UNL     1       1.781   4.192  18.305  0.00  0.00    +0.000 C 
ATOM     24  O   UNL     1       1.879   2.769  18.267  0.00  0.00    +0.000 OA
ATOM     25  C   UNL     1       3.212   2.287  18.337  0.00  0.00    +0.000 C 
ATOM     26  C   UNL     1       4.077   2.926  19.419  0.00  0.00    +0.000 C 
ATOM     27  O   UNL     1       4.945   2.292  20.020  0.00  0.00    +0.000 OA
ENDBRANCH  19  21
ENDBRANCH   1  17
BRANCH   1  28
ATOM     28  C   UNL     1       7.357   5.303  16.583  0.00  0.00    +0.000 C 
BRANCH  28  29
ATOM     29  C   UNL     1       6.441   4.997  15.374  0.00  0.00    +0.000 C 
ATOM     30  C   UNL     1       5.746   3.637  15.441  0.00  0.00    +0.000 C 
ATOM     31  C   UNL     1       5.358   6.078  15.255  0.00  0.00    +0.000 C 
ENDBRANCH  28  29
ENDBRANCH   1  28
TORSDOF 9
ENDMDL
