MODEL 1
REMARK VINA RESULT:      -6.8      0.000      0.000
REMARK  Name = 
REMARK  8 active torsions:
REMARK  status: ('A' for Active; 'I' for Inactive)
REMARK    1  A    between atoms: N_2  and  O_4
REMARK    2  A    between atoms: O_4  and  C_5
REMARK    3  A    between atoms: C_5  and  C_6
REMARK    4  A    between atoms: C_6  and  C_7
REMARK    5  A    between atoms: C_6  and  O_15
REMARK    6  A    between atoms: C_7  and  C_8
REMARK    7  A    between atoms: C_8  and  C_9
REMARK    8  A    between atoms: O_15  and  N_16
REMARK                            x       y       z     vdW  Elec       q    Type
REMARK                         _______ _______ _______ _____ _____    ______ ____
ROOT
ATOM      1  C   UNL     1       5.552   5.135  17.566  0.00  0.00    +0.000 C 
ENDROOT
BRANCH   1   2
ATOM      2  C   UNL     1       5.268   5.130  16.052  0.00  0.00    +0.000 C 
BRANCH   2   3
ATOM      3  O   UNL     1       5.894   4.006  15.433  0.00  0.00    +0.000 OA
BRANCH   3   5
ATOM      4  O   UNL     1       7.523   5.247  14.598  0.00  0.00    +0.000 OA
ATOM      5  N   UNL     1       6.679   4.397  14.318  0.00  0.00    +0.000 N 
ATOM      6  O   UNL     1       6.447   3.846  13.240  0.00  0.00    +0.000 OA
ENDBRANCH   3   5
ENDBRANCH   2   3
ENDBRANCH   1   2
BRANCH   1   7
ATOM      7  C   UNL     1       4.462   5.935  18.306  0.00  0.00    +0.000 C 
BRANCH   7   8
ATOM      8  C   UNL     1       3.056   5.773  17.735  0.00  0.00    +0.000 C 
BRANCH   8   9
ATOM      9  C   UNL     1       2.255   4.802  18.561  0.00  0.00    +0.000 A 
ATOM     10  C   UNL     1       2.055   5.032  19.928  0.00  0.00    +0.000 A 
ATOM     11  C   UNL     1       1.327   4.127  20.698  0.00  0.00    +0.000 A 
ATOM     12  C   UNL     1       0.800   2.979  20.108  0.00  0.00    +0.000 A 
ATOM     13  C   UNL     1       1.010   2.729  18.752  0.00  0.00    +0.000 A 
ATOM     14  C   UNL     1       1.737   3.636  17.980  0.00  0.00    +0.000 A 
ENDBRANCH   8   9
ENDBRANCH   7   8
ENDBRANCH   1   7
BRANCH   1  15
ATOM     15  O   UNL     1       6.806   5.810  17.756  0.00  0.00    +0.000 OA
BRANCH  15  16
ATOM     16  N   UNL     1       7.797   5.006  18.375  0.00  0.00    +0.000 N 
ATOM     17  O   UNL     1       8.302   4.110  17.697  0.00  0.00    +0.000 OA
ATOM     18  O   UNL     1       8.010   5.329  19.542  0.00  0.00    +0.000 OA
ENDBRANCH  15  16
ENDBRANCH   1  15
TORSDOF 8
ENDMDL
MODEL 2
REMARK VINA RESULT:      -6.7      1.362      3.289
REMARK  Name = 
REMARK  8 active torsions:
REMARK  status: ('A' for Active; 'I' for Inactive)
REMARK    1  A    between atoms: N_2  and  O_4
REMARK    2  A    between atoms: O_4  and  C_5
REMARK    3  A    between atoms: C_5  and  C_6
REMARK    4  A    between atoms: C_6  and  C_7
REMARK    5  A    between atoms: C_6  and  O_15
REMARK    6  A    between atoms: C_7  and  C_8
REMARK    7  A    between atoms: C_8  and  C_9
REMARK    8  A    between atoms: O_15  and  N_16
REMARK                            x       y       z     vdW  Elec       q    Type
REMARK                         _______ _______ _______ _____ _____    ______ ____
ROOT
ATOM      1  C   UNL     1       4.963   5.997  18.035  0.00  0.00    +0.000 C 
ENDROOT
BRANCH   1   2
ATOM      2  C   UNL     1       5.473   4.880  18.966  0.00  0.00    +0.000 C 
BRANCH   2   3
ATOM      3  O   UNL     1       6.601   5.334  19.715  0.00  0.00    +0.000 OA
BRANCH   3   5
ATOM      4  O   UNL     1       8.109   4.501  18.328  0.00  0.00    +0.000 OA
ATOM      5  N   UNL     1       7.732   5.533  18.882  0.00  0.00    +0.000 N 
ATOM      6  O   UNL     1       8.179   6.678  18.798  0.00  0.00    +0.000 OA
ENDBRANCH   3   5
ENDBRANCH   2   3
ENDBRANCH   1   2
BRANCH   1   7
ATOM      7  C   UNL     1       3.595   6.510  18.523  0.00  0.00    +0.000 C 
BRANCH   7   8
ATOM      8  C   UNL     1       2.392   5.840  17.861  0.00  0.00    +0.000 C 
BRANCH   8   9
ATOM      9  C   UNL     1       1.908   4.681  18.690  0.00  0.00    +0.000 A 
ATOM     10  C   UNL     1       1.557   3.470  18.078  0.00  0.00    +0.000 A 
ATOM     11  C   UNL     1       1.094   2.401  18.843  0.00  0.00    +0.000 A 
ATOM     12  C   UNL     1       0.971   2.536  20.224  0.00  0.00    +0.000 A 
ATOM     13  C   UNL     1       1.298   3.742  20.843  0.00  0.00    +0.000 A 
ATOM     14  C   UNL     1       1.764   4.813  20.078  0.00  0.00    +0.000 A 
ENDBRANCH   8   9
ENDBRANCH   7   8
ENDBRANCH   1   7
BRANCH   1  15
ATOM     15  O   UNL     1       4.783   5.411  16.736  0.00  0.00    +0.000 OA
BRANCH  15  16
ATOM     16  N   UNL     1       5.574   6.014  15.724  0.00  0.00    +0.000 N 
ATOM     17  O   UNL     1       6.698   5.547  15.535  0.00  0.00    +0.000 OA
ATOM     18  O   UNL     1       5.002   6.949  15.169  0.00  0.00    +0.000 OA
ENDBRANCH  15  16
ENDBRANCH   1  15
TORSDOF 8
ENDMDL
MODEL 3
REMARK VINA RESULT:      -6.7      0.841      3.479
REMARK  Name = 
REMARK  8 active torsions:
REMARK  status: ('A' for Active; 'I' for Inactive)
REMARK    1  A    between atoms: N_2  and  O_4
REMARK    2  A    between atoms: O_4  and  C_5
REMARK    3  A    between atoms: C_5  and  C_6
REMARK    4  A    between atoms: C_6  and  C_7
REMARK    5  A    between atoms: C_6  and  O_15
REMARK    6  A    between atoms: C_7  and  C_8
REMARK    7  A    between atoms: C_8  and  C_9
REMARK    8  A    between atoms: O_15  and  N_16
REMARK                            x       y       z     vdW  Elec       q    Type
REMARK                         _______ _______ _______ _____ _____    ______ ____
ROOT
ATOM      1  C   UNL     1       5.772   5.283  16.829  0.00  0.00    +0.000 C 
ENDROOT
BRANCH   1   2
ATOM      2  C   UNL     1       6.393   4.387  17.918  0.00  0.00    +0.000 C 
BRANCH   2   3
ATOM      3  O   UNL     1       7.753   4.753  18.148  0.00  0.00    +0.000 OA
BRANCH   3   5
ATOM      4  O   UNL     1       8.164   6.849  18.724  0.00  0.00    +0.000 OA
ATOM      5  N   UNL     1       7.861   5.740  19.162  0.00  0.00    +0.000 N 
ATOM      6  O   UNL     1       7.631   5.389  20.321  0.00  0.00    +0.000 OA
ENDBRANCH   3   5
ENDBRANCH   2   3
ENDBRANCH   1   2
BRANCH   1   7
ATOM      7  C   UNL     1       4.392   5.794  17.286  0.00  0.00    +0.000 C 
BRANCH   7   8
ATOM      8  C   UNL     1       4.142   5.693  18.789  0.00  0.00    +0.000 C 
BRANCH   8   9
ATOM      9  C   UNL     1       2.971   4.791  19.073  0.00  0.00    +0.000 A 
ATOM     10  C   UNL     1       2.555   3.850  18.122  0.00  0.00    +0.000 A 
ATOM     11  C   UNL     1       1.461   3.024  18.377  0.00  0.00    +0.000 A 
ATOM     12  C   UNL     1       0.770   3.139  19.582  0.00  0.00    +0.000 A 
ATOM     13  C   UNL     1       1.162   4.085  20.528  0.00  0.00    +0.000 A 
ATOM     14  C   UNL     1       2.259   4.911  20.275  0.00  0.00    +0.000 A 
ENDBRANCH   8   9
ENDBRANCH   7   8
ENDBRANCH   1   7
BRANCH   1  15
ATOM     15  O   UNL     1       5.580   4.459  15.668  0.00  0.00    +0.000 OA
BRANCH  15  16
ATOM     16  N   UNL     1       6.585   4.624  14.681  0.00  0.00    +0.000 N 
ATOM     17  O   UNL     1       7.432   5.496  14.878  0.00  0.00    +0.000 OA
ATOM     18  O   UNL     1       6.456   3.846  13.737  0.00  0.00    +0.000 OA
ENDBRANCH  15  16
ENDBRANCH   1  15
TORSDOF 8
ENDMDL
MODEL 4
REMARK VINA RESULT:      -6.6      1.063      3.560
REMARK  Name = 
REMARK  8 active torsions:
REMARK  status: ('A' for Active; 'I' for Inactive)
REMARK    1  A    between atoms: N_2  and  O_4
REMARK    2  A    between atoms: O_4  and  C_5
REMARK    3  A    between atoms: C_5  and  C_6
REMARK    4  A    between atoms: C_6  and  C_7
REMARK    5  A    between atoms: C_6  and  O_15
REMARK    6  A    between atoms: C_7  and  C_8
REMARK    7  A    between atoms: C_8  and  C_9
REMARK    8  A    between atoms: O_15  and  N_16
REMARK                            x       y       z     vdW  Elec       q    Type
REMARK                         _______ _______ _______ _____ _____    ______ ____
ROOT
ATOM      1  C   UNL     1       5.781   4.700  16.584  0.00  0.00    +0.000 C 
ENDROOT
BRANCH   1   2
ATOM      2  C   UNL     1       6.421   4.484  17.969  0.00  0.00    +0.000 C 
BRANCH   2   3
ATOM      3  O   UNL     1       7.736   5.039  18.000  0.00  0.00    +0.000 OA
BRANCH   3   5
ATOM      4  O   UNL     1       8.288   7.035  18.777  0.00  0.00    +0.000 OA
ATOM      5  N   UNL     1       7.905   5.913  19.105  0.00  0.00    +0.000 N 
ATOM      6  O   UNL     1       7.642   5.469  20.225  0.00  0.00    +0.000 OA
ENDBRANCH   3   5
ENDBRANCH   2   3
ENDBRANCH   1   2
BRANCH   1   7
ATOM      7  C   UNL     1       4.279   4.361  16.637  0.00  0.00    +0.000 C 
BRANCH   7   8
ATOM      8  C   UNL     1       3.933   3.129  17.468  0.00  0.00    +0.000 C 
BRANCH   8   9
ATOM      9  C   UNL     1       2.890   3.461  18.502  0.00  0.00    +0.000 A 
ATOM     10  C   UNL     1       1.855   2.558  18.779  0.00  0.00    +0.000 A 
ATOM     11  C   UNL     1       0.880   2.871  19.725  0.00  0.00    +0.000 A 
ATOM     12  C   UNL     1       0.927   4.092  20.394  0.00  0.00    +0.000 A 
ATOM     13  C   UNL     1       1.940   5.007  20.112  0.00  0.00    +0.000 A 
ATOM     14  C   UNL     1       2.919   4.694  19.167  0.00  0.00    +0.000 A 
ENDBRANCH   8   9
ENDBRANCH   7   8
ENDBRANCH   1   7
BRANCH   1  15
ATOM     15  O   UNL     1       6.414   3.779  15.681  0.00  0.00    +0.000 OA
BRANCH  15  16
ATOM     16  N   UNL     1       6.855   4.378  14.474  0.00  0.00    +0.000 N 
ATOM     17  O   UNL     1       6.434   3.899  13.420  0.00  0.00    +0.000 OA
ATOM     18  O   UNL     1       7.624   5.318  14.663  0.00  0.00    +0.000 OA
ENDBRANCH  15  16
ENDBRANCH   1  15
TORSDOF 8
ENDMDL
MODEL 5
REMARK VINA RESULT:      -6.6      1.324      1.835
REMARK  Name = 
REMARK  8 active torsions:
REMARK  status: ('A' for Active; 'I' for Inactive)
REMARK    1  A    between atoms: N_2  and  O_4
REMARK    2  A    between atoms: O_4  and  C_5
REMARK    3  A    between atoms: C_5  and  C_6
REMARK    4  A    between atoms: C_6  and  C_7
REMARK    5  A    between atoms: C_6  and  O_15
REMARK    6  A    between atoms: C_7  and  C_8
REMARK    7  A    between atoms: C_8  and  C_9
REMARK    8  A    between atoms: O_15  and  N_16
REMARK                            x       y       z     vdW  Elec       q    Type
REMARK                         _______ _______ _______ _____ _____    ______ ____
ROOT
ATOM      1  C   UNL     1       5.655   4.749  16.878  0.00  0.00    +0.000 C 
ENDROOT
BRANCH   1   2
ATOM      2  C   UNL     1       5.769   5.387  15.480  0.00  0.00    +0.000 C 
BRANCH   2   3
ATOM      3  O   UNL     1       7.132   5.417  15.057  0.00  0.00    +0.000 OA
BRANCH   3   5
ATOM      4  O   UNL     1       8.075   5.680  13.074  0.00  0.00    +0.000 OA
ATOM      5  N   UNL     1       7.267   5.001  13.707  0.00  0.00    +0.000 N 
ATOM      6  O   UNL     1       6.599   4.032  13.343  0.00  0.00    +0.000 OA
ENDBRANCH   3   5
ENDBRANCH   2   3
ENDBRANCH   1   2
BRANCH   1   7
ATOM      7  C   UNL     1       4.173   4.526  17.239  0.00  0.00    +0.000 C 
BRANCH   7   8
ATOM      8  C   UNL     1       3.819   3.089  17.614  0.00  0.00    +0.000 C 
BRANCH   8   9
ATOM      9  C   UNL     1       2.958   3.060  18.849  0.00  0.00    +0.000 A 
ATOM     10  C   UNL     1       1.591   3.350  18.766  0.00  0.00    +0.000 A 
ATOM     11  C   UNL     1       0.795   3.339  19.910  0.00  0.00    +0.000 A 
ATOM     12  C   UNL     1       1.363   3.043  21.148  0.00  0.00    +0.000 A 
ATOM     13  C   UNL     1       2.727   2.771  21.247  0.00  0.00    +0.000 A 
ATOM     14  C   UNL     1       3.524   2.781  20.101  0.00  0.00    +0.000 A 
ENDBRANCH   8   9
ENDBRANCH   7   8
ENDBRANCH   1   7
BRANCH   1  15
ATOM     15  O   UNL     1       6.205   5.689  17.814  0.00  0.00    +0.000 OA
BRANCH  15  16
ATOM     16  N   UNL     1       7.100   5.105  18.747  0.00  0.00    +0.000 N 
ATOM     17  O   UNL     1       6.923   5.367  19.938  0.00  0.00    +0.000 OA
ATOM     18  O   UNL     1       7.954   4.403  18.211  0.00  0.00    +0.000 OA
ENDBRANCH  15  16
ENDBRANCH   1  15
TORSDOF 8
ENDMDL
MODEL 6
REMARK VINA RESULT:      -6.6      1.356      3.761
REMARK  Name = 
REMARK  8 active torsions:
REMARK  status: ('A' for Active; 'I' for Inactive)
REMARK    1  A    between atoms: N_2  and  O_4
REMARK    2  A    between atoms: O_4  and  C_5
REMARK    3  A    between atoms: C_5  and  C_6
REMARK    4  A    between atoms: C_6  and  C_7
REMARK    5  A    between atoms: C_6  and  O_15
REMARK    6  A    between atoms: C_7  and  C_8
REMARK    7  A    between atoms: C_8  and  C_9
REMARK    8  A    between atoms: O_15  and  N_16
REMARK                            x       y       z     vdW  Elec       q    Type
REMARK                         _______ _______ _______ _____ _____    ______ ____
ROOT
ATOM      1  C   UNL     1       6.298   4.909  16.353  0.00  0.00    +0.000 C 
ENDROOT
BRANCH   1   2
ATOM      2  C   UNL     1       7.432   4.568  17.340  0.00  0.00    +0.000 C 
BRANCH   2   3
ATOM      3  O   UNL     1       6.972   4.687  18.686  0.00  0.00    +0.000 OA
BRANCH   3   5
ATOM      4  O   UNL     1       7.919   5.329  20.579  0.00  0.00    +0.000 OA
ATOM      5  N   UNL     1       7.722   5.651  19.408  0.00  0.00    +0.000 N 
ATOM      6  O   UNL     1       8.091   6.656  18.797  0.00  0.00    +0.000 OA
ENDBRANCH   3   5
ENDBRANCH   2   3
ENDBRANCH   1   2
BRANCH   1   7
ATOM      7  C   UNL     1       4.947   4.946  17.092  0.00  0.00    +0.000 C 
BRANCH   7   8
ATOM      8  C   UNL     1       4.057   3.729  16.853  0.00  0.00    +0.000 C 
BRANCH   8   9
ATOM      9  C   UNL     1       3.218   3.437  18.069  0.00  0.00    +0.000 A 
ATOM     10  C   UNL     1       1.842   3.700  18.059  0.00  0.00    +0.000 A 
ATOM     11  C   UNL     1       1.067   3.445  19.189  0.00  0.00    +0.000 A 
ATOM     12  C   UNL     1       1.663   2.932  20.340  0.00  0.00    +0.000 A 
ATOM     13  C   UNL     1       3.035   2.685  20.368  0.00  0.00    +0.000 A 
ATOM     14  C   UNL     1       3.812   2.938  19.236  0.00  0.00    +0.000 A 
ENDBRANCH   8   9
ENDBRANCH   7   8
ENDBRANCH   1   7
BRANCH   1  15
ATOM     15  O   UNL     1       6.249   3.846  15.388  0.00  0.00    +0.000 OA
BRANCH  15  16
ATOM     16  N   UNL     1       6.555   4.262  14.067  0.00  0.00    +0.000 N 
ATOM     17  O   UNL     1       7.283   5.247  13.940  0.00  0.00    +0.000 OA
ATOM     18  O   UNL     1       6.025   3.556  13.211  0.00  0.00    +0.000 OA
ENDBRANCH  15  16
ENDBRANCH   1  15
TORSDOF 8
ENDMDL
MODEL 7
REMARK VINA RESULT:      -6.6      1.008      1.764
REMARK  Name = 
REMARK  8 active torsions:
REMARK  status: ('A' for Active; 'I' for Inactive)
REMARK    1  A    between atoms: N_2  and  O_4
REMARK    2  A    between atoms: O_4  and  C_5
REMARK    3  A    between atoms: C_5  and  C_6
REMARK    4  A    between atoms: C_6  and  C_7
REMARK    5  A    between atoms: C_6  and  O_15
REMARK    6  A    between atoms: C_7  and  C_8
REMARK    7  A    between atoms: C_8  and  C_9
REMARK    8  A    between atoms: O_15  and  N_16
REMARK                            x       y       z     vdW  Elec       q    Type
REMARK                         _______ _______ _______ _____ _____    ______ ____
ROOT
ATOM      1  C   UNL     1       6.181   4.484  17.503  0.00  0.00    +0.000 C 
ENDROOT
BRANCH   1   2
ATOM      2  C   UNL     1       7.007   4.537  16.203  0.00  0.00    +0.000 C 
BRANCH   2   3
ATOM      3  O   UNL     1       6.333   3.837  15.157  0.00  0.00    +0.000 OA
BRANCH   3   5
ATOM      4  O   UNL     1       6.266   3.646  12.955  0.00  0.00    +0.000 OA
ATOM      5  N   UNL     1       6.702   4.331  13.879  0.00  0.00    +0.000 N 
ATOM      6  O   UNL     1       7.376   5.362  13.843  0.00  0.00    +0.000 OA
ENDBRANCH   3   5
ENDBRANCH   2   3
ENDBRANCH   1   2
BRANCH   1   7
ATOM      7  C   UNL     1       4.719   4.115  17.187  0.00  0.00    +0.000 C 
BRANCH   7   8
ATOM      8  C   UNL     1       3.689   5.143  17.650  0.00  0.00    +0.000 C 
BRANCH   8   9
ATOM      9  C   UNL     1       2.655   4.498  18.534  0.00  0.00    +0.000 A 
ATOM     10  C   UNL     1       1.935   3.384  18.085  0.00  0.00    +0.000 A 
ATOM     11  C   UNL     1       0.966   2.795  18.896  0.00  0.00    +0.000 A 
ATOM     12  C   UNL     1       0.705   3.321  20.160  0.00  0.00    +0.000 A 
ATOM     13  C   UNL     1       1.402   4.441  20.611  0.00  0.00    +0.000 A 
ATOM     14  C   UNL     1       2.374   5.030  19.800  0.00  0.00    +0.000 A 
ENDBRANCH   8   9
ENDBRANCH   7   8
ENDBRANCH   1   7
BRANCH   1  15
ATOM     15  O   UNL     1       6.196   5.807  18.063  0.00  0.00    +0.000 OA
BRANCH  15  16
ATOM     16  N   UNL     1       7.274   6.035  18.956  0.00  0.00    +0.000 N 
ATOM     17  O   UNL     1       8.098   6.894  18.639  0.00  0.00    +0.000 OA
ATOM     18  O   UNL     1       7.229   5.312  19.949  0.00  0.00    +0.000 OA
ENDBRANCH  15  16
ENDBRANCH   1  15
TORSDOF 8
ENDMDL
MODEL 8
REMARK VINA RESULT:      -6.5      1.137      1.421
REMARK  Name = 
REMARK  8 active torsions:
REMARK  status: ('A' for Active; 'I' for Inactive)
REMARK    1  A    between atoms: N_2  and  O_4
REMARK    2  A    between atoms: O_4  and  C_5
REMARK    3  A    between atoms: C_5  and  C_6
REMARK    4  A    between atoms: C_6  and  C_7
REMARK    5  A    between atoms: C_6  and  O_15
REMARK    6  A    between atoms: C_7  and  C_8
REMARK    7  A    between atoms: C_8  and  C_9
REMARK    8  A    between atoms: O_15  and  N_16
REMARK                            x       y       z     vdW  Elec       q    Type
REMARK                         _______ _______ _______ _____ _____    ______ ____
ROOT
ATOM      1  C   UNL     1       6.143   4.832  17.135  0.00  0.00    +0.000 C 
ENDROOT
BRANCH   1   2
ATOM      2  C   UNL     1       6.117   5.370  15.692  0.00  0.00    +0.000 C 
BRANCH   2   3
ATOM      3  O   UNL     1       7.433   5.371  15.138  0.00  0.00    +0.000 OA
BRANCH   3   5
ATOM      4  O   UNL     1       6.633   4.155  13.473  0.00  0.00    +0.000 OA
ATOM      5  N   UNL     1       7.414   5.063  13.753  0.00  0.00    +0.000 N 
ATOM      6  O   UNL     1       8.143   5.729  13.015  0.00  0.00    +0.000 OA
ENDBRANCH   3   5
ENDBRANCH   2   3
ENDBRANCH   1   2
BRANCH   1   7
ATOM      7  C   UNL     1       4.860   4.029  17.425  0.00  0.00    +0.000 C 
BRANCH   7   8
ATOM      8  C   UNL     1       3.586   4.868  17.486  0.00  0.00    +0.000 C 
BRANCH   8   9
ATOM      9  C   UNL     1       2.619   4.293  18.487  0.00  0.00    +0.000 A 
ATOM     10  C   UNL     1       2.569   4.795  19.793  0.00  0.00    +0.000 A 
ATOM     11  C   UNL     1       1.686   4.253  20.725  0.00  0.00    +0.000 A 
ATOM     12  C   UNL     1       0.850   3.200  20.360  0.00  0.00    +0.000 A 
ATOM     13  C   UNL     1       0.904   2.678  19.068  0.00  0.00    +0.000 A 
ATOM     14  C   UNL     1       1.787   3.221  18.133  0.00  0.00    +0.000 A 
ENDBRANCH   8   9
ENDBRANCH   7   8
ENDBRANCH   1   7
BRANCH   1  15
ATOM     15  O   UNL     1       6.162   5.973  18.008  0.00  0.00    +0.000 OA
BRANCH  15  16
ATOM     16  N   UNL     1       7.234   5.961  18.938  0.00  0.00    +0.000 N 
ATOM     17  O   UNL     1       7.123   5.221  19.917  0.00  0.00    +0.000 OA
ATOM     18  O   UNL     1       8.146   6.721  18.621  0.00  0.00    +0.000 OA
ENDBRANCH  15  16
ENDBRANCH   1  15
TORSDOF 8
ENDMDL
MODEL 9
REMARK VINA RESULT:      -6.5      2.192      2.429
REMARK  Name = 
REMARK  8 active torsions:
REMARK  status: ('A' for Active; 'I' for Inactive)
REMARK    1  A    between atoms: N_2  and  O_4
REMARK    2  A    between atoms: O_4  and  C_5
REMARK    3  A    between atoms: C_5  and  C_6
REMARK    4  A    between atoms: C_6  and  C_7
REMARK    5  A    between atoms: C_6  and  O_15
REMARK    6  A    between atoms: C_7  and  C_8
REMARK    7  A    between atoms: C_8  and  C_9
REMARK    8  A    between atoms: O_15  and  N_16
REMARK                            x       y       z     vdW  Elec       q    Type
REMARK                         _______ _______ _______ _____ _____    ______ ____
ROOT
ATOM      1  C   UNL     1       5.164   4.223  18.415  0.00  0.00    +0.000 C 
ENDROOT
BRANCH   1   2
ATOM      2  C   UNL     1       6.493   4.331  17.643  0.00  0.00    +0.000 C 
BRANCH   2   3
ATOM      3  O   UNL     1       6.252   4.330  16.236  0.00  0.00    +0.000 OA
BRANCH   3   5
ATOM      4  O   UNL     1       5.484   6.053  15.081  0.00  0.00    +0.000 OA
ATOM      5  N   UNL     1       6.470   5.613  15.671  0.00  0.00    +0.000 N 
ATOM      6  O   UNL     1       7.576   6.129  15.845  0.00  0.00    +0.000 OA
ENDBRANCH   3   5
ENDBRANCH   2   3
ENDBRANCH   1   2
BRANCH   1   7
ATOM      7  C   UNL     1       4.601   5.629  18.699  0.00  0.00    +0.000 C 
BRANCH   7   8
ATOM      8  C   UNL     1       3.165   5.846  18.228  0.00  0.00    +0.000 C 
BRANCH   8   9
ATOM      9  C   UNL     1       2.244   4.829  18.846  0.00  0.00    +0.000 A 
ATOM     10  C   UNL     1       2.094   4.762  20.237  0.00  0.00    +0.000 A 
ATOM     11  C   UNL     1       1.252   3.810  20.811  0.00  0.00    +0.000 A 
ATOM     12  C   UNL     1       0.560   2.914  19.999  0.00  0.00    +0.000 A 
ATOM     13  C   UNL     1       0.716   2.958  18.614  0.00  0.00    +0.000 A 
ATOM     14  C   UNL     1       1.557   3.912  18.038  0.00  0.00    +0.000 A 
ENDBRANCH   8   9
ENDBRANCH   7   8
ENDBRANCH   1   7
BRANCH   1  15
ATOM     15  O   UNL     1       5.460   3.598  19.675  0.00  0.00    +0.000 OA
BRANCH  15  16
ATOM     16  N   UNL     1       4.762   2.381  19.885  0.00  0.00    +0.000 N 
ATOM     17  O   UNL     1       4.084   1.952  18.950  0.00  0.00    +0.000 OA
ATOM     18  O   UNL     1       4.939   1.920  21.010  0.00  0.00    +0.000 OA
ENDBRANCH  15  16
ENDBRANCH   1  15
TORSDOF 8
ENDMDL
