MODEL 1
REMARK VINA RESULT:      -6.5      0.000      0.000
REMARK  Name = 
REMARK  1 active torsions:
REMARK  status: ('A' for Active; 'I' for Inactive)
REMARK    1  A    between atoms: N_12  and  O_13
REMARK                            x       y       z     vdW  Elec       q    Type
REMARK                         _______ _______ _______ _____ _____    ______ ____
ROOT
ATOM      1  O   UNL     1       7.746   6.258  16.129  0.00  0.00    +0.000 OA
ATOM      2  C   UNL     1       6.741   6.000  16.795  0.00  0.00    +0.000 C 
ATOM      3  C   UNL     1       5.500   6.849  16.647  0.00  0.00    +0.000 C 
ATOM      4  C   UNL     1       4.434   6.650  17.686  0.00  0.00    +0.000 A 
ATOM      5  C   UNL     1       3.297   7.475  17.670  0.00  0.00    +0.000 A 
ATOM      6  C   UNL     1       2.296   7.323  18.629  0.00  0.00    +0.000 A 
ATOM      7  C   UNL     1       2.418   6.349  19.619  0.00  0.00    +0.000 A 
ATOM      8  C   UNL     1       3.529   5.509  19.633  0.00  0.00    +0.000 A 
ATOM      9  C   UNL     1       4.525   5.648  18.658  0.00  0.00    +0.000 A 
ATOM     10  C   UNL     1       5.664   4.705  18.640  0.00  0.00    +0.000 C 
ATOM     11  O   UNL     1       5.728   3.763  19.426  0.00  0.00    +0.000 OA
ATOM     12  N   UNL     1       6.635   4.944  17.681  0.00  0.00    +0.000 N 
ENDROOT
BRANCH  12  13
ATOM     13  O   UNL     1       7.738   4.058  17.718  0.00  0.00    +0.000 OA
ATOM     14  H   UNL     1       8.293   4.458  18.418  0.00  0.00    +0.000 HD
ENDBRANCH  12  13
TORSDOF 1
ENDMDL
MODEL 2
REMARK VINA RESULT:      -6.5      2.042      2.477
REMARK  Name = 
REMARK  1 active torsions:
REMARK  status: ('A' for Active; 'I' for Inactive)
REMARK    1  A    between atoms: N_12  and  O_13
REMARK                            x       y       z     vdW  Elec       q    Type
REMARK                         _______ _______ _______ _____ _____    ______ ____
ROOT
ATOM      1  O   UNL     1       6.812   7.728  17.031  0.00  0.00    +0.000 OA
ATOM      2  C   UNL     1       6.013   6.799  16.894  0.00  0.00    +0.000 C 
ATOM      3  C   UNL     1       4.614   6.918  17.453  0.00  0.00    +0.000 C 
ATOM      4  C   UNL     1       3.808   5.652  17.497  0.00  0.00    +0.000 A 
ATOM      5  C   UNL     1       2.537   5.668  18.095  0.00  0.00    +0.000 A 
ATOM      6  C   UNL     1       1.770   4.504  18.162  0.00  0.00    +0.000 A 
ATOM      7  C   UNL     1       2.263   3.310  17.638  0.00  0.00    +0.000 A 
ATOM      8  C   UNL     1       3.512   3.286  17.021  0.00  0.00    +0.000 A 
ATOM      9  C   UNL     1       4.273   4.458  16.936  0.00  0.00    +0.000 A 
ATOM     10  C   UNL     1       5.566   4.436  16.216  0.00  0.00    +0.000 C 
ATOM     11  O   UNL     1       5.961   3.426  15.640  0.00  0.00    +0.000 OA
ATOM     12  N   UNL     1       6.285   5.621  16.225  0.00  0.00    +0.000 N 
ENDROOT
BRANCH  12  13
ATOM     13  O   UNL     1       7.540   5.558  15.573  0.00  0.00    +0.000 OA
ATOM     14  H   UNL     1       8.093   5.110  16.245  0.00  0.00    +0.000 HD
ENDBRANCH  12  13
TORSDOF 1
ENDMDL
MODEL 3
REMARK VINA RESULT:      -6.4      1.245      2.617
REMARK  Name = 
REMARK  1 active torsions:
REMARK  status: ('A' for Active; 'I' for Inactive)
REMARK    1  A    between atoms: N_12  and  O_13
REMARK                            x       y       z     vdW  Elec       q    Type
REMARK                         _______ _______ _______ _____ _____    ______ ____
ROOT
ATOM      1  O   UNL     1       8.217   4.112  17.290  0.00  0.00    +0.000 OA
ATOM      2  C   UNL     1       7.207   4.815  17.366  0.00  0.00    +0.000 C 
ATOM      3  C   UNL     1       6.383   4.818  18.633  0.00  0.00    +0.000 C 
ATOM      4  C   UNL     1       5.032   5.467  18.543  0.00  0.00    +0.000 A 
ATOM      5  C   UNL     1       4.172   5.418  19.652  0.00  0.00    +0.000 A 
ATOM      6  C   UNL     1       2.906   6.002  19.595  0.00  0.00    +0.000 A 
ATOM      7  C   UNL     1       2.480   6.638  18.430  0.00  0.00    +0.000 A 
ATOM      8  C   UNL     1       3.333   6.714  17.330  0.00  0.00    +0.000 A 
ATOM      9  C   UNL     1       4.611   6.145  17.394  0.00  0.00    +0.000 A 
ATOM     10  C   UNL     1       5.532   6.295  16.247  0.00  0.00    +0.000 C 
ATOM     11  O   UNL     1       5.224   6.957  15.259  0.00  0.00    +0.000 OA
ATOM     12  N   UNL     1       6.757   5.656  16.365  0.00  0.00    +0.000 N 
ENDROOT
BRANCH  12  13
ATOM     13  O   UNL     1       7.599   5.773  15.233  0.00  0.00    +0.000 OA
ATOM     14  H   UNL     1       7.982   6.665  15.359  0.00  0.00    +0.000 HD
ENDBRANCH  12  13
TORSDOF 1
ENDMDL
MODEL 4
REMARK VINA RESULT:      -6.3      1.824      2.028
REMARK  Name = 
REMARK  1 active torsions:
REMARK  status: ('A' for Active; 'I' for Inactive)
REMARK    1  A    between atoms: N_12  and  O_13
REMARK                            x       y       z     vdW  Elec       q    Type
REMARK                         _______ _______ _______ _____ _____    ______ ____
ROOT
ATOM      1  O   UNL     1       6.650   4.028  15.246  0.00  0.00    +0.000 OA
ATOM      2  C   UNL     1       6.012   4.135  16.295  0.00  0.00    +0.000 C 
ATOM      3  C   UNL     1       4.527   3.855  16.308  0.00  0.00    +0.000 C 
ATOM      4  C   UNL     1       3.783   4.280  17.541  0.00  0.00    +0.000 A 
ATOM      5  C   UNL     1       2.386   4.142  17.581  0.00  0.00    +0.000 A 
ATOM      6  C   UNL     1       1.665   4.540  18.708  0.00  0.00    +0.000 A 
ATOM      7  C   UNL     1       2.329   5.084  19.806  0.00  0.00    +0.000 A 
ATOM      8  C   UNL     1       3.717   5.204  19.789  0.00  0.00    +0.000 A 
ATOM      9  C   UNL     1       4.442   4.787  18.666  0.00  0.00    +0.000 A 
ATOM     10  C   UNL     1       5.919   4.853  18.687  0.00  0.00    +0.000 C 
ATOM     11  O   UNL     1       6.530   5.212  19.690  0.00  0.00    +0.000 OA
ATOM     12  N   UNL     1       6.561   4.475  17.518  0.00  0.00    +0.000 N 
ENDROOT
BRANCH  12  13
ATOM     13  O   UNL     1       7.971   4.596  17.548  0.00  0.00    +0.000 OA
ATOM     14  H   UNL     1       8.201   4.073  18.342  0.00  0.00    +0.000 HD
ENDBRANCH  12  13
TORSDOF 1
ENDMDL
MODEL 5
REMARK VINA RESULT:      -6.3      1.939      2.622
REMARK  Name = 
REMARK  1 active torsions:
REMARK  status: ('A' for Active; 'I' for Inactive)
REMARK    1  A    between atoms: N_12  and  O_13
REMARK                            x       y       z     vdW  Elec       q    Type
REMARK                         _______ _______ _______ _____ _____    ______ ____
ROOT
ATOM      1  O   UNL     1       8.057   5.210  19.079  0.00  0.00    +0.000 OA
ATOM      2  C   UNL     1       6.952   5.045  18.558  0.00  0.00    +0.000 C 
ATOM      3  C   UNL     1       5.696   5.360  19.337  0.00  0.00    +0.000 C 
ATOM      4  C   UNL     1       4.407   4.867  18.745  0.00  0.00    +0.000 A 
ATOM      5  C   UNL     1       3.213   5.037  19.463  0.00  0.00    +0.000 A 
ATOM      6  C   UNL     1       2.001   4.578  18.945  0.00  0.00    +0.000 A 
ATOM      7  C   UNL     1       1.967   3.941  17.705  0.00  0.00    +0.000 A 
ATOM      8  C   UNL     1       3.142   3.788  16.971  0.00  0.00    +0.000 A 
ATOM      9  C   UNL     1       4.355   4.266  17.483  0.00  0.00    +0.000 A 
ATOM     10  C   UNL     1       5.582   4.162  16.664  0.00  0.00    +0.000 C 
ATOM     11  O   UNL     1       5.553   3.717  15.520  0.00  0.00    +0.000 OA
ATOM     12  N   UNL     1       6.750   4.606  17.263  0.00  0.00    +0.000 N 
ENDROOT
BRANCH  12  13
ATOM     13  O   UNL     1       7.918   4.447  16.478  0.00  0.00    +0.000 OA
ATOM     14  H   UNL     1       7.909   5.264  15.938  0.00  0.00    +0.000 HD
ENDBRANCH  12  13
TORSDOF 1
ENDMDL
MODEL 6
REMARK VINA RESULT:      -6.1      2.356      2.538
REMARK  Name = 
REMARK  1 active torsions:
REMARK  status: ('A' for Active; 'I' for Inactive)
REMARK    1  A    between atoms: N_12  and  O_13
REMARK                            x       y       z     vdW  Elec       q    Type
REMARK                         _______ _______ _______ _____ _____    ______ ____
ROOT
ATOM      1  O   UNL     1       7.596   8.178  16.881  0.00  0.00    +0.000 OA
ATOM      2  C   UNL     1       7.145   7.125  17.335  0.00  0.00    +0.000 C 
ATOM      3  C   UNL     1       6.096   6.359  16.564  0.00  0.00    +0.000 C 
ATOM      4  C   UNL     1       5.399   5.256  17.309  0.00  0.00    +0.000 A 
ATOM      5  C   UNL     1       4.345   4.568  16.687  0.00  0.00    +0.000 A 
ATOM      6  C   UNL     1       3.670   3.547  17.358  0.00  0.00    +0.000 A 
ATOM      7  C   UNL     1       4.037   3.203  18.658  0.00  0.00    +0.000 A 
ATOM      8  C   UNL     1       5.098   3.861  19.277  0.00  0.00    +0.000 A 
ATOM      9  C   UNL     1       5.787   4.873  18.596  0.00  0.00    +0.000 A 
ATOM     10  C   UNL     1       6.956   5.515  19.237  0.00  0.00    +0.000 C 
ATOM     11  O   UNL     1       7.373   5.142  20.330  0.00  0.00    +0.000 OA
ATOM     12  N   UNL     1       7.549   6.544  18.523  0.00  0.00    +0.000 N 
ENDROOT
BRANCH  12  13
ATOM     13  O   UNL     1       8.633   7.175  19.180  0.00  0.00    +0.000 OA
ATOM     14  H   UNL     1       8.679   8.034  18.711  0.00  0.00    +0.000 HD
ENDBRANCH  12  13
TORSDOF 1
ENDMDL
MODEL 7
REMARK VINA RESULT:      -6.1      2.974      4.571
REMARK  Name = 
REMARK  1 active torsions:
REMARK  status: ('A' for Active; 'I' for Inactive)
REMARK    1  A    between atoms: N_12  and  O_13
REMARK                            x       y       z     vdW  Elec       q    Type
REMARK                         _______ _______ _______ _____ _____    ______ ____
ROOT
ATOM      1  O   UNL     1       0.658   4.039  20.112  0.00  0.00    +0.000 OA
ATOM      2  C   UNL     1       1.672   4.060  19.411  0.00  0.00    +0.000 C 
ATOM      3  C   UNL     1       2.325   5.379  19.066  0.00  0.00    +0.000 C 
ATOM      4  C   UNL     1       3.370   5.340  17.988  0.00  0.00    +0.000 A 
ATOM      5  C   UNL     1       3.946   6.542  17.548  0.00  0.00    +0.000 A 
ATOM      6  C   UNL     1       4.910   6.539  16.539  0.00  0.00    +0.000 A 
ATOM      7  C   UNL     1       5.308   5.338  15.955  0.00  0.00    +0.000 A 
ATOM      8  C   UNL     1       4.761   4.136  16.399  0.00  0.00    +0.000 A 
ATOM      9  C   UNL     1       3.808   4.137  17.425  0.00  0.00    +0.000 A 
ATOM     10  C   UNL     1       3.288   2.850  17.937  0.00  0.00    +0.000 C 
ATOM     11  O   UNL     1       3.715   1.776  17.523  0.00  0.00    +0.000 OA
ATOM     12  N   UNL     1       2.307   2.938  18.913  0.00  0.00    +0.000 N 
ENDROOT
BRANCH  12  13
ATOM     13  O   UNL     1       1.790   1.694  19.348  0.00  0.00    +0.000 OA
ATOM     14  H   UNL     1       2.400   1.468  20.080  0.00  0.00    +0.000 HD
ENDBRANCH  12  13
TORSDOF 1
ENDMDL
MODEL 8
REMARK VINA RESULT:      -6.1      2.377      3.054
REMARK  Name = 
REMARK  1 active torsions:
REMARK  status: ('A' for Active; 'I' for Inactive)
REMARK    1  A    between atoms: N_12  and  O_13
REMARK                            x       y       z     vdW  Elec       q    Type
REMARK                         _______ _______ _______ _____ _____    ______ ____
ROOT
ATOM      1  O   UNL     1       7.399   4.952  15.786  0.00  0.00    +0.000 OA
ATOM      2  C   UNL     1       6.334   5.000  16.404  0.00  0.00    +0.000 C 
ATOM      3  C   UNL     1       5.600   3.723  16.745  0.00  0.00    +0.000 C 
ATOM      4  C   UNL     1       4.190   3.880  17.237  0.00  0.00    +0.000 A 
ATOM      5  C   UNL     1       3.416   2.733  17.478  0.00  0.00    +0.000 A 
ATOM      6  C   UNL     1       2.099   2.847  17.924  0.00  0.00    +0.000 A 
ATOM      7  C   UNL     1       1.536   4.105  18.131  0.00  0.00    +0.000 A 
ATOM      8  C   UNL     1       2.301   5.250  17.919  0.00  0.00    +0.000 A 
ATOM      9  C   UNL     1       3.630   5.136  17.490  0.00  0.00    +0.000 A 
ATOM     10  C   UNL     1       4.453   6.356  17.337  0.00  0.00    +0.000 C 
ATOM     11  O   UNL     1       4.016   7.465  17.633  0.00  0.00    +0.000 OA
ATOM     12  N   UNL     1       5.738   6.163  16.856  0.00  0.00    +0.000 N 
ENDROOT
BRANCH  12  13
ATOM     13  O   UNL     1       6.487   7.351  16.671  0.00  0.00    +0.000 OA
ATOM     14  H   UNL     1       7.377   7.075  16.971  0.00  0.00    +0.000 HD
ENDBRANCH  12  13
TORSDOF 1
ENDMDL
MODEL 9
REMARK VINA RESULT:      -6.0      2.334      3.342
REMARK  Name = 
REMARK  1 active torsions:
REMARK  status: ('A' for Active; 'I' for Inactive)
REMARK    1  A    between atoms: N_12  and  O_13
REMARK                            x       y       z     vdW  Elec       q    Type
REMARK                         _______ _______ _______ _____ _____    ______ ____
ROOT
ATOM      1  O   UNL     1       6.333   3.711  13.296  0.00  0.00    +0.000 OA
ATOM      2  C   UNL     1       6.286   4.066  14.476  0.00  0.00    +0.000 C 
ATOM      3  C   UNL     1       5.353   3.368  15.438  0.00  0.00    +0.000 C 
ATOM      4  C   UNL     1       5.145   4.038  16.765  0.00  0.00    +0.000 A 
ATOM      5  C   UNL     1       4.216   3.499  17.669  0.00  0.00    +0.000 A 
ATOM      6  C   UNL     1       3.992   4.107  18.905  0.00  0.00    +0.000 A 
ATOM      7  C   UNL     1       4.690   5.262  19.253  0.00  0.00    +0.000 A 
ATOM      8  C   UNL     1       5.633   5.794  18.375  0.00  0.00    +0.000 A 
ATOM      9  C   UNL     1       5.872   5.173  17.143  0.00  0.00    +0.000 A 
ATOM     10  C   UNL     1       6.924   5.705  16.251  0.00  0.00    +0.000 C 
ATOM     11  O   UNL     1       7.636   6.646  16.590  0.00  0.00    +0.000 OA
ATOM     12  N   UNL     1       7.060   5.070  15.026  0.00  0.00    +0.000 N 
ENDROOT
BRANCH  12  13
ATOM     13  O   UNL     1       8.040   5.631  14.172  0.00  0.00    +0.000 OA
ATOM     14  H   UNL     1       7.515   5.833  13.370  0.00  0.00    +0.000 HD
ENDBRANCH  12  13
TORSDOF 1
ENDMDL
