MODEL 1
REMARK VINA RESULT:      -6.0      0.000      0.000
REMARK  Name = 
REMARK  5 active torsions:
REMARK  status: ('A' for Active; 'I' for Inactive)
REMARK    1  A    between atoms: O_1  and  C_2
REMARK    2  A    between atoms: C_2  and  C_3
REMARK    3  A    between atoms: C_3  and  O_4
REMARK    4  A    between atoms: C_3  and  C_5
REMARK    5  A    between atoms: C_5  and  C_6
REMARK                            x       y       z     vdW  Elec       q    Type
REMARK                         _______ _______ _______ _____ _____    ______ ____
ROOT
ATOM      1  C   UNL     1       4.294   5.249  17.165  0.00  0.00    +0.000 A 
ATOM      2  C   UNL     1       3.696   6.106  18.118  0.00  0.00    +0.000 A 
ATOM      3  C   UNL     1       2.602   5.682  18.880  0.00  0.00    +0.000 A 
ATOM      4  C   UNL     1       2.120   4.413  18.659  0.00  0.00    +0.000 A 
ATOM      5  C   UNL     1       2.692   3.571  17.734  0.00  0.00    +0.000 A 
ATOM      6  C   UNL     1       3.779   3.956  16.977  0.00  0.00    +0.000 A 
ATOM      7  O   UNL     1       2.062   2.368  17.666  0.00  0.00    +0.000 OA
ATOM      8  C   UNL     1       0.999   2.567  18.620  0.00  0.00    +0.000 C 
ATOM      9  O   UNL     1       1.058   3.843  19.290  0.00  0.00    +0.000 OA
ENDROOT
BRANCH   1  10
ATOM     10  C   UNL     1       5.465   5.720  16.334  0.00  0.00    +0.000 C 
BRANCH  10  11
ATOM     11  C   UNL     1       6.694   6.148  17.151  0.00  0.00    +0.000 C 
BRANCH  11  12
ATOM     12  O   UNL     1       7.705   6.600  16.236  0.00  0.00    +0.000 OA
ATOM     13  H   UNL     1       7.985   5.798  15.750  0.00  0.00    +0.000 HD
ENDBRANCH  11  12
BRANCH  11  14
ATOM     14  C   UNL     1       7.283   5.011  17.997  0.00  0.00    +0.000 C 
BRANCH  14  15
ATOM     15  O   UNL     1       8.032   4.133  17.154  0.00  0.00    +0.000 OA
ATOM     16  H   UNL     1       8.958   4.188  17.452  0.00  0.00    +0.000 HD
ENDBRANCH  14  15
ENDBRANCH  11  14
ENDBRANCH  10  11
ENDBRANCH   1  10
TORSDOF 5
ENDMDL
MODEL 2
REMARK VINA RESULT:      -5.9      2.170      5.018
REMARK  Name = 
REMARK  5 active torsions:
REMARK  status: ('A' for Active; 'I' for Inactive)
REMARK    1  A    between atoms: O_1  and  C_2
REMARK    2  A    between atoms: C_2  and  C_3
REMARK    3  A    between atoms: C_3  and  O_4
REMARK    4  A    between atoms: C_3  and  C_5
REMARK    5  A    between atoms: C_5  and  C_6
REMARK                            x       y       z     vdW  Elec       q    Type
REMARK                         _______ _______ _______ _____ _____    ______ ____
ROOT
ATOM      1  C   UNL     1       4.884   4.574  18.143  0.00  0.00    +0.000 A 
ATOM      2  C   UNL     1       6.084   5.225  18.510  0.00  0.00    +0.000 A 
ATOM      3  C   UNL     1       7.054   5.539  17.553  0.00  0.00    +0.000 A 
ATOM      4  C   UNL     1       6.807   5.181  16.248  0.00  0.00    +0.000 A 
ATOM      5  C   UNL     1       5.644   4.546  15.879  0.00  0.00    +0.000 A 
ATOM      6  C   UNL     1       4.663   4.234  16.798  0.00  0.00    +0.000 A 
ATOM      7  O   UNL     1       5.600   4.274  14.547  0.00  0.00    +0.000 OA
ATOM      8  C   UNL     1       6.890   4.767  14.130  0.00  0.00    +0.000 C 
ATOM      9  O   UNL     1       7.641   5.387  15.193  0.00  0.00    +0.000 OA
ENDROOT
BRANCH   1  10
ATOM     10  C   UNL     1       3.848   4.222  19.186  0.00  0.00    +0.000 C 
BRANCH  10  11
ATOM     11  C   UNL     1       3.875   2.754  19.640  0.00  0.00    +0.000 C 
BRANCH  11  12
ATOM     12  O   UNL     1       5.247   2.340  19.730  0.00  0.00    +0.000 OA
ATOM     13  H   UNL     1       5.766   3.115  19.437  0.00  0.00    +0.000 HD
ENDBRANCH  11  12
BRANCH  11  14
ATOM     14  C   UNL     1       3.148   1.810  18.674  0.00  0.00    +0.000 C 
BRANCH  14  15
ATOM     15  O   UNL     1       4.011   0.721  18.337  0.00  0.00    +0.000 OA
ATOM     16  H   UNL     1       3.891   0.049  19.033  0.00  0.00    +0.000 HD
ENDBRANCH  14  15
ENDBRANCH  11  14
ENDBRANCH  10  11
ENDBRANCH   1  10
TORSDOF 5
ENDMDL
MODEL 3
REMARK VINA RESULT:      -5.9      1.403      5.284
REMARK  Name = 
REMARK  5 active torsions:
REMARK  status: ('A' for Active; 'I' for Inactive)
REMARK    1  A    between atoms: O_1  and  C_2
REMARK    2  A    between atoms: C_2  and  C_3
REMARK    3  A    between atoms: C_3  and  O_4
REMARK    4  A    between atoms: C_3  and  C_5
REMARK    5  A    between atoms: C_5  and  C_6
REMARK                            x       y       z     vdW  Elec       q    Type
REMARK                         _______ _______ _______ _____ _____    ______ ____
ROOT
ATOM      1  C   UNL     1       3.155   4.513  17.589  0.00  0.00    +0.000 A 
ATOM      2  C   UNL     1       3.439   5.887  17.760  0.00  0.00    +0.000 A 
ATOM      3  C   UNL     1       4.570   6.466  17.175  0.00  0.00    +0.000 A 
ATOM      4  C   UNL     1       5.401   5.651  16.441  0.00  0.00    +0.000 A 
ATOM      5  C   UNL     1       5.135   4.313  16.270  0.00  0.00    +0.000 A 
ATOM      6  C   UNL     1       4.022   3.716  16.824  0.00  0.00    +0.000 A 
ATOM      7  O   UNL     1       6.082   3.687  15.520  0.00  0.00    +0.000 OA
ATOM      8  C   UNL     1       6.998   4.776  15.281  0.00  0.00    +0.000 C 
ATOM      9  O   UNL     1       6.549   6.035  15.821  0.00  0.00    +0.000 OA
ENDROOT
BRANCH   1  10
ATOM     10  C   UNL     1       1.940   3.891  18.239  0.00  0.00    +0.000 C 
BRANCH  10  11
ATOM     11  C   UNL     1       2.246   2.669  19.120  0.00  0.00    +0.000 C 
BRANCH  11  12
ATOM     12  O   UNL     1       1.780   1.496  18.435  0.00  0.00    +0.000 OA
ATOM     13  H   UNL     1       0.840   1.677  18.232  0.00  0.00    +0.000 HD
ENDBRANCH  11  12
BRANCH  11  14
ATOM     14  C   UNL     1       1.564   2.728  20.493  0.00  0.00    +0.000 C 
BRANCH  14  15
ATOM     15  O   UNL     1       0.460   3.636  20.435  0.00  0.00    +0.000 OA
ATOM     16  H   UNL     1      -0.312   3.112  20.153  0.00  0.00    +0.000 HD
ENDBRANCH  14  15
ENDBRANCH  11  14
ENDBRANCH  10  11
ENDBRANCH   1  10
TORSDOF 5
ENDMDL
MODEL 4
REMARK VINA RESULT:      -5.9      1.470      1.813
REMARK  Name = 
REMARK  5 active torsions:
REMARK  status: ('A' for Active; 'I' for Inactive)
REMARK    1  A    between atoms: O_1  and  C_2
REMARK    2  A    between atoms: C_2  and  C_3
REMARK    3  A    between atoms: C_3  and  O_4
REMARK    4  A    between atoms: C_3  and  C_5
REMARK    5  A    between atoms: C_5  and  C_6
REMARK                            x       y       z     vdW  Elec       q    Type
REMARK                         _______ _______ _______ _____ _____    ______ ____
ROOT
ATOM      1  C   UNL     1       4.582   4.853  17.659  0.00  0.00    +0.000 A 
ATOM      2  C   UNL     1       5.155   4.132  18.733  0.00  0.00    +0.000 A 
ATOM      3  C   UNL     1       4.413   3.178  19.435  0.00  0.00    +0.000 A 
ATOM      4  C   UNL     1       3.106   2.975  19.057  0.00  0.00    +0.000 A 
ATOM      5  C   UNL     1       2.538   3.670  18.016  0.00  0.00    +0.000 A 
ATOM      6  C   UNL     1       3.247   4.609  17.296  0.00  0.00    +0.000 A 
ATOM      7  O   UNL     1       1.238   3.327  17.810  0.00  0.00    +0.000 OA
ATOM      8  C   UNL     1       1.041   2.371  18.872  0.00  0.00    +0.000 C 
ATOM      9  O   UNL     1       2.234   2.106  19.637  0.00  0.00    +0.000 OA
ENDROOT
BRANCH   1  10
ATOM     10  C   UNL     1       5.385   5.895  16.915  0.00  0.00    +0.000 C 
BRANCH  10  11
ATOM     11  C   UNL     1       6.817   5.463  16.564  0.00  0.00    +0.000 C 
BRANCH  11  12
ATOM     12  O   UNL     1       7.639   6.640  16.513  0.00  0.00    +0.000 OA
ATOM     13  H   UNL     1       7.101   7.305  16.038  0.00  0.00    +0.000 HD
ENDBRANCH  11  12
BRANCH  11  14
ATOM     14  C   UNL     1       6.918   4.745  15.212  0.00  0.00    +0.000 C 
BRANCH  14  15
ATOM     15  O   UNL     1       7.802   5.471  14.355  0.00  0.00    +0.000 OA
ATOM     16  H   UNL     1       8.472   4.834  14.047  0.00  0.00    +0.000 HD
ENDBRANCH  14  15
ENDBRANCH  11  14
ENDBRANCH  10  11
ENDBRANCH   1  10
TORSDOF 5
ENDMDL
MODEL 5
REMARK VINA RESULT:      -5.9      1.577      5.588
REMARK  Name = 
REMARK  5 active torsions:
REMARK  status: ('A' for Active; 'I' for Inactive)
REMARK    1  A    between atoms: O_1  and  C_2
REMARK    2  A    between atoms: C_2  and  C_3
REMARK    3  A    between atoms: C_3  and  O_4
REMARK    4  A    between atoms: C_3  and  C_5
REMARK    5  A    between atoms: C_5  and  C_6
REMARK                            x       y       z     vdW  Elec       q    Type
REMARK                         _______ _______ _______ _____ _____    ______ ____
ROOT
ATOM      1  C   UNL     1       4.212   3.962  17.474  0.00  0.00    +0.000 A 
ATOM      2  C   UNL     1       4.850   4.296  16.257  0.00  0.00    +0.000 A 
ATOM      3  C   UNL     1       6.096   4.932  16.250  0.00  0.00    +0.000 A 
ATOM      4  C   UNL     1       6.669   5.235  17.463  0.00  0.00    +0.000 A 
ATOM      5  C   UNL     1       6.057   4.916  18.652  0.00  0.00    +0.000 A 
ATOM      6  C   UNL     1       4.835   4.277  18.693  0.00  0.00    +0.000 A 
ATOM      7  O   UNL     1       6.785   5.307  19.733  0.00  0.00    +0.000 OA
ATOM      8  C   UNL     1       7.902   5.951  19.085  0.00  0.00    +0.000 C 
ATOM      9  O   UNL     1       7.860   5.866  17.647  0.00  0.00    +0.000 OA
ENDROOT
BRANCH   1  10
ATOM     10  C   UNL     1       2.858   3.290  17.474  0.00  0.00    +0.000 C 
BRANCH  10  11
ATOM     11  C   UNL     1       2.525   2.531  18.768  0.00  0.00    +0.000 C 
BRANCH  11  12
ATOM     12  O   UNL     1       2.815   1.141  18.559  0.00  0.00    +0.000 OA
ATOM     13  H   UNL     1       3.284   1.105  17.701  0.00  0.00    +0.000 HD
ENDBRANCH  11  12
BRANCH  11  14
ATOM     14  C   UNL     1       1.053   2.659  19.182  0.00  0.00    +0.000 C 
BRANCH  14  15
ATOM     15  O   UNL     1       0.249   1.837  18.333  0.00  0.00    +0.000 OA
ATOM     16  H   UNL     1       0.858   1.213  17.898  0.00  0.00    +0.000 HD
ENDBRANCH  14  15
ENDBRANCH  11  14
ENDBRANCH  10  11
ENDBRANCH   1  10
TORSDOF 5
ENDMDL
MODEL 6
REMARK VINA RESULT:      -5.8      1.591      1.943
REMARK  Name = 
REMARK  5 active torsions:
REMARK  status: ('A' for Active; 'I' for Inactive)
REMARK    1  A    between atoms: O_1  and  C_2
REMARK    2  A    between atoms: C_2  and  C_3
REMARK    3  A    between atoms: C_3  and  O_4
REMARK    4  A    between atoms: C_3  and  C_5
REMARK    5  A    between atoms: C_5  and  C_6
REMARK                            x       y       z     vdW  Elec       q    Type
REMARK                         _______ _______ _______ _____ _____    ______ ____
ROOT
ATOM      1  C   UNL     1       4.030   3.876  17.776  0.00  0.00    +0.000 A 
ATOM      2  C   UNL     1       2.738   4.197  17.297  0.00  0.00    +0.000 A 
ATOM      3  C   UNL     1       1.608   4.019  18.102  0.00  0.00    +0.000 A 
ATOM      4  C   UNL     1       1.795   3.510  19.366  0.00  0.00    +0.000 A 
ATOM      5  C   UNL     1       3.046   3.193  19.842  0.00  0.00    +0.000 A 
ATOM      6  C   UNL     1       4.180   3.368  19.077  0.00  0.00    +0.000 A 
ATOM      7  O   UNL     1       3.010   2.698  21.108  0.00  0.00    +0.000 OA
ATOM      8  C   UNL     1       1.589   2.695  21.356  0.00  0.00    +0.000 C 
ATOM      9  O   UNL     1       0.815   3.253  20.275  0.00  0.00    +0.000 OA
ENDROOT
BRANCH   1  10
ATOM     10  C   UNL     1       5.244   4.054  16.894  0.00  0.00    +0.000 C 
BRANCH  10  11
ATOM     11  C   UNL     1       5.943   5.415  17.041  0.00  0.00    +0.000 C 
BRANCH  11  12
ATOM     12  O   UNL     1       6.052   6.005  15.737  0.00  0.00    +0.000 OA
ATOM     13  H   UNL     1       5.157   5.933  15.349  0.00  0.00    +0.000 HD
ENDBRANCH  11  12
BRANCH  11  14
ATOM     14  C   UNL     1       7.350   5.310  17.643  0.00  0.00    +0.000 C 
BRANCH  14  15
ATOM     15  O   UNL     1       7.995   4.138  17.137  0.00  0.00    +0.000 OA
ATOM     16  H   UNL     1       8.834   4.053  17.625  0.00  0.00    +0.000 HD
ENDBRANCH  14  15
ENDBRANCH  11  14
ENDBRANCH  10  11
ENDBRANCH   1  10
TORSDOF 5
ENDMDL
MODEL 7
REMARK VINA RESULT:      -5.8      1.585      5.540
REMARK  Name = 
REMARK  5 active torsions:
REMARK  status: ('A' for Active; 'I' for Inactive)
REMARK    1  A    between atoms: O_1  and  C_2
REMARK    2  A    between atoms: C_2  and  C_3
REMARK    3  A    between atoms: C_3  and  O_4
REMARK    4  A    between atoms: C_3  and  C_5
REMARK    5  A    between atoms: C_5  and  C_6
REMARK                            x       y       z     vdW  Elec       q    Type
REMARK                         _______ _______ _______ _____ _____    ______ ____
ROOT
ATOM      1  C   UNL     1       3.702   4.267  17.892  0.00  0.00    +0.000 A 
ATOM      2  C   UNL     1       4.355   4.026  16.661  0.00  0.00    +0.000 A 
ATOM      3  C   UNL     1       5.730   4.238  16.523  0.00  0.00    +0.000 A 
ATOM      4  C   UNL     1       6.421   4.702  17.618  0.00  0.00    +0.000 A 
ATOM      5  C   UNL     1       5.797   4.942  18.820  0.00  0.00    +0.000 A 
ATOM      6  C   UNL     1       4.444   4.731  18.991  0.00  0.00    +0.000 A 
ATOM      7  O   UNL     1       6.655   5.402  19.768  0.00  0.00    +0.000 OA
ATOM      8  C   UNL     1       7.881   5.470  19.012  0.00  0.00    +0.000 C 
ATOM      9  O   UNL     1       7.752   4.982  17.661  0.00  0.00    +0.000 OA
ENDROOT
BRANCH   1  10
ATOM     10  C   UNL     1       2.212   4.053  18.029  0.00  0.00    +0.000 C 
BRANCH  10  11
ATOM     11  C   UNL     1       1.817   2.954  19.029  0.00  0.00    +0.000 C 
BRANCH  11  12
ATOM     12  O   UNL     1       1.029   1.977  18.332  0.00  0.00    +0.000 OA
ATOM     13  H   UNL     1       0.897   2.349  17.436  0.00  0.00    +0.000 HD
ENDBRANCH  11  12
BRANCH  11  14
ATOM     14  C   UNL     1       0.995   3.482  20.212  0.00  0.00    +0.000 C 
BRANCH  14  15
ATOM     15  O   UNL     1       1.858   3.688  21.333  0.00  0.00    +0.000 OA
ATOM     16  H   UNL     1       2.683   3.208  21.138  0.00  0.00    +0.000 HD
ENDBRANCH  14  15
ENDBRANCH  11  14
ENDBRANCH  10  11
ENDBRANCH   1  10
TORSDOF 5
ENDMDL
MODEL 8
REMARK VINA RESULT:      -5.8      1.881      4.900
REMARK  Name = 
REMARK  5 active torsions:
REMARK  status: ('A' for Active; 'I' for Inactive)
REMARK    1  A    between atoms: O_1  and  C_2
REMARK    2  A    between atoms: C_2  and  C_3
REMARK    3  A    between atoms: C_3  and  O_4
REMARK    4  A    between atoms: C_3  and  C_5
REMARK    5  A    between atoms: C_5  and  C_6
REMARK                            x       y       z     vdW  Elec       q    Type
REMARK                         _______ _______ _______ _____ _____    ______ ____
ROOT
ATOM      1  C   UNL     1       3.495   4.447  17.538  0.00  0.00    +0.000 A 
ATOM      2  C   UNL     1       3.789   5.822  17.694  0.00  0.00    +0.000 A 
ATOM      3  C   UNL     1       4.829   6.421  16.977  0.00  0.00    +0.000 A 
ATOM      4  C   UNL     1       5.565   5.626  16.128  0.00  0.00    +0.000 A 
ATOM      5  C   UNL     1       5.289   4.288  15.969  0.00  0.00    +0.000 A 
ATOM      6  C   UNL     1       4.262   3.671  16.653  0.00  0.00    +0.000 A 
ATOM      7  O   UNL     1       6.136   3.684  15.093  0.00  0.00    +0.000 OA
ATOM      8  C   UNL     1       7.005   4.785  14.756  0.00  0.00    +0.000 C 
ATOM      9  O   UNL     1       6.620   6.031  15.371  0.00  0.00    +0.000 OA
ENDROOT
BRANCH   1  10
ATOM     10  C   UNL     1       2.380   3.803  18.329  0.00  0.00    +0.000 C 
BRANCH  10  11
ATOM     11  C   UNL     1       2.775   2.498  19.038  0.00  0.00    +0.000 C 
BRANCH  11  12
ATOM     12  O   UNL     1       1.595   1.940  19.637  0.00  0.00    +0.000 OA
ATOM     13  H   UNL     1       1.352   2.565  20.349  0.00  0.00    +0.000 HD
ENDBRANCH  11  12
BRANCH  11  14
ATOM     14  C   UNL     1       3.824   2.702  20.139  0.00  0.00    +0.000 C 
BRANCH  14  15
ATOM     15  O   UNL     1       5.005   1.967  19.809  0.00  0.00    +0.000 OA
ATOM     16  H   UNL     1       5.226   1.434  20.594  0.00  0.00    +0.000 HD
ENDBRANCH  14  15
ENDBRANCH  11  14
ENDBRANCH  10  11
ENDBRANCH   1  10
TORSDOF 5
ENDMDL
MODEL 9
REMARK VINA RESULT:      -5.7      1.276      1.445
REMARK  Name = 
REMARK  5 active torsions:
REMARK  status: ('A' for Active; 'I' for Inactive)
REMARK    1  A    between atoms: O_1  and  C_2
REMARK    2  A    between atoms: C_2  and  C_3
REMARK    3  A    between atoms: C_3  and  O_4
REMARK    4  A    between atoms: C_3  and  C_5
REMARK    5  A    between atoms: C_5  and  C_6
REMARK                            x       y       z     vdW  Elec       q    Type
REMARK                         _______ _______ _______ _____ _____    ______ ____
ROOT
ATOM      1  C   UNL     1       4.301   5.287  16.989  0.00  0.00    +0.000 A 
ATOM      2  C   UNL     1       3.771   6.049  18.056  0.00  0.00    +0.000 A 
ATOM      3  C   UNL     1       2.906   5.472  18.991  0.00  0.00    +0.000 A 
ATOM      4  C   UNL     1       2.578   4.145  18.829  0.00  0.00    +0.000 A 
ATOM      5  C   UNL     1       3.087   3.395  17.795  0.00  0.00    +0.000 A 
ATOM      6  C   UNL     1       3.952   3.932  16.865  0.00  0.00    +0.000 A 
ATOM      7  O   UNL     1       2.634   2.113  17.812  0.00  0.00    +0.000 OA
ATOM      8  C   UNL     1       1.745   2.157  18.947  0.00  0.00    +0.000 C 
ATOM      9  O   UNL     1       1.741   3.428  19.626  0.00  0.00    +0.000 OA
ENDROOT
BRANCH   1  10
ATOM     10  C   UNL     1       5.222   5.922  15.973  0.00  0.00    +0.000 C 
BRANCH  10  11
ATOM     11  C   UNL     1       6.621   5.289  15.898  0.00  0.00    +0.000 C 
BRANCH  11  12
ATOM     12  O   UNL     1       7.584   6.289  16.263  0.00  0.00    +0.000 OA
ATOM     13  H   UNL     1       8.351   5.789  16.607  0.00  0.00    +0.000 HD
ENDBRANCH  11  12
BRANCH  11  14
ATOM     14  C   UNL     1       6.973   4.767  14.499  0.00  0.00    +0.000 C 
BRANCH  14  15
ATOM     15  O   UNL     1       6.339   3.502  14.291  0.00  0.00    +0.000 OA
ATOM     16  H   UNL     1       6.500   2.979  15.097  0.00  0.00    +0.000 HD
ENDBRANCH  14  15
ENDBRANCH  11  14
ENDBRANCH  10  11
ENDBRANCH   1  10
TORSDOF 5
ENDMDL
