MODEL 1
REMARK VINA RESULT:      -6.8      0.000      0.000
REMARK  Name = 
REMARK  12 active torsions:
REMARK  status: ('A' for Active; 'I' for Inactive)
REMARK    1  A    between atoms: C_1  and  C_2
REMARK    2  A    between atoms: C_2  and  N_3
REMARK    3  A    between atoms: N_3  and  C_4
REMARK    4  A    between atoms: N_3  and  S_6
REMARK    5  A    between atoms: C_4  and  C_5
REMARK    6  A    between atoms: S_6  and  C_9
REMARK    7  A    between atoms: C_12  and  O_13
REMARK    8  A    between atoms: O_13  and  C_14
REMARK    9  A    between atoms: C_15  and  N_16
REMARK   10  A    between atoms: C_17  and  C_19
REMARK   11  A    between atoms: C_19  and  S_20
REMARK   12  A    between atoms: S_20  and  C_21
REMARK                            x       y       z     vdW  Elec       q    Type
REMARK                         _______ _______ _______ _____ _____    ______ ____
ROOT
ATOM      1  C   UNL     1       3.923   5.055  17.609  0.00  0.00    +0.000 A 
ATOM      2  C   UNL     1       4.216   3.960  16.804  0.00  0.00    +0.000 A 
ATOM      3  C   UNL     1       5.368   3.984  16.021  0.00  0.00    +0.000 A 
ATOM      4  C   UNL     1       6.233   5.094  16.033  0.00  0.00    +0.000 A 
ATOM      5  C   UNL     1       5.894   6.235  16.793  0.00  0.00    +0.000 A 
ATOM      6  C   UNL     1       4.743   6.189  17.600  0.00  0.00    +0.000 A 
ENDROOT
BRANCH   5   7
ATOM      7  N   UNL     1       6.642   7.436  16.880  0.00  0.00    +0.000 N 
ATOM      8  C   UNL     1       7.641   7.787  17.779  0.00  0.00    +0.000 C 
ATOM      9  O   UNL     1       8.205   7.056  18.587  0.00  0.00    +0.000 OA
ATOM     10  H   UNL     1       6.494   8.108  16.136  0.00  0.00    +0.000 HD
BRANCH   8  11
ATOM     11  C   UNL     1       8.130   9.220  17.598  0.00  0.00    +0.000 C 
BRANCH  11  12
ATOM     12  S   UNL     1       9.081   9.822  19.032  0.00  0.00    +0.000 S 
ATOM     13  C   UNL     1       9.902  11.238  18.251  0.00  0.00    +0.000 C 
ENDBRANCH  11  12
ENDBRANCH   8  11
ENDBRANCH   5   7
BRANCH   1  14
ATOM     14  S   UNL     1       2.470   4.998  18.629  0.00  0.00    +0.000 S 
ATOM     15  O   UNL     1       1.451   4.304  17.877  0.00  0.00    +0.000 OA
ATOM     16  O   UNL     1       2.247   6.327  19.159  0.00  0.00    +0.000 OA
BRANCH  14  17
ATOM     17  N   UNL     1       2.961   3.994  19.940  0.00  0.00    +0.000 NA
BRANCH  17  19
ATOM     18  C   UNL     1       1.366   2.921  21.564  0.00  0.00    +0.000 C 
ATOM     19  C   UNL     1       2.153   4.166  21.184  0.00  0.00    +0.000 C 
ENDBRANCH  17  19
BRANCH  17  20
ATOM     20  C   UNL     1       3.242   2.580  19.544  0.00  0.00    +0.000 C 
ATOM     21  C   UNL     1       4.577   2.062  20.052  0.00  0.00    +0.000 C 
ENDBRANCH  17  20
ENDBRANCH  14  17
ENDBRANCH   1  14
BRANCH   4  22
ATOM     22  O   UNL     1       7.428   5.086  15.371  0.00  0.00    +0.000 OA
ATOM     23  C   UNL     1       7.406   5.011  13.954  0.00  0.00    +0.000 C 
ENDBRANCH   4  22
TORSDOF 8
ENDMDL
MODEL 2
REMARK VINA RESULT:      -6.7      0.585      1.317
REMARK  Name = 
REMARK  12 active torsions:
REMARK  status: ('A' for Active; 'I' for Inactive)
REMARK    1  A    between atoms: C_1  and  C_2
REMARK    2  A    between atoms: C_2  and  N_3
REMARK    3  A    between atoms: N_3  and  C_4
REMARK    4  A    between atoms: N_3  and  S_6
REMARK    5  A    between atoms: C_4  and  C_5
REMARK    6  A    between atoms: S_6  and  C_9
REMARK    7  A    between atoms: C_12  and  O_13
REMARK    8  A    between atoms: O_13  and  C_14
REMARK    9  A    between atoms: C_15  and  N_16
REMARK   10  A    between atoms: C_17  and  C_19
REMARK   11  A    between atoms: C_19  and  S_20
REMARK   12  A    between atoms: S_20  and  C_21
REMARK                            x       y       z     vdW  Elec       q    Type
REMARK                         _______ _______ _______ _____ _____    ______ ____
ROOT
ATOM      1  C   UNL     1       4.122   4.953  17.400  0.00  0.00    +0.000 A 
ATOM      2  C   UNL     1       4.445   3.943  16.501  0.00  0.00    +0.000 A 
ATOM      3  C   UNL     1       5.573   4.087  15.697  0.00  0.00    +0.000 A 
ATOM      4  C   UNL     1       6.384   5.234  15.780  0.00  0.00    +0.000 A 
ATOM      5  C   UNL     1       6.011   6.293  16.638  0.00  0.00    +0.000 A 
ATOM      6  C   UNL     1       4.886   6.124  17.465  0.00  0.00    +0.000 A 
ENDROOT
BRANCH   5   7
ATOM      7  N   UNL     1       6.703   7.518  16.806  0.00  0.00    +0.000 N 
ATOM      8  C   UNL     1       7.645   7.873  17.764  0.00  0.00    +0.000 C 
ATOM      9  O   UNL     1       8.202   7.134  18.569  0.00  0.00    +0.000 OA
ATOM     10  H   UNL     1       6.560   8.213  16.082  0.00  0.00    +0.000 HD
BRANCH   8  11
ATOM     11  C   UNL     1       8.080   9.331  17.661  0.00  0.00    +0.000 C 
BRANCH  11  12
ATOM     12  S   UNL     1       9.145   9.843  19.049  0.00  0.00    +0.000 S 
ATOM     13  C   UNL     1       9.885  11.322  18.305  0.00  0.00    +0.000 C 
ENDBRANCH  11  12
ENDBRANCH   8  11
ENDBRANCH   5   7
BRANCH   1  14
ATOM     14  S   UNL     1       2.701   4.742  18.445  0.00  0.00    +0.000 S 
ATOM     15  O   UNL     1       1.551   4.628  17.579  0.00  0.00    +0.000 OA
ATOM     16  O   UNL     1       2.765   5.743  19.489  0.00  0.00    +0.000 OA
BRANCH  14  17
ATOM     17  N   UNL     1       2.988   3.210  19.177  0.00  0.00    +0.000 NA
BRANCH  17  19
ATOM     18  C   UNL     1       4.632   1.774  20.430  0.00  0.00    +0.000 C 
ATOM     19  C   UNL     1       4.151   3.182  20.114  0.00  0.00    +0.000 C 
ENDBRANCH  17  19
BRANCH  17  20
ATOM     20  C   UNL     1       1.748   2.536  19.670  0.00  0.00    +0.000 C 
ATOM     21  C   UNL     1       1.204   3.134  20.956  0.00  0.00    +0.000 C 
ENDBRANCH  17  20
ENDBRANCH  14  17
ENDBRANCH   1  14
BRANCH   4  22
ATOM     22  O   UNL     1       7.560   5.340  15.093  0.00  0.00    +0.000 OA
ATOM     23  C   UNL     1       7.547   5.065  13.700  0.00  0.00    +0.000 C 
ENDBRANCH   4  22
TORSDOF 8
ENDMDL
MODEL 3
REMARK VINA RESULT:      -6.4      1.471      2.137
REMARK  Name = 
REMARK  12 active torsions:
REMARK  status: ('A' for Active; 'I' for Inactive)
REMARK    1  A    between atoms: C_1  and  C_2
REMARK    2  A    between atoms: C_2  and  N_3
REMARK    3  A    between atoms: N_3  and  C_4
REMARK    4  A    between atoms: N_3  and  S_6
REMARK    5  A    between atoms: C_4  and  C_5
REMARK    6  A    between atoms: S_6  and  C_9
REMARK    7  A    between atoms: C_12  and  O_13
REMARK    8  A    between atoms: O_13  and  C_14
REMARK    9  A    between atoms: C_15  and  N_16
REMARK   10  A    between atoms: C_17  and  C_19
REMARK   11  A    between atoms: C_19  and  S_20
REMARK   12  A    between atoms: S_20  and  C_21
REMARK                            x       y       z     vdW  Elec       q    Type
REMARK                         _______ _______ _______ _____ _____    ______ ____
ROOT
ATOM      1  C   UNL     1       4.707   4.307  17.034  0.00  0.00    +0.000 A 
ATOM      2  C   UNL     1       5.095   3.485  15.982  0.00  0.00    +0.000 A 
ATOM      3  C   UNL     1       6.126   3.901  15.142  0.00  0.00    +0.000 A 
ATOM      4  C   UNL     1       6.773   5.134  15.341  0.00  0.00    +0.000 A 
ATOM      5  C   UNL     1       6.326   6.001  16.362  0.00  0.00    +0.000 A 
ATOM      6  C   UNL     1       5.304   5.559  17.221  0.00  0.00    +0.000 A 
ENDROOT
BRANCH   5   7
ATOM      7  N   UNL     1       6.853   7.282  16.663  0.00  0.00    +0.000 N 
ATOM      8  C   UNL     1       7.630   7.682  17.743  0.00  0.00    +0.000 C 
ATOM      9  O   UNL     1       8.167   6.964  18.580  0.00  0.00    +0.000 OA
ATOM     10  H   UNL     1       6.720   7.996  15.956  0.00  0.00    +0.000 HD
BRANCH   8  11
ATOM     11  C   UNL     1       7.910   9.182  17.754  0.00  0.00    +0.000 C 
BRANCH  11  12
ATOM     12  S   UNL     1       9.076   9.668  19.068  0.00  0.00    +0.000 S 
ATOM     13  C   UNL     1       9.745  11.173  18.309  0.00  0.00    +0.000 C 
ENDBRANCH  11  12
ENDBRANCH   8  11
ENDBRANCH   5   7
BRANCH   1  14
ATOM     14  S   UNL     1       3.416   3.750  18.119  0.00  0.00    +0.000 S 
ATOM     15  O   UNL     1       3.998   2.766  19.001  0.00  0.00    +0.000 OA
ATOM     16  O   UNL     1       2.254   3.446  17.309  0.00  0.00    +0.000 OA
BRANCH  14  17
ATOM     17  N   UNL     1       3.051   5.161  19.037  0.00  0.00    +0.000 NA
BRANCH  17  19
ATOM     18  C   UNL     1       2.321   7.568  18.955  0.00  0.00    +0.000 C 
ATOM     19  C   UNL     1       2.280   6.200  18.291  0.00  0.00    +0.000 C 
ENDBRANCH  17  19
BRANCH  17  20
ATOM     20  C   UNL     1       2.568   4.871  20.422  0.00  0.00    +0.000 C 
ATOM     21  C   UNL     1       1.163   4.295  20.465  0.00  0.00    +0.000 C 
ENDBRANCH  17  20
ENDBRANCH  14  17
ENDBRANCH   1  14
BRANCH   4  22
ATOM     22  O   UNL     1       7.866   5.503  14.608  0.00  0.00    +0.000 OA
ATOM     23  C   UNL     1       7.846   5.259  13.210  0.00  0.00    +0.000 C 
ENDBRANCH   4  22
TORSDOF 8
ENDMDL
MODEL 4
REMARK VINA RESULT:      -6.3      2.892      6.409
REMARK  Name = 
REMARK  12 active torsions:
REMARK  status: ('A' for Active; 'I' for Inactive)
REMARK    1  A    between atoms: C_1  and  C_2
REMARK    2  A    between atoms: C_2  and  N_3
REMARK    3  A    between atoms: N_3  and  C_4
REMARK    4  A    between atoms: N_3  and  S_6
REMARK    5  A    between atoms: C_4  and  C_5
REMARK    6  A    between atoms: S_6  and  C_9
REMARK    7  A    between atoms: C_12  and  O_13
REMARK    8  A    between atoms: O_13  and  C_14
REMARK    9  A    between atoms: C_15  and  N_16
REMARK   10  A    between atoms: C_17  and  C_19
REMARK   11  A    between atoms: C_19  and  S_20
REMARK   12  A    between atoms: S_20  and  C_21
REMARK                            x       y       z     vdW  Elec       q    Type
REMARK                         _______ _______ _______ _____ _____    ______ ____
ROOT
ATOM      1  C   UNL     1       5.371   4.752  18.995  0.00  0.00    +0.000 A 
ATOM      2  C   UNL     1       4.928   3.525  18.515  0.00  0.00    +0.000 A 
ATOM      3  C   UNL     1       3.574   3.211  18.604  0.00  0.00    +0.000 A 
ATOM      4  C   UNL     1       2.654   4.112  19.172  0.00  0.00    +0.000 A 
ATOM      5  C   UNL     1       3.117   5.324  19.730  0.00  0.00    +0.000 A 
ATOM      6  C   UNL     1       4.482   5.643  19.608  0.00  0.00    +0.000 A 
ENDROOT
BRANCH   5   7
ATOM      7  N   UNL     1       2.323   6.313  20.362  0.00  0.00    +0.000 N 
ATOM      8  C   UNL     1       1.996   7.591  19.927  0.00  0.00    +0.000 C 
ATOM      9  O   UNL     1       2.193   8.071  18.815  0.00  0.00    +0.000 OA
ATOM     10  H   UNL     1       1.853   6.029  21.214  0.00  0.00    +0.000 HD
BRANCH   8  11
ATOM     11  C   UNL     1       1.195   8.385  20.953  0.00  0.00    +0.000 C 
BRANCH  11  12
ATOM     12  S   UNL     1       0.558   9.955  20.283  0.00  0.00    +0.000 S 
ATOM     13  C   UNL     1      -0.351  10.536  21.740  0.00  0.00    +0.000 C 
ENDBRANCH  11  12
ENDBRANCH   8  11
ENDBRANCH   5   7
BRANCH   1  14
ATOM     14  S   UNL     1       7.093   5.156  18.843  0.00  0.00    +0.000 S 
ATOM     15  O   UNL     1       7.695   4.141  18.010  0.00  0.00    +0.000 OA
ATOM     16  O   UNL     1       7.601   5.444  20.168  0.00  0.00    +0.000 OA
BRANCH  14  17
ATOM     17  N   UNL     1       7.064   6.637  17.965  0.00  0.00    +0.000 NA
BRANCH  17  19
ATOM     18  C   UNL     1       7.950   8.981  17.730  0.00  0.00    +0.000 C 
ATOM     19  C   UNL     1       8.131   7.607  18.356  0.00  0.00    +0.000 C 
ENDBRANCH  17  19
BRANCH  17  20
ATOM     20  C   UNL     1       6.859   6.462  16.494  0.00  0.00    +0.000 C 
ATOM     21  C   UNL     1       5.409   6.599  16.064  0.00  0.00    +0.000 C 
ENDBRANCH  17  20
ENDBRANCH  14  17
ENDBRANCH   1  14
BRANCH   4  22
ATOM     22  O   UNL     1       1.308   3.877  19.157  0.00  0.00    +0.000 OA
ATOM     23  C   UNL     1       0.790   2.905  20.053  0.00  0.00    +0.000 C 
ENDBRANCH   4  22
TORSDOF 8
ENDMDL
MODEL 5
REMARK VINA RESULT:      -6.3      2.735      6.014
REMARK  Name = 
REMARK  12 active torsions:
REMARK  status: ('A' for Active; 'I' for Inactive)
REMARK    1  A    between atoms: C_1  and  C_2
REMARK    2  A    between atoms: C_2  and  N_3
REMARK    3  A    between atoms: N_3  and  C_4
REMARK    4  A    between atoms: N_3  and  S_6
REMARK    5  A    between atoms: C_4  and  C_5
REMARK    6  A    between atoms: S_6  and  C_9
REMARK    7  A    between atoms: C_12  and  O_13
REMARK    8  A    between atoms: O_13  and  C_14
REMARK    9  A    between atoms: C_15  and  N_16
REMARK   10  A    between atoms: C_17  and  C_19
REMARK   11  A    between atoms: C_19  and  S_20
REMARK   12  A    between atoms: S_20  and  C_21
REMARK                            x       y       z     vdW  Elec       q    Type
REMARK                         _______ _______ _______ _____ _____    ______ ____
ROOT
ATOM      1  C   UNL     1       4.661   5.022  16.895  0.00  0.00    +0.000 A 
ATOM      2  C   UNL     1       4.256   3.699  17.028  0.00  0.00    +0.000 A 
ATOM      3  C   UNL     1       3.131   3.409  17.796  0.00  0.00    +0.000 A 
ATOM      4  C   UNL     1       2.405   4.430  18.437  0.00  0.00    +0.000 A 
ATOM      5  C   UNL     1       2.863   5.764  18.365  0.00  0.00    +0.000 A 
ATOM      6  C   UNL     1       3.983   6.049  17.564  0.00  0.00    +0.000 A 
ENDROOT
BRANCH   5   7
ATOM      7  N   UNL     1       2.262   6.890  18.980  0.00  0.00    +0.000 N 
ATOM      8  C   UNL     1       2.084   8.175  18.482  0.00  0.00    +0.000 C 
ATOM      9  O   UNL     1       2.263   8.558  17.331  0.00  0.00    +0.000 OA
ATOM     10  H   UNL     1       1.821   6.726  19.878  0.00  0.00    +0.000 HD
BRANCH   8  11
ATOM     11  C   UNL     1       1.479   9.133  19.503  0.00  0.00    +0.000 C 
BRANCH  11  12
ATOM     12  S   UNL     1       1.179   8.340  21.117  0.00  0.00    +0.000 S 
ATOM     13  C   UNL     1       0.541   9.775  22.022  0.00  0.00    +0.000 C 
ENDBRANCH  11  12
ENDBRANCH   8  11
ENDBRANCH   5   7
BRANCH   1  14
ATOM     14  S   UNL     1       6.076   5.383  15.884  0.00  0.00    +0.000 S 
ATOM     15  O   UNL     1       5.688   6.431  14.969  0.00  0.00    +0.000 OA
ATOM     16  O   UNL     1       6.616   4.126  15.410  0.00  0.00    +0.000 OA
BRANCH  14  17
ATOM     17  N   UNL     1       7.200   6.034  17.016  0.00  0.00    +0.000 NA
BRANCH  17  19
ATOM     18  C   UNL     1       8.101   8.302  17.632  0.00  0.00    +0.000 C 
ATOM     19  C   UNL     1       6.874   7.415  17.483  0.00  0.00    +0.000 C 
ENDBRANCH  17  19
BRANCH  17  20
ATOM     20  C   UNL     1       7.606   5.071  18.085  0.00  0.00    +0.000 C 
ATOM     21  C   UNL     1       7.251   5.537  19.487  0.00  0.00    +0.000 C 
ENDBRANCH  17  20
ENDBRANCH  14  17
ENDBRANCH   1  14
BRANCH   4  22
ATOM     22  O   UNL     1       1.231   4.181  19.090  0.00  0.00    +0.000 OA
ATOM     23  C   UNL     1       1.298   3.657  20.408  0.00  0.00    +0.000 C 
ENDBRANCH   4  22
TORSDOF 8
ENDMDL
MODEL 6
REMARK VINA RESULT:      -6.2      3.086      6.385
REMARK  Name = 
REMARK  12 active torsions:
REMARK  status: ('A' for Active; 'I' for Inactive)
REMARK    1  A    between atoms: C_1  and  C_2
REMARK    2  A    between atoms: C_2  and  N_3
REMARK    3  A    between atoms: N_3  and  C_4
REMARK    4  A    between atoms: N_3  and  S_6
REMARK    5  A    between atoms: C_4  and  C_5
REMARK    6  A    between atoms: S_6  and  C_9
REMARK    7  A    between atoms: C_12  and  O_13
REMARK    8  A    between atoms: O_13  and  C_14
REMARK    9  A    between atoms: C_15  and  N_16
REMARK   10  A    between atoms: C_17  and  C_19
REMARK   11  A    between atoms: C_19  and  S_20
REMARK   12  A    between atoms: S_20  and  C_21
REMARK                            x       y       z     vdW  Elec       q    Type
REMARK                         _______ _______ _______ _____ _____    ______ ____
ROOT
ATOM      1  C   UNL     1       4.188   5.734  17.486  0.00  0.00    +0.000 A 
ATOM      2  C   UNL     1       3.728   4.458  17.180  0.00  0.00    +0.000 A 
ATOM      3  C   UNL     1       2.675   3.922  17.919  0.00  0.00    +0.000 A 
ATOM      4  C   UNL     1       2.077   4.649  18.965  0.00  0.00    +0.000 A 
ATOM      5  C   UNL     1       2.596   5.912  19.324  0.00  0.00    +0.000 A 
ATOM      6  C   UNL     1       3.639   6.455  18.553  0.00  0.00    +0.000 A 
ENDROOT
BRANCH   5   7
ATOM      7  N   UNL     1       2.124   6.745  20.369  0.00  0.00    +0.000 N 
ATOM      8  C   UNL     1       1.680   8.060  20.314  0.00  0.00    +0.000 C 
ATOM      9  O   UNL     1       1.443   8.724  19.310  0.00  0.00    +0.000 OA
ATOM     10  H   UNL     1       2.013   6.304  21.275  0.00  0.00    +0.000 HD
BRANCH   8  11
ATOM     11  C   UNL     1       1.350   8.637  21.687  0.00  0.00    +0.000 C 
BRANCH  11  12
ATOM     12  S   UNL     1       0.365  10.167  21.586  0.00  0.00    +0.000 S 
ATOM     13  C   UNL     1      -0.597   9.985  23.113  0.00  0.00    +0.000 C 
ENDBRANCH  11  12
ENDBRANCH   8  11
ENDBRANCH   5   7
BRANCH   1  14
ATOM     14  S   UNL     1       5.506   6.420  16.514  0.00  0.00    +0.000 S 
ATOM     15  O   UNL     1       6.231   7.333  17.367  0.00  0.00    +0.000 OA
ATOM     16  O   UNL     1       4.949   6.848  15.248  0.00  0.00    +0.000 OA
BRANCH  14  17
ATOM     17  N   UNL     1       6.506   5.052  16.204  0.00  0.00    +0.000 NA
BRANCH  17  19
ATOM     18  C   UNL     1       6.126   3.823  14.040  0.00  0.00    +0.000 C 
ATOM     19  C   UNL     1       6.913   4.897  14.775  0.00  0.00    +0.000 C 
ENDBRANCH  17  19
BRANCH  17  20
ATOM     20  C   UNL     1       7.596   4.861  17.209  0.00  0.00    +0.000 C 
ATOM     21  C   UNL     1       7.086   4.655  18.625  0.00  0.00    +0.000 C 
ENDBRANCH  17  20
ENDBRANCH  14  17
ENDBRANCH   1  14
BRANCH   4  22
ATOM     22  O   UNL     1       0.966   4.194  19.618  0.00  0.00    +0.000 OA
ATOM     23  C   UNL     1       1.100   3.052  20.449  0.00  0.00    +0.000 C 
ENDBRANCH   4  22
TORSDOF 8
ENDMDL
MODEL 7
REMARK VINA RESULT:      -6.2      2.750      6.240
REMARK  Name = 
REMARK  12 active torsions:
REMARK  status: ('A' for Active; 'I' for Inactive)
REMARK    1  A    between atoms: C_1  and  C_2
REMARK    2  A    between atoms: C_2  and  N_3
REMARK    3  A    between atoms: N_3  and  C_4
REMARK    4  A    between atoms: N_3  and  S_6
REMARK    5  A    between atoms: C_4  and  C_5
REMARK    6  A    between atoms: S_6  and  C_9
REMARK    7  A    between atoms: C_12  and  O_13
REMARK    8  A    between atoms: O_13  and  C_14
REMARK    9  A    between atoms: C_15  and  N_16
REMARK   10  A    between atoms: C_17  and  C_19
REMARK   11  A    between atoms: C_19  and  S_20
REMARK   12  A    between atoms: S_20  and  C_21
REMARK                            x       y       z     vdW  Elec       q    Type
REMARK                         _______ _______ _______ _____ _____    ______ ____
ROOT
ATOM      1  C   UNL     1       4.903   5.097  17.381  0.00  0.00    +0.000 A 
ATOM      2  C   UNL     1       4.351   3.900  16.941  0.00  0.00    +0.000 A 
ATOM      3  C   UNL     1       3.144   3.469  17.488  0.00  0.00    +0.000 A 
ATOM      4  C   UNL     1       2.483   4.223  18.474  0.00  0.00    +0.000 A 
ATOM      5  C   UNL     1       3.083   5.399  18.975  0.00  0.00    +0.000 A 
ATOM      6  C   UNL     1       4.287   5.839  18.396  0.00  0.00    +0.000 A 
ENDROOT
BRANCH   5   7
ATOM      7  N   UNL     1       2.559   6.243  19.985  0.00  0.00    +0.000 N 
ATOM      8  C   UNL     1       2.060   7.535  19.882  0.00  0.00    +0.000 C 
ATOM      9  O   UNL     1       1.813   8.157  18.854  0.00  0.00    +0.000 OA
ATOM     10  H   UNL     1       2.450   5.825  20.903  0.00  0.00    +0.000 HD
BRANCH   8  11
ATOM     11  C   UNL     1       1.681   8.139  21.230  0.00  0.00    +0.000 C 
BRANCH  11  12
ATOM     12  S   UNL     1      -0.068   8.645  21.305  0.00  0.00    +0.000 S 
ATOM     13  C   UNL     1       0.152  10.332  21.932  0.00  0.00    +0.000 C 
ENDBRANCH  11  12
ENDBRANCH   8  11
ENDBRANCH   5   7
BRANCH   1  14
ATOM     14  S   UNL     1       6.423   5.654  16.651  0.00  0.00    +0.000 S 
ATOM     15  O   UNL     1       6.076   6.398  15.462  0.00  0.00    +0.000 OA
ATOM     16  O   UNL     1       7.330   4.526  16.598  0.00  0.00    +0.000 OA
BRANCH  14  17
ATOM     17  N   UNL     1       7.033   6.755  17.827  0.00  0.00    +0.000 NA
BRANCH  17  19
ATOM     18  C   UNL     1       7.579   5.496  19.936  0.00  0.00    +0.000 C 
ATOM     19  C   UNL     1       8.112   6.195  18.695  0.00  0.00    +0.000 C 
ENDBRANCH  17  19
BRANCH  17  20
ATOM     20  C   UNL     1       7.284   8.129  17.293  0.00  0.00    +0.000 C 
ATOM     21  C   UNL     1       8.288   8.923  18.112  0.00  0.00    +0.000 C 
ENDBRANCH  17  20
ENDBRANCH  14  17
ENDBRANCH   1  14
BRANCH   4  22
ATOM     22  O   UNL     1       1.241   3.883  18.933  0.00  0.00    +0.000 OA
ATOM     23  C   UNL     1       0.838   2.526  18.826  0.00  0.00    +0.000 C 
ENDBRANCH   4  22
TORSDOF 8
ENDMDL
MODEL 8
REMARK VINA RESULT:      -6.2      4.725      7.075
REMARK  Name = 
REMARK  12 active torsions:
REMARK  status: ('A' for Active; 'I' for Inactive)
REMARK    1  A    between atoms: C_1  and  C_2
REMARK    2  A    between atoms: C_2  and  N_3
REMARK    3  A    between atoms: N_3  and  C_4
REMARK    4  A    between atoms: N_3  and  S_6
REMARK    5  A    between atoms: C_4  and  C_5
REMARK    6  A    between atoms: S_6  and  C_9
REMARK    7  A    between atoms: C_12  and  O_13
REMARK    8  A    between atoms: O_13  and  C_14
REMARK    9  A    between atoms: C_15  and  N_16
REMARK   10  A    between atoms: C_17  and  C_19
REMARK   11  A    between atoms: C_19  and  S_20
REMARK   12  A    between atoms: S_20  and  C_21
REMARK                            x       y       z     vdW  Elec       q    Type
REMARK                         _______ _______ _______ _____ _____    ______ ____
ROOT
ATOM      1  C   UNL     1       2.509   7.042  19.240  0.00  0.00    +0.000 A 
ATOM      2  C   UNL     1       2.451   7.529  17.939  0.00  0.00    +0.000 A 
ATOM      3  C   UNL     1       1.858   8.767  17.705  0.00  0.00    +0.000 A 
ATOM      4  C   UNL     1       1.317   9.526  18.760  0.00  0.00    +0.000 A 
ATOM      5  C   UNL     1       1.307   8.995  20.068  0.00  0.00    +0.000 A 
ATOM      6  C   UNL     1       1.934   7.757  20.297  0.00  0.00    +0.000 A 
ENDROOT
BRANCH   5   7
ATOM      7  N   UNL     1       0.772   9.620  21.222  0.00  0.00    +0.000 N 
ATOM      8  C   UNL     1      -0.284   9.220  22.031  0.00  0.00    +0.000 C 
ATOM      9  O   UNL     1      -0.871   8.143  22.009  0.00  0.00    +0.000 OA
ATOM     10  H   UNL     1       1.277  10.430  21.564  0.00  0.00    +0.000 HD
BRANCH   8  11
ATOM     11  C   UNL     1      -0.614  10.230  23.125  0.00  0.00    +0.000 C 
BRANCH  11  12
ATOM     12  S   UNL     1      -0.998  11.883  22.461  0.00  0.00    +0.000 S 
ATOM     13  C   UNL     1      -2.634  12.114  23.208  0.00  0.00    +0.000 C 
ENDBRANCH  11  12
ENDBRANCH   8  11
ENDBRANCH   5   7
BRANCH   1  14
ATOM     14  S   UNL     1       3.300   5.478  19.530  0.00  0.00    +0.000 S 
ATOM     15  O   UNL     1       2.624   4.862  20.648  0.00  0.00    +0.000 OA
ATOM     16  O   UNL     1       4.731   5.699  19.540  0.00  0.00    +0.000 OA
BRANCH  14  17
ATOM     17  N   UNL     1       2.923   4.588  18.104  0.00  0.00    +0.000 NA
BRANCH  17  19
ATOM     18  C   UNL     1       4.739   4.319  16.384  0.00  0.00    +0.000 C 
ATOM     19  C   UNL     1       4.038   3.733  17.599  0.00  0.00    +0.000 C 
ENDBRANCH  17  19
BRANCH  17  20
ATOM     20  C   UNL     1       1.577   3.937  18.138  0.00  0.00    +0.000 C 
ATOM     21  C   UNL     1       1.637   2.428  18.300  0.00  0.00    +0.000 C 
ENDBRANCH  17  20
ENDBRANCH  14  17
ENDBRANCH   1  14
BRANCH   4  22
ATOM     22  O   UNL     1       0.844  10.794  18.570  0.00  0.00    +0.000 OA
ATOM     23  C   UNL     1       1.749  11.875  18.730  0.00  0.00    +0.000 C 
ENDBRANCH   4  22
TORSDOF 8
ENDMDL
MODEL 9
REMARK VINA RESULT:      -6.1      2.757      6.356
REMARK  Name = 
REMARK  12 active torsions:
REMARK  status: ('A' for Active; 'I' for Inactive)
REMARK    1  A    between atoms: C_1  and  C_2
REMARK    2  A    between atoms: C_2  and  N_3
REMARK    3  A    between atoms: N_3  and  C_4
REMARK    4  A    between atoms: N_3  and  S_6
REMARK    5  A    between atoms: C_4  and  C_5
REMARK    6  A    between atoms: S_6  and  C_9
REMARK    7  A    between atoms: C_12  and  O_13
REMARK    8  A    between atoms: O_13  and  C_14
REMARK    9  A    between atoms: C_15  and  N_16
REMARK   10  A    between atoms: C_17  and  C_19
REMARK   11  A    between atoms: C_19  and  S_20
REMARK   12  A    between atoms: S_20  and  C_21
REMARK                            x       y       z     vdW  Elec       q    Type
REMARK                         _______ _______ _______ _____ _____    ______ ____
ROOT
ATOM      1  C   UNL     1       5.390   4.783  18.463  0.00  0.00    +0.000 A 
ATOM      2  C   UNL     1       4.920   3.629  17.847  0.00  0.00    +0.000 A 
ATOM      3  C   UNL     1       3.574   3.293  17.972  0.00  0.00    +0.000 A 
ATOM      4  C   UNL     1       2.689   4.100  18.711  0.00  0.00    +0.000 A 
ATOM      5  C   UNL     1       3.183   5.230  19.400  0.00  0.00    +0.000 A 
ATOM      6  C   UNL     1       4.538   5.575  19.243  0.00  0.00    +0.000 A 
ENDROOT
BRANCH   5   7
ATOM      7  N   UNL     1       2.427   6.116  20.206  0.00  0.00    +0.000 N 
ATOM      8  C   UNL     1       2.046   7.428  19.954  0.00  0.00    +0.000 C 
ATOM      9  O   UNL     1       2.144   8.041  18.896  0.00  0.00    +0.000 OA
ATOM     10  H   UNL     1       2.033   5.721  21.053  0.00  0.00    +0.000 HD
BRANCH   8  11
ATOM     11  C   UNL     1       1.317   8.074  21.128  0.00  0.00    +0.000 C 
BRANCH  11  12
ATOM     12  S   UNL     1       0.551   9.667  20.686  0.00  0.00    +0.000 S 
ATOM     13  C   UNL     1      -0.066  10.148  22.322  0.00  0.00    +0.000 C 
ENDBRANCH  11  12
ENDBRANCH   8  11
ENDBRANCH   5   7
BRANCH   1  14
ATOM     14  S   UNL     1       7.100   5.219  18.266  0.00  0.00    +0.000 S 
ATOM     15  O   UNL     1       7.796   4.026  17.844  0.00  0.00    +0.000 OA
ATOM     16  O   UNL     1       7.509   5.957  19.443  0.00  0.00    +0.000 OA
BRANCH  14  17
ATOM     17  N   UNL     1       7.064   6.327  16.947  0.00  0.00    +0.000 NA
BRANCH  17  19
ATOM     18  C   UNL     1       7.050   4.976  14.825  0.00  0.00    +0.000 C 
ATOM     19  C   UNL     1       6.263   5.864  15.775  0.00  0.00    +0.000 C 
ENDBRANCH  17  19
BRANCH  17  20
ATOM     20  C   UNL     1       6.842   7.747  17.359  0.00  0.00    +0.000 C 
ATOM     21  C   UNL     1       8.124   8.485  17.705  0.00  0.00    +0.000 C 
ENDBRANCH  17  20
ENDBRANCH  14  17
ENDBRANCH   1  14
BRANCH   4  22
ATOM     22  O   UNL     1       1.345   3.858  18.743  0.00  0.00    +0.000 OA
ATOM     23  C   UNL     1       0.910   2.551  19.088  0.00  0.00    +0.000 C 
ENDBRANCH   4  22
TORSDOF 8
ENDMDL
