MODEL 1
REMARK VINA RESULT:      -8.7      0.000      0.000
REMARK  Name = 
REMARK  7 active torsions:
REMARK  status: ('A' for Active; 'I' for Inactive)
REMARK    1  A    between atoms: C_1  and  C_2
REMARK    2  A    between atoms: C_5  and  C_6
REMARK    3  A    between atoms: C_6  and  C_7
REMARK    4  A    between atoms: C_6  and  O_8
REMARK    5  A    between atoms: C_6  and  C_9
REMARK    6  A    between atoms: C_16  and  C_17
REMARK    7  A    between atoms: C_28  and  C_29
REMARK                            x       y       z     vdW  Elec       q    Type
REMARK                         _______ _______ _______ _____ _____    ______ ____
ROOT
ATOM      1  C   UNL     1       4.019   4.209  17.420  0.00  0.00    +0.000 C 
ATOM      2  C   UNL     1       4.046   2.927  18.281  0.00  0.00    +0.000 C 
ATOM      3  C   UNL     1       2.716   2.692  19.024  0.00  0.00    +0.000 C 
ATOM      4  C   UNL     1       2.138   3.879  19.807  0.00  0.00    +0.000 C 
ATOM      5  C   UNL     1       2.303   5.228  19.144  0.00  0.00    +0.000 C 
ATOM      6  C   UNL     1       1.525   6.292  19.513  0.00  0.00    +0.000 C 
ATOM      7  C   UNL     1       1.806   7.612  19.045  0.00  0.00    +0.000 A 
ATOM      8  C   UNL     1       1.455   8.914  19.337  0.00  0.00    +0.000 A 
ATOM      9  N   UNL     1       1.988   9.797  18.409  0.00  0.00    +0.000 NA
ATOM     10  C   UNL     1       2.720   9.061  17.626  0.00  0.00    +0.000 A 
ATOM     11  N   UNL     1       2.705   7.758  18.019  0.00  0.00    +0.000 N 
ATOM     12  C   UNL     1       3.479   6.696  17.453  0.00  0.00    +0.000 C 
ATOM     13  C   UNL     1       3.609   5.439  18.353  0.00  0.00    +0.000 C 
ATOM     14  C   UNL     1       4.577   5.632  19.561  0.00  0.00    +0.000 C 
ENDROOT
BRANCH   8  15
ATOM     15  C   UNL     1       0.677   9.396  20.460  0.00  0.00    +0.000 A 
ATOM     16  C   UNL     1       0.828   8.829  21.733  0.00  0.00    +0.000 A 
ATOM     17  C   UNL     1       0.112   9.327  22.811  0.00  0.00    +0.000 A 
ATOM     18  C   UNL     1      -0.755  10.405  22.625  0.00  0.00    +0.000 A 
ATOM     19  F   UNL     1      -1.447  10.878  23.662  0.00  0.00    +0.000 F 
ATOM     20  C   UNL     1      -0.890  11.000  21.374  0.00  0.00    +0.000 A 
ATOM     21  C   UNL     1      -0.169  10.502  20.296  0.00  0.00    +0.000 A 
ENDBRANCH   8  15
BRANCH   1  22
ATOM     22  C   UNL     1       5.318   4.441  16.509  0.00  0.00    +0.000 C 
ATOM     23  C   UNL     1       5.011   5.004  15.108  0.00  0.00    +0.000 C 
BRANCH  22  28
ATOM     24  C   UNL     1       8.382   8.506  18.272  0.00  0.00    +0.000 C 
ATOM     25  C   UNL     1       7.798   7.153  18.045  0.00  0.00    +0.000 A 
ATOM     26  C   UNL     1       8.045   5.985  18.725  0.00  0.00    +0.000 A 
ATOM     27  C   UNL     1       7.323   4.875  18.188  0.00  0.00    +0.000 A 
ATOM     28  C   UNL     1       6.429   5.252  17.188  0.00  0.00    +0.000 A 
ATOM     29  S   UNL     1       6.679   6.912  16.778  0.00  0.00    +0.000 S 
ENDBRANCH  22  28
BRANCH  22  30
ATOM     30  O   UNL     1       5.926   3.156  16.260  0.00  0.00    +0.000 OA
ATOM     31  H   UNL     1       6.888   3.252  16.335  0.00  0.00    +0.000 HD
ENDBRANCH  22  30
ENDBRANCH   1  22
TORSDOF 4
ENDMDL
MODEL 2
REMARK VINA RESULT:      -8.6      4.197      7.682
REMARK  Name = 
REMARK  7 active torsions:
REMARK  status: ('A' for Active; 'I' for Inactive)
REMARK    1  A    between atoms: C_1  and  C_2
REMARK    2  A    between atoms: C_5  and  C_6
REMARK    3  A    between atoms: C_6  and  C_7
REMARK    4  A    between atoms: C_6  and  O_8
REMARK    5  A    between atoms: C_6  and  C_9
REMARK    6  A    between atoms: C_16  and  C_17
REMARK    7  A    between atoms: C_28  and  C_29
REMARK                            x       y       z     vdW  Elec       q    Type
REMARK                         _______ _______ _______ _____ _____    ______ ____
ROOT
ATOM      1  C   UNL     1       0.331  11.929  20.606  0.00  0.00    +0.000 C 
ATOM      2  C   UNL     1      -0.804  11.990  21.651  0.00  0.00    +0.000 C 
ATOM      3  C   UNL     1      -0.649  10.917  22.747  0.00  0.00    +0.000 C 
ATOM      4  C   UNL     1      -0.397   9.477  22.279  0.00  0.00    +0.000 C 
ATOM      5  C   UNL     1       0.513   9.341  21.079  0.00  0.00    +0.000 C 
ATOM      6  C   UNL     1       1.126   8.151  20.794  0.00  0.00    +0.000 C 
ATOM      7  C   UNL     1       1.817   7.952  19.560  0.00  0.00    +0.000 A 
ATOM      8  C   UNL     1       2.331   6.911  18.814  0.00  0.00    +0.000 A 
ATOM      9  N   UNL     1       3.029   7.381  17.711  0.00  0.00    +0.000 NA
ATOM     10  C   UNL     1       2.865   8.671  17.735  0.00  0.00    +0.000 A 
ATOM     11  N   UNL     1       2.079   9.049  18.779  0.00  0.00    +0.000 N 
ATOM     12  C   UNL     1       1.608  10.374  19.047  0.00  0.00    +0.000 C 
ATOM     13  C   UNL     1       0.396  10.447  20.012  0.00  0.00    +0.000 C 
ATOM     14  C   UNL     1      -0.949   9.995  19.362  0.00  0.00    +0.000 C 
ENDROOT
BRANCH   8  15
ATOM     15  C   UNL     1       2.179   5.489  19.046  0.00  0.00    +0.000 A 
ATOM     16  C   UNL     1       2.137   4.975  20.350  0.00  0.00    +0.000 A 
ATOM     17  C   UNL     1       1.945   3.619  20.562  0.00  0.00    +0.000 A 
ATOM     18  C   UNL     1       1.783   2.766  19.469  0.00  0.00    +0.000 A 
ATOM     19  F   UNL     1       1.605   1.460  19.676  0.00  0.00    +0.000 F 
ATOM     20  C   UNL     1       1.789   3.266  18.171  0.00  0.00    +0.000 A 
ATOM     21  C   UNL     1       1.977   4.626  17.960  0.00  0.00    +0.000 A 
ENDBRANCH   8  15
BRANCH   1  22
ATOM     22  C   UNL     1       0.312  13.104  19.515  0.00  0.00    +0.000 C 
ATOM     23  C   UNL     1      -0.787  14.160  19.747  0.00  0.00    +0.000 C 
BRANCH  22  28
ATOM     24  C   UNL     1       5.230  15.165  20.280  0.00  0.00    +0.000 C 
ATOM     25  C   UNL     1       3.972  14.670  19.652  0.00  0.00    +0.000 A 
ATOM     26  C   UNL     1       3.707  14.440  18.324  0.00  0.00    +0.000 A 
ATOM     27  C   UNL     1       2.365  14.004  18.100  0.00  0.00    +0.000 A 
ATOM     28  C   UNL     1       1.672  13.778  19.287  0.00  0.00    +0.000 A 
ATOM     29  S   UNL     1       2.609  14.336  20.626  0.00  0.00    +0.000 S 
ENDBRANCH  22  28
BRANCH  22  30
ATOM     30  O   UNL     1      -0.009  12.521  18.234  0.00  0.00    +0.000 OA
ATOM     31  H   UNL     1       0.655  12.813  17.590  0.00  0.00    +0.000 HD
ENDBRANCH  22  30
ENDBRANCH   1  22
TORSDOF 4
ENDMDL
MODEL 3
REMARK VINA RESULT:      -8.5      4.502      8.769
REMARK  Name = 
REMARK  7 active torsions:
REMARK  status: ('A' for Active; 'I' for Inactive)
REMARK    1  A    between atoms: C_1  and  C_2
REMARK    2  A    between atoms: C_5  and  C_6
REMARK    3  A    between atoms: C_6  and  C_7
REMARK    4  A    between atoms: C_6  and  O_8
REMARK    5  A    between atoms: C_6  and  C_9
REMARK    6  A    between atoms: C_16  and  C_17
REMARK    7  A    between atoms: C_28  and  C_29
REMARK                            x       y       z     vdW  Elec       q    Type
REMARK                         _______ _______ _______ _____ _____    ______ ____
ROOT
ATOM      1  C   UNL     1      -0.681  11.891  20.618  0.00  0.00    +0.000 C 
ATOM      2  C   UNL     1      -1.587  11.865  21.868  0.00  0.00    +0.000 C 
ATOM      3  C   UNL     1      -0.937  11.113  23.047  0.00  0.00    +0.000 C 
ATOM      4  C   UNL     1      -0.354   9.725  22.750  0.00  0.00    +0.000 C 
ATOM      5  C   UNL     1       0.336   9.590  21.411  0.00  0.00    +0.000 C 
ATOM      6  C   UNL     1       1.215   8.569  21.174  0.00  0.00    +0.000 C 
ATOM      7  C   UNL     1       1.713   8.311  19.859  0.00  0.00    +0.000 A 
ATOM      8  C   UNL     1       2.376   7.311  19.178  0.00  0.00    +0.000 A 
ATOM      9  N   UNL     1       2.703   7.714  17.892  0.00  0.00    +0.000 NA
ATOM     10  C   UNL     1       2.172   8.894  17.763  0.00  0.00    +0.000 A 
ATOM     11  N   UNL     1       1.500   9.257  18.889  0.00  0.00    +0.000 N 
ATOM     12  C   UNL     1       0.712  10.440  19.059  0.00  0.00    +0.000 C 
ATOM     13  C   UNL     1      -0.284  10.388  20.247  0.00  0.00    +0.000 C 
ATOM     14  C   UNL     1      -1.525   9.481  19.984  0.00  0.00    +0.000 C 
ENDROOT
BRANCH   8  15
ATOM     15  C   UNL     1       2.692   5.976  19.642  0.00  0.00    +0.000 A 
ATOM     16  C   UNL     1       1.814   5.283  20.487  0.00  0.00    +0.000 A 
ATOM     17  C   UNL     1       2.104   3.988  20.890  0.00  0.00    +0.000 A 
ATOM     18  C   UNL     1       3.274   3.372  20.440  0.00  0.00    +0.000 A 
ATOM     19  F   UNL     1       3.554   2.129  20.834  0.00  0.00    +0.000 F 
ATOM     20  C   UNL     1       4.138   4.036  19.574  0.00  0.00    +0.000 A 
ATOM     21  C   UNL     1       3.843   5.331  19.169  0.00  0.00    +0.000 A 
ENDBRANCH   8  15
BRANCH   1  22
ATOM     22  C   UNL     1      -1.233  12.775  19.400  0.00  0.00    +0.000 C 
ATOM     23  C   UNL     1      -0.142  13.240  18.415  0.00  0.00    +0.000 C 
BRANCH  22  28
ATOM     24  C   UNL     1      -6.205  11.479  17.782  0.00  0.00    +0.000 C 
ATOM     25  C   UNL     1      -4.722  11.610  17.874  0.00  0.00    +0.000 A 
ATOM     26  C   UNL     1      -3.771  11.280  16.940  0.00  0.00    +0.000 A 
ATOM     27  C   UNL     1      -2.441  11.512  17.406  0.00  0.00    +0.000 A 
ATOM     28  C   UNL     1      -2.412  12.148  18.646  0.00  0.00    +0.000 A 
ATOM     29  S   UNL     1      -4.009  12.221  19.301  0.00  0.00    +0.000 S 
ENDBRANCH  22  28
BRANCH  22  30
ATOM     30  O   UNL     1      -1.776  13.997  19.943  0.00  0.00    +0.000 OA
ATOM     31  H   UNL     1      -1.928  14.617  19.213  0.00  0.00    +0.000 HD
ENDBRANCH  22  30
ENDBRANCH   1  22
TORSDOF 4
ENDMDL
MODEL 4
REMARK VINA RESULT:      -8.5      4.354      8.585
REMARK  Name = 
REMARK  7 active torsions:
REMARK  status: ('A' for Active; 'I' for Inactive)
REMARK    1  A    between atoms: C_1  and  C_2
REMARK    2  A    between atoms: C_5  and  C_6
REMARK    3  A    between atoms: C_6  and  C_7
REMARK    4  A    between atoms: C_6  and  O_8
REMARK    5  A    between atoms: C_6  and  C_9
REMARK    6  A    between atoms: C_16  and  C_17
REMARK    7  A    between atoms: C_28  and  C_29
REMARK                            x       y       z     vdW  Elec       q    Type
REMARK                         _______ _______ _______ _____ _____    ______ ____
ROOT
ATOM      1  C   UNL     1      -0.158  11.473  21.144  0.00  0.00    +0.000 C 
ATOM      2  C   UNL     1      -1.082  11.230  22.357  0.00  0.00    +0.000 C 
ATOM      3  C   UNL     1      -0.523  10.159  23.314  0.00  0.00    +0.000 C 
ATOM      4  C   UNL     1      -0.067   8.836  22.685  0.00  0.00    +0.000 C 
ATOM      5  C   UNL     1       0.629   8.964  21.349  0.00  0.00    +0.000 C 
ATOM      6  C   UNL     1       1.414   7.953  20.865  0.00  0.00    +0.000 C 
ATOM      7  C   UNL     1       1.907   7.975  19.524  0.00  0.00    +0.000 A 
ATOM      8  C   UNL     1       2.485   7.113  18.616  0.00  0.00    +0.000 A 
ATOM      9  N   UNL     1       2.869   7.782  17.463  0.00  0.00    +0.000 NA
ATOM     10  C   UNL     1       2.452   9.003  17.628  0.00  0.00    +0.000 A 
ATOM     11  N   UNL     1       1.798   9.144  18.813  0.00  0.00    +0.000 N 
ATOM     12  C   UNL     1       1.120  10.319  19.270  0.00  0.00    +0.000 C 
ATOM     13  C   UNL     1       0.105  10.074  20.417  0.00  0.00    +0.000 C 
ATOM     14  C   UNL     1      -1.211   9.378  19.950  0.00  0.00    +0.000 C 
ENDROOT
BRANCH   8  15
ATOM     15  C   UNL     1       2.670   5.681  18.741  0.00  0.00    +0.000 A 
ATOM     16  C   UNL     1       1.885   4.789  17.997  0.00  0.00    +0.000 A 
ATOM     17  C   UNL     1       2.099   3.422  18.089  0.00  0.00    +0.000 A 
ATOM     18  C   UNL     1       3.110   2.938  18.921  0.00  0.00    +0.000 A 
ATOM     19  F   UNL     1       3.311   1.622  19.013  0.00  0.00    +0.000 F 
ATOM     20  C   UNL     1       3.919   3.813  19.640  0.00  0.00    +0.000 A 
ATOM     21  C   UNL     1       3.706   5.182  19.543  0.00  0.00    +0.000 A 
ENDBRANCH   8  15
BRANCH   1  22
ATOM     22  C   UNL     1      -0.606  12.673  20.180  0.00  0.00    +0.000 C 
ATOM     23  C   UNL     1       0.508  13.175  19.240  0.00  0.00    +0.000 C 
BRANCH  22  28
ATOM     24  C   UNL     1      -4.108  11.012  16.439  0.00  0.00    +0.000 C 
ATOM     25  C   UNL     1      -3.508  11.574  17.682  0.00  0.00    +0.000 A 
ATOM     26  C   UNL     1      -4.129  11.911  18.860  0.00  0.00    +0.000 A 
ATOM     27  C   UNL     1      -3.224  12.463  19.819  0.00  0.00    +0.000 A 
ATOM     28  C   UNL     1      -1.898  12.407  19.396  0.00  0.00    +0.000 A 
ATOM     29  S   UNL     1      -1.832  11.902  17.745  0.00  0.00    +0.000 S 
ENDBRANCH  22  28
BRANCH  22  30
ATOM     30  O   UNL     1      -0.927  13.814  21.004  0.00  0.00    +0.000 OA
ATOM     31  H   UNL     1      -0.101  14.177  21.361  0.00  0.00    +0.000 HD
ENDBRANCH  22  30
ENDBRANCH   1  22
TORSDOF 4
ENDMDL
MODEL 5
REMARK VINA RESULT:      -8.4      4.117      7.755
REMARK  Name = 
REMARK  7 active torsions:
REMARK  status: ('A' for Active; 'I' for Inactive)
REMARK    1  A    between atoms: C_1  and  C_2
REMARK    2  A    between atoms: C_5  and  C_6
REMARK    3  A    between atoms: C_6  and  C_7
REMARK    4  A    between atoms: C_6  and  O_8
REMARK    5  A    between atoms: C_6  and  C_9
REMARK    6  A    between atoms: C_16  and  C_17
REMARK    7  A    between atoms: C_28  and  C_29
REMARK                            x       y       z     vdW  Elec       q    Type
REMARK                         _______ _______ _______ _____ _____    ______ ____
ROOT
ATOM      1  C   UNL     1       0.360  11.780  20.694  0.00  0.00    +0.000 C 
ATOM      2  C   UNL     1      -0.769  11.836  21.747  0.00  0.00    +0.000 C 
ATOM      3  C   UNL     1      -0.616  10.749  22.828  0.00  0.00    +0.000 C 
ATOM      4  C   UNL     1      -0.377   9.313  22.341  0.00  0.00    +0.000 C 
ATOM      5  C   UNL     1       0.525   9.185  21.134  0.00  0.00    +0.000 C 
ATOM      6  C   UNL     1       1.127   7.994  20.831  0.00  0.00    +0.000 C 
ATOM      7  C   UNL     1       1.810   7.805  19.590  0.00  0.00    +0.000 A 
ATOM      8  C   UNL     1       2.312   6.770  18.829  0.00  0.00    +0.000 A 
ATOM      9  N   UNL     1       3.006   7.248  17.727  0.00  0.00    +0.000 NA
ATOM     10  C   UNL     1       2.853   8.540  17.768  0.00  0.00    +0.000 A 
ATOM     11  N   UNL     1       2.075   8.910  18.822  0.00  0.00    +0.000 N 
ATOM     12  C   UNL     1       1.616  10.235  19.109  0.00  0.00    +0.000 C 
ATOM     13  C   UNL     1       0.410  10.304  20.082  0.00  0.00    +0.000 C 
ATOM     14  C   UNL     1      -0.942   9.871  19.434  0.00  0.00    +0.000 C 
ENDROOT
BRANCH   8  15
ATOM     15  C   UNL     1       2.150   5.347  19.044  0.00  0.00    +0.000 A 
ATOM     16  C   UNL     1       1.765   4.501  17.994  0.00  0.00    +0.000 A 
ATOM     17  C   UNL     1       1.657   3.134  18.199  0.00  0.00    +0.000 A 
ATOM     18  C   UNL     1       1.944   2.600  19.456  0.00  0.00    +0.000 A 
ATOM     19  F   UNL     1       1.833   1.285  19.653  0.00  0.00    +0.000 F 
ATOM     20  C   UNL     1       2.359   3.423  20.499  0.00  0.00    +0.000 A 
ATOM     21  C   UNL     1       2.471   4.791  20.291  0.00  0.00    +0.000 A 
ENDBRANCH   8  15
BRANCH   1  22
ATOM     22  C   UNL     1       0.343  12.969  19.618  0.00  0.00    +0.000 C 
ATOM     23  C   UNL     1      -0.874  13.907  19.736  0.00  0.00    +0.000 C 
BRANCH  22  28
ATOM     24  C   UNL     1       4.886  15.267  17.858  0.00  0.00    +0.000 C 
ATOM     25  C   UNL     1       3.712  14.881  18.693  0.00  0.00    +0.000 A 
ATOM     26  C   UNL     1       3.259  15.453  19.856  0.00  0.00    +0.000 A 
ATOM     27  C   UNL     1       2.121  14.776  20.393  0.00  0.00    +0.000 A 
ATOM     28  C   UNL     1       1.646  13.776  19.547  0.00  0.00    +0.000 A 
ATOM     29  S   UNL     1       2.751  13.543  18.240  0.00  0.00    +0.000 S 
ENDBRANCH  22  28
BRANCH  22  30
ATOM     30  O   UNL     1       0.224  12.382  18.305  0.00  0.00    +0.000 OA
ATOM     31  H   UNL     1      -0.703  12.441  18.025  0.00  0.00    +0.000 HD
ENDBRANCH  22  30
ENDBRANCH   1  22
TORSDOF 4
ENDMDL
MODEL 6
REMARK VINA RESULT:      -8.1      4.291      8.322
REMARK  Name = 
REMARK  7 active torsions:
REMARK  status: ('A' for Active; 'I' for Inactive)
REMARK    1  A    between atoms: C_1  and  C_2
REMARK    2  A    between atoms: C_5  and  C_6
REMARK    3  A    between atoms: C_6  and  C_7
REMARK    4  A    between atoms: C_6  and  O_8
REMARK    5  A    between atoms: C_6  and  C_9
REMARK    6  A    between atoms: C_16  and  C_17
REMARK    7  A    between atoms: C_28  and  C_29
REMARK                            x       y       z     vdW  Elec       q    Type
REMARK                         _______ _______ _______ _____ _____    ______ ____
ROOT
ATOM      1  C   UNL     1       0.280  12.085  20.190  0.00  0.00    +0.000 C 
ATOM      2  C   UNL     1      -0.826  12.279  21.251  0.00  0.00    +0.000 C 
ATOM      3  C   UNL     1      -0.628  11.366  22.477  0.00  0.00    +0.000 C 
ATOM      4  C   UNL     1      -0.373   9.878  22.202  0.00  0.00    +0.000 C 
ATOM      5  C   UNL     1       0.504   9.586  21.005  0.00  0.00    +0.000 C 
ATOM      6  C   UNL     1       1.122   8.373  20.866  0.00  0.00    +0.000 C 
ATOM      7  C   UNL     1       1.780   8.013  19.651  0.00  0.00    +0.000 A 
ATOM      8  C   UNL     1       2.284   6.884  19.038  0.00  0.00    +0.000 A 
ATOM      9  N   UNL     1       2.945   7.204  17.861  0.00  0.00    +0.000 NA
ATOM     10  C   UNL     1       2.767   8.485  17.714  0.00  0.00    +0.000 A 
ATOM     11  N   UNL     1       2.007   8.995  18.721  0.00  0.00    +0.000 N 
ATOM     12  C   UNL     1       1.529  10.341  18.820  0.00  0.00    +0.000 C 
ATOM     13  C   UNL     1       0.344  10.535  19.802  0.00  0.00    +0.000 C 
ATOM     14  C   UNL     1      -1.014   9.990  19.260  0.00  0.00    +0.000 C 
ENDROOT
BRANCH   8  15
ATOM     15  C   UNL     1       2.154   5.506  19.466  0.00  0.00    +0.000 A 
ATOM     16  C   UNL     1       2.262   5.161  20.820  0.00  0.00    +0.000 A 
ATOM     17  C   UNL     1       2.091   3.846  21.225  0.00  0.00    +0.000 A 
ATOM     18  C   UNL     1       1.801   2.865  20.275  0.00  0.00    +0.000 A 
ATOM     19  F   UNL     1       1.643   1.599  20.666  0.00  0.00    +0.000 F 
ATOM     20  C   UNL     1       1.657   3.197  18.932  0.00  0.00    +0.000 A 
ATOM     21  C   UNL     1       1.824   4.516  18.529  0.00  0.00    +0.000 A 
ENDBRANCH   8  15
BRANCH   1  22
ATOM     22  C   UNL     1       0.216  13.100  18.951  0.00  0.00    +0.000 C 
ATOM     23  C   UNL     1      -0.957  12.841  17.985  0.00  0.00    +0.000 C 
BRANCH  22  28
ATOM     24  C   UNL     1       1.976  18.096  19.933  0.00  0.00    +0.000 C 
ATOM     25  C   UNL     1       1.103  16.904  19.732  0.00  0.00    +0.000 A 
ATOM     26  C   UNL     1      -0.264  16.849  19.619  0.00  0.00    +0.000 A 
ATOM     27  C   UNL     1      -0.750  15.513  19.476  0.00  0.00    +0.000 A 
ATOM     28  C   UNL     1       0.279  14.582  19.343  0.00  0.00    +0.000 A 
ATOM     29  S   UNL     1       1.799  15.346  19.640  0.00  0.00    +0.000 S 
ENDBRANCH  22  28
BRANCH  22  30
ATOM     30  O   UNL     1       1.399  12.901  18.148  0.00  0.00    +0.000 OA
ATOM     31  H   UNL     1       1.899  12.156  18.517  0.00  0.00    +0.000 HD
ENDBRANCH  22  30
ENDBRANCH   1  22
TORSDOF 4
ENDMDL
MODEL 7
REMARK VINA RESULT:      -8.0      4.391      8.133
REMARK  Name = 
REMARK  7 active torsions:
REMARK  status: ('A' for Active; 'I' for Inactive)
REMARK    1  A    between atoms: C_1  and  C_2
REMARK    2  A    between atoms: C_5  and  C_6
REMARK    3  A    between atoms: C_6  and  C_7
REMARK    4  A    between atoms: C_6  and  O_8
REMARK    5  A    between atoms: C_6  and  C_9
REMARK    6  A    between atoms: C_16  and  C_17
REMARK    7  A    between atoms: C_28  and  C_29
REMARK                            x       y       z     vdW  Elec       q    Type
REMARK                         _______ _______ _______ _____ _____    ______ ____
ROOT
ATOM      1  C   UNL     1       0.601  12.046  20.118  0.00  0.00    +0.000 C 
ATOM      2  C   UNL     1      -0.534  12.275  21.140  0.00  0.00    +0.000 C 
ATOM      3  C   UNL     1      -0.442  11.316  22.343  0.00  0.00    +0.000 C 
ATOM      4  C   UNL     1      -0.265   9.824  22.030  0.00  0.00    +0.000 C 
ATOM      5  C   UNL     1       0.641   9.515  20.860  0.00  0.00    +0.000 C 
ATOM      6  C   UNL     1       1.191   8.272  20.706  0.00  0.00    +0.000 C 
ATOM      7  C   UNL     1       1.877   7.909  19.506  0.00  0.00    +0.000 A 
ATOM      8  C   UNL     1       2.338   6.770  18.878  0.00  0.00    +0.000 A 
ATOM      9  N   UNL     1       3.065   7.085  17.739  0.00  0.00    +0.000 NA
ATOM     10  C   UNL     1       2.970   8.378  17.627  0.00  0.00    +0.000 A 
ATOM     11  N   UNL     1       2.200   8.903  18.619  0.00  0.00    +0.000 N 
ATOM     12  C   UNL     1       1.800  10.272  18.743  0.00  0.00    +0.000 C 
ATOM     13  C   UNL     1       0.589  10.508  19.683  0.00  0.00    +0.000 C 
ATOM     14  C   UNL     1      -0.775  10.063  19.070  0.00  0.00    +0.000 C 
ENDROOT
BRANCH   8  15
ATOM     15  C   UNL     1       2.109   5.390  19.255  0.00  0.00    +0.000 A 
ATOM     16  C   UNL     1       1.821   4.420  18.285  0.00  0.00    +0.000 A 
ATOM     17  C   UNL     1       1.648   3.093  18.651  0.00  0.00    +0.000 A 
ATOM     18  C   UNL     1       1.772   2.726  19.992  0.00  0.00    +0.000 A 
ATOM     19  F   UNL     1       1.598   1.451  20.342  0.00  0.00    +0.000 F 
ATOM     20  C   UNL     1       2.090   3.673  20.961  0.00  0.00    +0.000 A 
ATOM     21  C   UNL     1       2.267   5.000  20.592  0.00  0.00    +0.000 A 
ENDBRANCH   8  15
BRANCH   1  22
ATOM     22  C   UNL     1       0.649  13.100  18.912  0.00  0.00    +0.000 C 
ATOM     23  C   UNL     1      -0.705  13.311  18.206  0.00  0.00    +0.000 C 
BRANCH  22  28
ATOM     24  C   UNL     1       1.373  18.320  20.029  0.00  0.00    +0.000 C 
ATOM     25  C   UNL     1       1.589  16.856  19.848  0.00  0.00    +0.000 A 
ATOM     26  C   UNL     1       2.649  16.086  20.260  0.00  0.00    +0.000 A 
ATOM     27  C   UNL     1       2.520  14.719  19.864  0.00  0.00    +0.000 A 
ATOM     28  C   UNL     1       1.288  14.448  19.273  0.00  0.00    +0.000 A 
ATOM     29  S   UNL     1       0.431  15.924  19.007  0.00  0.00    +0.000 S 
ENDBRANCH  22  28
BRANCH  22  30
ATOM     30  O   UNL     1       1.515  12.567  17.886  0.00  0.00    +0.000 OA
ATOM     31  H   UNL     1       2.312  12.215  18.310  0.00  0.00    +0.000 HD
ENDBRANCH  22  30
ENDBRANCH   1  22
TORSDOF 4
ENDMDL
MODEL 8
REMARK VINA RESULT:      -7.9      4.337      8.920
REMARK  Name = 
REMARK  7 active torsions:
REMARK  status: ('A' for Active; 'I' for Inactive)
REMARK    1  A    between atoms: C_1  and  C_2
REMARK    2  A    between atoms: C_5  and  C_6
REMARK    3  A    between atoms: C_6  and  C_7
REMARK    4  A    between atoms: C_6  and  O_8
REMARK    5  A    between atoms: C_6  and  C_9
REMARK    6  A    between atoms: C_16  and  C_17
REMARK    7  A    between atoms: C_28  and  C_29
REMARK                            x       y       z     vdW  Elec       q    Type
REMARK                         _______ _______ _______ _____ _____    ______ ____
ROOT
ATOM      1  C   UNL     1      -0.653  11.658  20.873  0.00  0.00    +0.000 C 
ATOM      2  C   UNL     1      -1.546  11.505  22.124  0.00  0.00    +0.000 C 
ATOM      3  C   UNL     1      -0.864  10.680  23.233  0.00  0.00    +0.000 C 
ATOM      4  C   UNL     1      -0.246   9.337  22.820  0.00  0.00    +0.000 C 
ATOM      5  C   UNL     1       0.434   9.330  21.470  0.00  0.00    +0.000 C 
ATOM      6  C   UNL     1       1.339   8.357  21.144  0.00  0.00    +0.000 C 
ATOM      7  C   UNL     1       1.830   8.220  19.809  0.00  0.00    +0.000 A 
ATOM      8  C   UNL     1       2.514   7.297  19.044  0.00  0.00    +0.000 A 
ATOM      9  N   UNL     1       2.818   7.811  17.792  0.00  0.00    +0.000 NA
ATOM     10  C   UNL     1       2.253   8.982  17.763  0.00  0.00    +0.000 A 
ATOM     11  N   UNL     1       1.582   9.234  18.920  0.00  0.00    +0.000 N 
ATOM     12  C   UNL     1       0.764  10.377  19.191  0.00  0.00    +0.000 C 
ATOM     13  C   UNL     1      -0.218  10.201  20.379  0.00  0.00    +0.000 C 
ATOM     14  C   UNL     1      -1.437   9.284  20.052  0.00  0.00    +0.000 C 
ENDROOT
BRANCH   8  15
ATOM     15  C   UNL     1       2.872   5.939  19.397  0.00  0.00    +0.000 A 
ATOM     16  C   UNL     1       1.967   5.111  20.076  0.00  0.00    +0.000 A 
ATOM     17  C   UNL     1       2.301   3.798  20.369  0.00  0.00    +0.000 A 
ATOM     18  C   UNL     1       3.544   3.299  19.974  0.00  0.00    +0.000 A 
ATOM     19  F   UNL     1       3.866   2.037  20.263  0.00  0.00    +0.000 F 
ATOM     20  C   UNL     1       4.439   4.098  19.270  0.00  0.00    +0.000 A 
ATOM     21  C   UNL     1       4.101   5.412  18.974  0.00  0.00    +0.000 A 
ENDBRANCH   8  15
BRANCH   1  22
ATOM     22  C   UNL     1      -1.241  12.621  19.734  0.00  0.00    +0.000 C 
ATOM     23  C   UNL     1      -0.505  12.521  18.384  0.00  0.00    +0.000 C 
BRANCH  22  28
ATOM     24  C   UNL     1      -6.112  11.056  18.047  0.00  0.00    +0.000 C 
ATOM     25  C   UNL     1      -5.006  11.729  18.786  0.00  0.00    +0.000 A 
ATOM     26  C   UNL     1      -5.072  12.487  19.929  0.00  0.00    +0.000 A 
ATOM     27  C   UNL     1      -3.799  13.005  20.319  0.00  0.00    +0.000 A 
ATOM     28  C   UNL     1      -2.759  12.512  19.534  0.00  0.00    +0.000 A 
ATOM     29  S   UNL     1      -3.405  11.624  18.200  0.00  0.00    +0.000 S 
ENDBRANCH  22  28
BRANCH  22  30
ATOM     30  O   UNL     1      -1.042  13.987  20.157  0.00  0.00    +0.000 OA
ATOM     31  H   UNL     1      -1.793  14.517  19.846  0.00  0.00    +0.000 HD
ENDBRANCH  22  30
ENDBRANCH   1  22
TORSDOF 4
ENDMDL
MODEL 9
REMARK VINA RESULT:      -7.8      4.449      8.704
REMARK  Name = 
REMARK  7 active torsions:
REMARK  status: ('A' for Active; 'I' for Inactive)
REMARK    1  A    between atoms: C_1  and  C_2
REMARK    2  A    between atoms: C_5  and  C_6
REMARK    3  A    between atoms: C_6  and  C_7
REMARK    4  A    between atoms: C_6  and  O_8
REMARK    5  A    between atoms: C_6  and  C_9
REMARK    6  A    between atoms: C_16  and  C_17
REMARK    7  A    between atoms: C_28  and  C_29
REMARK                            x       y       z     vdW  Elec       q    Type
REMARK                         _______ _______ _______ _____ _____    ______ ____
ROOT
ATOM      1  C   UNL     1       0.069  11.788  20.954  0.00  0.00    +0.000 C 
ATOM      2  C   UNL     1      -1.025  11.731  22.043  0.00  0.00    +0.000 C 
ATOM      3  C   UNL     1      -0.767  10.615  23.075  0.00  0.00    +0.000 C 
ATOM      4  C   UNL     1      -0.454   9.217  22.524  0.00  0.00    +0.000 C 
ATOM      5  C   UNL     1       0.413   9.193  21.285  0.00  0.00    +0.000 C 
ATOM      6  C   UNL     1       1.080   8.057  20.916  0.00  0.00    +0.000 C 
ATOM      7  C   UNL     1       1.731   7.960  19.648  0.00  0.00    +0.000 A 
ATOM      8  C   UNL     1       2.272   6.989  18.830  0.00  0.00    +0.000 A 
ATOM      9  N   UNL     1       2.898   7.553  17.728  0.00  0.00    +0.000 NA
ATOM     10  C   UNL     1       2.663   8.829  17.825  0.00  0.00    +0.000 A 
ATOM     11  N   UNL     1       1.900   9.108  18.916  0.00  0.00    +0.000 N 
ATOM     12  C   UNL     1       1.367  10.389  19.270  0.00  0.00    +0.000 C 
ATOM     13  C   UNL     1       0.192  10.343  20.282  0.00  0.00    +0.000 C 
ATOM     14  C   UNL     1      -1.150   9.848  19.660  0.00  0.00    +0.000 C 
ENDROOT
BRANCH   8  15
ATOM     15  C   UNL     1       2.208   5.551  18.993  0.00  0.00    +0.000 A 
ATOM     16  C   UNL     1       2.420   4.961  20.247  0.00  0.00    +0.000 A 
ATOM     17  C   UNL     1       2.312   3.587  20.402  0.00  0.00    +0.000 A 
ATOM     18  C   UNL     1       1.981   2.793  19.303  0.00  0.00    +0.000 A 
ATOM     19  F   UNL     1       1.884   1.471  19.453  0.00  0.00    +0.000 F 
ATOM     20  C   UNL     1       1.735   3.368  18.059  0.00  0.00    +0.000 A 
ATOM     21  C   UNL     1       1.839   4.745  17.907  0.00  0.00    +0.000 A 
ENDBRANCH   8  15
BRANCH   1  22
ATOM     22  C   UNL     1      -0.059  13.013  19.928  0.00  0.00    +0.000 C 
ATOM     23  C   UNL     1      -0.807  12.666  18.626  0.00  0.00    +0.000 C 
BRANCH  22  28
ATOM     24  C   UNL     1      -0.449  17.854  22.257  0.00  0.00    +0.000 C 
ATOM     25  C   UNL     1      -0.771  16.571  21.570  0.00  0.00    +0.000 A 
ATOM     26  C   UNL     1      -1.945  16.190  20.967  0.00  0.00    +0.000 A 
ATOM     27  C   UNL     1      -1.888  14.860  20.448  0.00  0.00    +0.000 A 
ATOM     28  C   UNL     1      -0.616  14.301  20.547  0.00  0.00    +0.000 A 
ATOM     29  S   UNL     1       0.403  15.333  21.487  0.00  0.00    +0.000 S 
ENDBRANCH  22  28
BRANCH  22  30
ATOM     30  O   UNL     1       1.270  13.377  19.498  0.00  0.00    +0.000 OA
ATOM     31  H   UNL     1       1.877  13.258  20.244  0.00  0.00    +0.000 HD
ENDBRANCH  22  30
ENDBRANCH   1  22
TORSDOF 4
ENDMDL
