MODEL 1
REMARK VINA RESULT:      -7.0      0.000      0.000
REMARK  Name = 
REMARK  11 active torsions:
REMARK  status: ('A' for Active; 'I' for Inactive)
REMARK    1  A    between atoms: C_1  and  C_2
REMARK    2  A    between atoms: C_2  and  O_3
REMARK    3  A    between atoms: O_3  and  C_4
REMARK    4  A    between atoms: C_4  and  C_5
REMARK    5  A    between atoms: C_5  and  C_6
REMARK    6  A    between atoms: C_6  and  C_7
REMARK    7  A    between atoms: N_9  and  C_10
REMARK    8  A    between atoms: C_12  and  C_13
REMARK    9  A    between atoms: C_14  and  N_15
REMARK   10  A    between atoms: C_16  and  C_17
REMARK   11  A    between atoms: C_19  and  C_20
REMARK                            x       y       z     vdW  Elec       q    Type
REMARK                         _______ _______ _______ _____ _____    ______ ____
ROOT
ATOM      1  C   UNL     1       2.669   5.012  18.312  0.00  0.00    +0.000 C 
ATOM      2  O   UNL     1       1.603   4.981  17.692  0.00  0.00    +0.000 OA
ATOM      3  N   UNL     1       3.078   6.072  19.113  0.00  0.00    +0.000 N 
ATOM      4  H   UNL     1       4.036   6.090  19.434  0.00  0.00    +0.000 HD
ENDROOT
BRANCH   3   5
ATOM      5  C   UNL     1       2.322   7.240  19.373  0.00  0.00    +0.000 A 
ATOM      6  C   UNL     1       2.292   8.316  18.504  0.00  0.00    +0.000 A 
ATOM      7  C   UNL     1       1.617   9.527  18.790  0.00  0.00    +0.000 A 
ATOM      8  C   UNL     1       1.800  10.575  17.727  0.00  0.00    +0.000 C 
ATOM      9  C   UNL     1       0.886   9.648  19.990  0.00  0.00    +0.000 A 
ATOM     10  C   UNL     1       0.883   8.526  20.880  0.00  0.00    +0.000 A 
ATOM     11  C   UNL     1       0.187   8.475  22.226  0.00  0.00    +0.000 C 
ATOM     12  C   UNL     1       1.592   7.339  20.549  0.00  0.00    +0.000 A 
BRANCH   9  13
ATOM     13  N   UNL     1       0.152  10.794  20.404  0.00  0.00    +0.000 N 
ATOM     14  C   UNL     1       0.518  12.013  20.939  0.00  0.00    +0.000 C 
ATOM     15  C   UNL     1      -0.675  12.904  21.209  0.00  0.00    +0.000 C 
ATOM     16  O   UNL     1       1.634  12.444  21.189  0.00  0.00    +0.000 OA
ATOM     17  H   UNL     1      -0.842  10.726  20.254  0.00  0.00    +0.000 HD
ENDBRANCH   9  13
ENDBRANCH   3   5
BRANCH   1  18
ATOM     18  C   UNL     1       3.704   3.886  18.089  0.00  0.00    +0.000 C 
ATOM     19  C   UNL     1       2.963   2.607  17.629  0.00  0.00    +0.000 C 
ATOM     20  C   UNL     1       2.432   1.980  18.913  0.00  0.00    +0.000 C 
ATOM     21  C   UNL     1       3.390   2.417  20.016  0.00  0.00    +0.000 C 
ATOM     22  C   UNL     1       4.381   3.385  19.373  0.00  0.00    +0.000 C 
BRANCH  18  23
ATOM     23  C   UNL     1       4.707   4.326  16.997  0.00  0.00    +0.000 C 
BRANCH  23  24
ATOM     24  C   UNL     1       6.094   4.673  17.528  0.00  0.00    +0.000 C 
BRANCH  24  25
ATOM     25  O   UNL     1       6.120   6.004  18.039  0.00  0.00    +0.000 OA
BRANCH  25  27
ATOM     26  C   UNL     1       7.687   7.752  17.516  0.00  0.00    +0.000 C 
ATOM     27  C   UNL     1       7.472   6.432  18.221  0.00  0.00    +0.000 C 
ENDBRANCH  25  27
ENDBRANCH  24  25
ENDBRANCH  23  24
ENDBRANCH  18  23
ENDBRANCH   1  18
TORSDOF 7
ENDMDL
MODEL 2
REMARK VINA RESULT:      -6.9      1.007      1.069
REMARK  Name = 
REMARK  11 active torsions:
REMARK  status: ('A' for Active; 'I' for Inactive)
REMARK    1  A    between atoms: C_1  and  C_2
REMARK    2  A    between atoms: C_2  and  O_3
REMARK    3  A    between atoms: O_3  and  C_4
REMARK    4  A    between atoms: C_4  and  C_5
REMARK    5  A    between atoms: C_5  and  C_6
REMARK    6  A    between atoms: C_6  and  C_7
REMARK    7  A    between atoms: N_9  and  C_10
REMARK    8  A    between atoms: C_12  and  C_13
REMARK    9  A    between atoms: C_14  and  N_15
REMARK   10  A    between atoms: C_16  and  C_17
REMARK   11  A    between atoms: C_19  and  C_20
REMARK                            x       y       z     vdW  Elec       q    Type
REMARK                         _______ _______ _______ _____ _____    ______ ____
ROOT
ATOM      1  C   UNL     1       2.635   4.945  18.272  0.00  0.00    +0.000 C 
ATOM      2  O   UNL     1       1.581   4.942  17.632  0.00  0.00    +0.000 OA
ATOM      3  N   UNL     1       3.052   5.990  19.090  0.00  0.00    +0.000 N 
ATOM      4  H   UNL     1       4.004   5.984  19.429  0.00  0.00    +0.000 HD
ENDROOT
BRANCH   3   5
ATOM      5  C   UNL     1       2.317   7.171  19.346  0.00  0.00    +0.000 A 
ATOM      6  C   UNL     1       2.318   8.251  18.481  0.00  0.00    +0.000 A 
ATOM      7  C   UNL     1       1.665   9.473  18.765  0.00  0.00    +0.000 A 
ATOM      8  C   UNL     1       1.880  10.522  17.708  0.00  0.00    +0.000 C 
ATOM      9  C   UNL     1       0.922   9.605  19.957  0.00  0.00    +0.000 A 
ATOM     10  C   UNL     1       0.887   8.480  20.842  0.00  0.00    +0.000 A 
ATOM     11  C   UNL     1       0.175   8.438  22.180  0.00  0.00    +0.000 C 
ATOM     12  C   UNL     1       1.576   7.281  20.514  0.00  0.00    +0.000 A 
BRANCH   9  13
ATOM     13  N   UNL     1       0.207  10.764  20.367  0.00  0.00    +0.000 N 
ATOM     14  C   UNL     1      -0.972  11.348  19.951  0.00  0.00    +0.000 C 
ATOM     15  C   UNL     1      -1.302  12.601  20.732  0.00  0.00    +0.000 C 
ATOM     16  O   UNL     1      -1.754  10.980  19.085  0.00  0.00    +0.000 OA
ATOM     17  H   UNL     1       0.623  11.255  21.142  0.00  0.00    +0.000 HD
ENDBRANCH   9  13
ENDBRANCH   3   5
BRANCH   1  18
ATOM     18  C   UNL     1       3.650   3.799  18.058  0.00  0.00    +0.000 C 
ATOM     19  C   UNL     1       2.875   2.490  17.769  0.00  0.00    +0.000 C 
ATOM     20  C   UNL     1       2.453   1.975  19.141  0.00  0.00    +0.000 C 
ATOM     21  C   UNL     1       3.499   2.496  20.120  0.00  0.00    +0.000 C 
ATOM     22  C   UNL     1       4.432   3.402  19.319  0.00  0.00    +0.000 C 
BRANCH  18  23
ATOM     23  C   UNL     1       4.558   4.142  16.854  0.00  0.00    +0.000 C 
BRANCH  23  24
ATOM     24  C   UNL     1       5.893   4.770  17.239  0.00  0.00    +0.000 C 
BRANCH  24  25
ATOM     25  O   UNL     1       5.772   6.187  17.343  0.00  0.00    +0.000 OA
BRANCH  25  27
ATOM     26  C   UNL     1       7.725   6.032  18.739  0.00  0.00    +0.000 C 
ATOM     27  C   UNL     1       7.051   6.769  17.603  0.00  0.00    +0.000 C 
ENDBRANCH  25  27
ENDBRANCH  24  25
ENDBRANCH  23  24
ENDBRANCH  18  23
ENDBRANCH   1  18
TORSDOF 7
ENDMDL
MODEL 3
REMARK VINA RESULT:      -6.9      1.681      2.687
REMARK  Name = 
REMARK  11 active torsions:
REMARK  status: ('A' for Active; 'I' for Inactive)
REMARK    1  A    between atoms: C_1  and  C_2
REMARK    2  A    between atoms: C_2  and  O_3
REMARK    3  A    between atoms: O_3  and  C_4
REMARK    4  A    between atoms: C_4  and  C_5
REMARK    5  A    between atoms: C_5  and  C_6
REMARK    6  A    between atoms: C_6  and  C_7
REMARK    7  A    between atoms: N_9  and  C_10
REMARK    8  A    between atoms: C_12  and  C_13
REMARK    9  A    between atoms: C_14  and  N_15
REMARK   10  A    between atoms: C_16  and  C_17
REMARK   11  A    between atoms: C_19  and  C_20
REMARK                            x       y       z     vdW  Elec       q    Type
REMARK                         _______ _______ _______ _____ _____    ______ ____
ROOT
ATOM      1  C   UNL     1       2.203   5.927  20.039  0.00  0.00    +0.000 C 
ATOM      2  O   UNL     1       1.354   5.529  20.840  0.00  0.00    +0.000 OA
ATOM      3  N   UNL     1       2.339   7.250  19.633  0.00  0.00    +0.000 N 
ATOM      4  H   UNL     1       2.937   7.452  18.845  0.00  0.00    +0.000 HD
ENDROOT
BRANCH   3   5
ATOM      5  C   UNL     1       1.563   8.334  20.108  0.00  0.00    +0.000 A 
ATOM      6  C   UNL     1       1.240   8.490  21.445  0.00  0.00    +0.000 A 
ATOM      7  C   UNL     1       0.390   9.514  21.924  0.00  0.00    +0.000 A 
ATOM      8  C   UNL     1       0.124   9.423  23.402  0.00  0.00    +0.000 C 
ATOM      9  C   UNL     1      -0.124  10.470  21.023  0.00  0.00    +0.000 A 
ATOM     10  C   UNL     1       0.234  10.338  19.642  0.00  0.00    +0.000 A 
ATOM     11  C   UNL     1      -0.242  11.241  18.522  0.00  0.00    +0.000 C 
ATOM     12  C   UNL     1       1.080   9.278  19.214  0.00  0.00    +0.000 A 
BRANCH   9  13
ATOM     13  N   UNL     1      -0.976  11.557  21.361  0.00  0.00    +0.000 N 
ATOM     14  C   UNL     1      -0.746  12.825  21.856  0.00  0.00    +0.000 C 
ATOM     15  C   UNL     1      -2.026  13.610  22.046  0.00  0.00    +0.000 C 
ATOM     16  O   UNL     1       0.315  13.369  22.126  0.00  0.00    +0.000 OA
ATOM     17  H   UNL     1      -1.953  11.390  21.179  0.00  0.00    +0.000 HD
ENDBRANCH   9  13
ENDBRANCH   3   5
BRANCH   1  18
ATOM     18  C   UNL     1       3.092   4.895  19.308  0.00  0.00    +0.000 C 
ATOM     19  C   UNL     1       2.859   5.024  17.782  0.00  0.00    +0.000 C 
ATOM     20  C   UNL     1       1.580   4.239  17.514  0.00  0.00    +0.000 C 
ATOM     21  C   UNL     1       1.514   3.169  18.598  0.00  0.00    +0.000 C 
ATOM     22  C   UNL     1       2.687   3.432  19.542  0.00  0.00    +0.000 C 
BRANCH  18  23
ATOM     23  C   UNL     1       4.577   5.181  19.633  0.00  0.00    +0.000 C 
BRANCH  23  24
ATOM     24  C   UNL     1       5.470   5.314  18.405  0.00  0.00    +0.000 C 
BRANCH  24  25
ATOM     25  O   UNL     1       6.613   4.470  18.518  0.00  0.00    +0.000 OA
BRANCH  25  27
ATOM     26  C   UNL     1       6.577   4.354  16.116  0.00  0.00    +0.000 C 
ATOM     27  C   UNL     1       7.424   4.586  17.347  0.00  0.00    +0.000 C 
ENDBRANCH  25  27
ENDBRANCH  24  25
ENDBRANCH  23  24
ENDBRANCH  18  23
ENDBRANCH   1  18
TORSDOF 7
ENDMDL
MODEL 4
REMARK VINA RESULT:      -6.9      0.990      1.103
REMARK  Name = 
REMARK  11 active torsions:
REMARK  status: ('A' for Active; 'I' for Inactive)
REMARK    1  A    between atoms: C_1  and  C_2
REMARK    2  A    between atoms: C_2  and  O_3
REMARK    3  A    between atoms: O_3  and  C_4
REMARK    4  A    between atoms: C_4  and  C_5
REMARK    5  A    between atoms: C_5  and  C_6
REMARK    6  A    between atoms: C_6  and  C_7
REMARK    7  A    between atoms: N_9  and  C_10
REMARK    8  A    between atoms: C_12  and  C_13
REMARK    9  A    between atoms: C_14  and  N_15
REMARK   10  A    between atoms: C_16  and  C_17
REMARK   11  A    between atoms: C_19  and  C_20
REMARK                            x       y       z     vdW  Elec       q    Type
REMARK                         _______ _______ _______ _____ _____    ______ ____
ROOT
ATOM      1  C   UNL     1       2.350   5.132  18.956  0.00  0.00    +0.000 C 
ATOM      2  O   UNL     1       1.864   5.417  17.859  0.00  0.00    +0.000 OA
ATOM      3  N   UNL     1       2.384   5.994  20.047  0.00  0.00    +0.000 N 
ATOM      4  H   UNL     1       2.958   5.743  20.839  0.00  0.00    +0.000 HD
ENDROOT
BRANCH   3   5
ATOM      5  C   UNL     1       1.832   7.296  20.077  0.00  0.00    +0.000 A 
ATOM      6  C   UNL     1       2.006   8.203  19.047  0.00  0.00    +0.000 A 
ATOM      7  C   UNL     1       1.540   9.538  19.101  0.00  0.00    +0.000 A 
ATOM      8  C   UNL     1       1.925  10.351  17.895  0.00  0.00    +0.000 C 
ATOM      9  C   UNL     1       0.811   9.975  20.227  0.00  0.00    +0.000 A 
ATOM     10  C   UNL     1       0.594   9.032  21.282  0.00  0.00    +0.000 A 
ATOM     11  C   UNL     1      -0.134   9.320  22.580  0.00  0.00    +0.000 C 
ATOM     12  C   UNL     1       1.100   7.707  21.182  0.00  0.00    +0.000 A 
BRANCH   9  13
ATOM     13  N   UNL     1       0.272  11.278  20.413  0.00  0.00    +0.000 N 
ATOM     14  C   UNL     1       0.806  12.471  20.857  0.00  0.00    +0.000 C 
ATOM     15  C   UNL     1      -0.214  13.589  20.869  0.00  0.00    +0.000 C 
ATOM     16  O   UNL     1       1.951  12.725  21.203  0.00  0.00    +0.000 OA
ATOM     17  H   UNL     1      -0.694  11.370  20.141  0.00  0.00    +0.000 HD
ENDBRANCH   9  13
ENDBRANCH   3   5
BRANCH   1  18
ATOM     18  C   UNL     1       3.110   3.795  19.119  0.00  0.00    +0.000 C 
ATOM     19  C   UNL     1       2.289   2.667  18.446  0.00  0.00    +0.000 C 
ATOM     20  C   UNL     1       1.230   2.287  19.476  0.00  0.00    +0.000 C 
ATOM     21  C   UNL     1       1.839   2.609  20.836  0.00  0.00    +0.000 C 
ATOM     22  C   UNL     1       3.184   3.280  20.564  0.00  0.00    +0.000 C 
BRANCH  18  23
ATOM     23  C   UNL     1       4.492   3.910  18.435  0.00  0.00    +0.000 C 
BRANCH  23  24
ATOM     24  C   UNL     1       5.402   4.970  19.045  0.00  0.00    +0.000 C 
BRANCH  24  25
ATOM     25  O   UNL     1       6.751   4.511  19.094  0.00  0.00    +0.000 OA
BRANCH  25  27
ATOM     26  C   UNL     1       7.463   6.562  18.059  0.00  0.00    +0.000 C 
ATOM     27  C   UNL     1       7.492   5.051  17.998  0.00  0.00    +0.000 C 
ENDBRANCH  25  27
ENDBRANCH  24  25
ENDBRANCH  23  24
ENDBRANCH  18  23
ENDBRANCH   1  18
TORSDOF 7
ENDMDL
MODEL 5
REMARK VINA RESULT:      -6.9      0.909      1.159
REMARK  Name = 
REMARK  11 active torsions:
REMARK  status: ('A' for Active; 'I' for Inactive)
REMARK    1  A    between atoms: C_1  and  C_2
REMARK    2  A    between atoms: C_2  and  O_3
REMARK    3  A    between atoms: O_3  and  C_4
REMARK    4  A    between atoms: C_4  and  C_5
REMARK    5  A    between atoms: C_5  and  C_6
REMARK    6  A    between atoms: C_6  and  C_7
REMARK    7  A    between atoms: N_9  and  C_10
REMARK    8  A    between atoms: C_12  and  C_13
REMARK    9  A    between atoms: C_14  and  N_15
REMARK   10  A    between atoms: C_16  and  C_17
REMARK   11  A    between atoms: C_19  and  C_20
REMARK                            x       y       z     vdW  Elec       q    Type
REMARK                         _______ _______ _______ _____ _____    ______ ____
ROOT
ATOM      1  C   UNL     1       2.697   5.179  18.910  0.00  0.00    +0.000 C 
ATOM      2  O   UNL     1       2.030   5.314  17.882  0.00  0.00    +0.000 OA
ATOM      3  N   UNL     1       2.734   6.105  19.947  0.00  0.00    +0.000 N 
ATOM      4  H   UNL     1       3.440   5.999  20.661  0.00  0.00    +0.000 HD
ENDROOT
BRANCH   3   5
ATOM      5  C   UNL     1       1.986   7.305  19.999  0.00  0.00    +0.000 A 
ATOM      6  C   UNL     1       2.081   8.285  19.026  0.00  0.00    +0.000 A 
ATOM      7  C   UNL     1       1.411   9.528  19.109  0.00  0.00    +0.000 A 
ATOM      8  C   UNL     1       1.739  10.457  17.971  0.00  0.00    +0.000 C 
ATOM      9  C   UNL     1       0.555   9.786  20.200  0.00  0.00    +0.000 A 
ATOM     10  C   UNL     1       0.423   8.763  21.193  0.00  0.00    +0.000 A 
ATOM     11  C   UNL     1      -0.420   8.864  22.449  0.00  0.00    +0.000 C 
ATOM     12  C   UNL     1       1.133   7.538  21.068  0.00  0.00    +0.000 A 
BRANCH   9  13
ATOM     13  N   UNL     1      -0.189  10.980  20.408  0.00  0.00    +0.000 N 
ATOM     14  C   UNL     1       0.137  12.228  20.898  0.00  0.00    +0.000 C 
ATOM     15  C   UNL     1      -1.049  13.169  20.915  0.00  0.00    +0.000 C 
ATOM     16  O   UNL     1       1.219  12.650  21.282  0.00  0.00    +0.000 OA
ATOM     17  H   UNL     1      -1.151  10.925  20.114  0.00  0.00    +0.000 HD
ENDBRANCH   9  13
ENDBRANCH   3   5
BRANCH   1  18
ATOM     18  C   UNL     1       3.679   3.990  19.022  0.00  0.00    +0.000 C 
ATOM     19  C   UNL     1       3.640   3.182  17.701  0.00  0.00    +0.000 C 
ATOM     20  C   UNL     1       2.411   2.289  17.826  0.00  0.00    +0.000 C 
ATOM     21  C   UNL     1       2.217   2.055  19.320  0.00  0.00    +0.000 C 
ATOM     22  C   UNL     1       3.258   2.914  20.034  0.00  0.00    +0.000 C 
BRANCH  18  23
ATOM     23  C   UNL     1       5.108   4.532  19.258  0.00  0.00    +0.000 C 
BRANCH  23  24
ATOM     24  C   UNL     1       5.987   4.535  18.012  0.00  0.00    +0.000 C 
BRANCH  24  25
ATOM     25  O   UNL     1       6.583   5.816  17.818  0.00  0.00    +0.000 OA
BRANCH  25  27
ATOM     26  C   UNL     1       5.201   6.176  15.883  0.00  0.00    +0.000 C 
ATOM     27  C   UNL     1       5.637   6.711  17.229  0.00  0.00    +0.000 C 
ENDBRANCH  25  27
ENDBRANCH  24  25
ENDBRANCH  23  24
ENDBRANCH  18  23
ENDBRANCH   1  18
TORSDOF 7
ENDMDL
MODEL 6
REMARK VINA RESULT:      -6.8      1.247      1.712
REMARK  Name = 
REMARK  11 active torsions:
REMARK  status: ('A' for Active; 'I' for Inactive)
REMARK    1  A    between atoms: C_1  and  C_2
REMARK    2  A    between atoms: C_2  and  O_3
REMARK    3  A    between atoms: O_3  and  C_4
REMARK    4  A    between atoms: C_4  and  C_5
REMARK    5  A    between atoms: C_5  and  C_6
REMARK    6  A    between atoms: C_6  and  C_7
REMARK    7  A    between atoms: N_9  and  C_10
REMARK    8  A    between atoms: C_12  and  C_13
REMARK    9  A    between atoms: C_14  and  N_15
REMARK   10  A    between atoms: C_16  and  C_17
REMARK   11  A    between atoms: C_19  and  C_20
REMARK                            x       y       z     vdW  Elec       q    Type
REMARK                         _______ _______ _______ _____ _____    ______ ____
ROOT
ATOM      1  C   UNL     1       2.735   5.024  18.175  0.00  0.00    +0.000 C 
ATOM      2  O   UNL     1       1.609   4.926  17.683  0.00  0.00    +0.000 OA
ATOM      3  N   UNL     1       3.184   6.128  18.892  0.00  0.00    +0.000 N 
ATOM      4  H   UNL     1       4.169   6.197  19.100  0.00  0.00    +0.000 HD
ENDROOT
BRANCH   3   5
ATOM      5  C   UNL     1       2.409   7.270  19.203  0.00  0.00    +0.000 A 
ATOM      6  C   UNL     1       2.362   8.383  18.382  0.00  0.00    +0.000 A 
ATOM      7  C   UNL     1       1.668   9.569  18.721  0.00  0.00    +0.000 A 
ATOM      8  C   UNL     1       1.834  10.666  17.705  0.00  0.00    +0.000 C 
ATOM      9  C   UNL     1       0.935   9.626  19.925  0.00  0.00    +0.000 A 
ATOM     10  C   UNL     1       0.949   8.465  20.764  0.00  0.00    +0.000 A 
ATOM     11  C   UNL     1       0.254   8.344  22.105  0.00  0.00    +0.000 C 
ATOM     12  C   UNL     1       1.678   7.306  20.381  0.00  0.00    +0.000 A 
BRANCH   9  13
ATOM     13  N   UNL     1       0.182  10.740  20.388  0.00  0.00    +0.000 N 
ATOM     14  C   UNL     1       0.529  11.946  20.962  0.00  0.00    +0.000 C 
ATOM     15  C   UNL     1      -0.678  12.802  21.279  0.00  0.00    +0.000 C 
ATOM     16  O   UNL     1       1.640  12.392  21.215  0.00  0.00    +0.000 OA
ATOM     17  H   UNL     1      -0.812  10.656  20.247  0.00  0.00    +0.000 HD
ENDBRANCH   9  13
ENDBRANCH   3   5
BRANCH   1  18
ATOM     18  C   UNL     1       3.790   3.935  17.868  0.00  0.00    +0.000 C 
ATOM     19  C   UNL     1       3.069   2.576  17.687  0.00  0.00    +0.000 C 
ATOM     20  C   UNL     1       2.834   2.068  19.105  0.00  0.00    +0.000 C 
ATOM     21  C   UNL     1       3.946   2.672  19.953  0.00  0.00    +0.000 C 
ATOM     22  C   UNL     1       4.728   3.614  19.040  0.00  0.00    +0.000 C 
BRANCH  18  23
ATOM     23  C   UNL     1       4.537   4.305  16.565  0.00  0.00    +0.000 C 
BRANCH  23  24
ATOM     24  C   UNL     1       6.056   4.310  16.698  0.00  0.00    +0.000 C 
BRANCH  24  25
ATOM     25  O   UNL     1       6.673   4.035  15.442  0.00  0.00    +0.000 OA
BRANCH  25  27
ATOM     26  C   UNL     1       6.163   3.647  13.124  0.00  0.00    +0.000 C 
ATOM     27  C   UNL     1       5.802   4.416  14.375  0.00  0.00    +0.000 C 
ENDBRANCH  25  27
ENDBRANCH  24  25
ENDBRANCH  23  24
ENDBRANCH  18  23
ENDBRANCH   1  18
TORSDOF 7
ENDMDL
MODEL 7
REMARK VINA RESULT:      -6.8      1.151      2.321
REMARK  Name = 
REMARK  11 active torsions:
REMARK  status: ('A' for Active; 'I' for Inactive)
REMARK    1  A    between atoms: C_1  and  C_2
REMARK    2  A    between atoms: C_2  and  O_3
REMARK    3  A    between atoms: O_3  and  C_4
REMARK    4  A    between atoms: C_4  and  C_5
REMARK    5  A    between atoms: C_5  and  C_6
REMARK    6  A    between atoms: C_6  and  C_7
REMARK    7  A    between atoms: N_9  and  C_10
REMARK    8  A    between atoms: C_12  and  C_13
REMARK    9  A    between atoms: C_14  and  N_15
REMARK   10  A    between atoms: C_16  and  C_17
REMARK   11  A    between atoms: C_19  and  C_20
REMARK                            x       y       z     vdW  Elec       q    Type
REMARK                         _______ _______ _______ _____ _____    ______ ____
ROOT
ATOM      1  C   UNL     1       2.443   4.952  18.339  0.00  0.00    +0.000 C 
ATOM      2  O   UNL     1       1.432   5.076  17.645  0.00  0.00    +0.000 OA
ATOM      3  N   UNL     1       2.905   5.914  19.231  0.00  0.00    +0.000 N 
ATOM      4  H   UNL     1       3.830   5.803  19.619  0.00  0.00    +0.000 HD
ENDROOT
BRANCH   3   5
ATOM      5  C   UNL     1       2.266   7.146  19.507  0.00  0.00    +0.000 A 
ATOM      6  C   UNL     1       1.556   7.372  20.673  0.00  0.00    +0.000 A 
ATOM      7  C   UNL     1       0.835   8.563  20.923  0.00  0.00    +0.000 A 
ATOM      8  C   UNL     1       0.076   8.537  22.223  0.00  0.00    +0.000 C 
ATOM      9  C   UNL     1       0.870   9.610  19.978  0.00  0.00    +0.000 A 
ATOM     10  C   UNL     1       1.632   9.398  18.784  0.00  0.00    +0.000 A 
ATOM     11  C   UNL     1       1.764  10.385  17.642  0.00  0.00    +0.000 C 
ATOM     12  C   UNL     1       2.324   8.174  18.577  0.00  0.00    +0.000 A 
BRANCH   9  13
ATOM     13  N   UNL     1       0.208  10.862  20.100  0.00  0.00    +0.000 N 
ATOM     14  C   UNL     1       0.542  12.058  20.704  0.00  0.00    +0.000 C 
ATOM     15  C   UNL     1      -0.537  13.107  20.542  0.00  0.00    +0.000 C 
ATOM     16  O   UNL     1       1.563  12.362  21.305  0.00  0.00    +0.000 OA
ATOM     17  H   UNL     1      -0.681  10.909  19.627  0.00  0.00    +0.000 HD
ENDBRANCH   9  13
ENDBRANCH   3   5
BRANCH   1  18
ATOM     18  C   UNL     1       3.360   3.726  18.122  0.00  0.00    +0.000 C 
ATOM     19  C   UNL     1       2.478   2.478  17.868  0.00  0.00    +0.000 C 
ATOM     20  C   UNL     1       2.047   2.016  19.256  0.00  0.00    +0.000 C 
ATOM     21  C   UNL     1       3.151   2.467  20.206  0.00  0.00    +0.000 C 
ATOM     22  C   UNL     1       4.135   3.286  19.373  0.00  0.00    +0.000 C 
BRANCH  18  23
ATOM     23  C   UNL     1       4.266   3.980  16.895  0.00  0.00    +0.000 C 
BRANCH  23  24
ATOM     24  C   UNL     1       5.710   4.323  17.246  0.00  0.00    +0.000 C 
BRANCH  24  25
ATOM     25  O   UNL     1       6.488   4.500  16.065  0.00  0.00    +0.000 OA
BRANCH  25  27
ATOM     26  C   UNL     1       6.156   3.919  13.756  0.00  0.00    +0.000 C 
ATOM     27  C   UNL     1       5.631   4.699  14.939  0.00  0.00    +0.000 C 
ENDBRANCH  25  27
ENDBRANCH  24  25
ENDBRANCH  23  24
ENDBRANCH  18  23
ENDBRANCH   1  18
TORSDOF 7
ENDMDL
MODEL 8
REMARK VINA RESULT:      -6.8      1.524      1.757
REMARK  Name = 
REMARK  11 active torsions:
REMARK  status: ('A' for Active; 'I' for Inactive)
REMARK    1  A    between atoms: C_1  and  C_2
REMARK    2  A    between atoms: C_2  and  O_3
REMARK    3  A    between atoms: O_3  and  C_4
REMARK    4  A    between atoms: C_4  and  C_5
REMARK    5  A    between atoms: C_5  and  C_6
REMARK    6  A    between atoms: C_6  and  C_7
REMARK    7  A    between atoms: N_9  and  C_10
REMARK    8  A    between atoms: C_12  and  C_13
REMARK    9  A    between atoms: C_14  and  N_15
REMARK   10  A    between atoms: C_16  and  C_17
REMARK   11  A    between atoms: C_19  and  C_20
REMARK                            x       y       z     vdW  Elec       q    Type
REMARK                         _______ _______ _______ _____ _____    ______ ____
ROOT
ATOM      1  C   UNL     1       2.456   5.243  19.219  0.00  0.00    +0.000 C 
ATOM      2  O   UNL     1       2.086   5.506  18.072  0.00  0.00    +0.000 OA
ATOM      3  N   UNL     1       2.351   6.117  20.295  0.00  0.00    +0.000 N 
ATOM      4  H   UNL     1       2.839   5.888  21.149  0.00  0.00    +0.000 HD
ENDROOT
BRANCH   3   5
ATOM      5  C   UNL     1       1.768   7.405  20.248  0.00  0.00    +0.000 A 
ATOM      6  C   UNL     1       1.938   8.261  19.173  0.00  0.00    +0.000 A 
ATOM      7  C   UNL     1       1.441   9.585  19.150  0.00  0.00    +0.000 A 
ATOM      8  C   UNL     1       1.826  10.342  17.908  0.00  0.00    +0.000 C 
ATOM      9  C   UNL     1       0.685  10.064  20.240  0.00  0.00    +0.000 A 
ATOM     10  C   UNL     1       0.474   9.174  21.342  0.00  0.00    +0.000 A 
ATOM     11  C   UNL     1      -0.280   9.513  22.612  0.00  0.00    +0.000 C 
ATOM     12  C   UNL     1       1.011   7.857  21.319  0.00  0.00    +0.000 A 
BRANCH   9  13
ATOM     13  N   UNL     1       0.114  11.362  20.349  0.00  0.00    +0.000 N 
ATOM     14  C   UNL     1      -1.024  11.946  19.829  0.00  0.00    +0.000 C 
ATOM     15  C   UNL     1      -1.179  13.388  20.259  0.00  0.00    +0.000 C 
ATOM     16  O   UNL     1      -1.888  11.455  19.117  0.00  0.00    +0.000 OA
ATOM     17  H   UNL     1       0.623  11.989  20.953  0.00  0.00    +0.000 HD
ENDBRANCH   9  13
ENDBRANCH   3   5
BRANCH   1  18
ATOM     18  C   UNL     1       3.224   3.926  19.480  0.00  0.00    +0.000 C 
ATOM     19  C   UNL     1       2.902   2.924  18.344  0.00  0.00    +0.000 C 
ATOM     20  C   UNL     1       1.558   2.316  18.730  0.00  0.00    +0.000 C 
ATOM     21  C   UNL     1       1.490   2.386  20.251  0.00  0.00    +0.000 C 
ATOM     22  C   UNL     1       2.736   3.143  20.708  0.00  0.00    +0.000 C 
BRANCH  18  23
ATOM     23  C   UNL     1       4.742   4.219  19.500  0.00  0.00    +0.000 C 
BRANCH  23  24
ATOM     24  C   UNL     1       5.364   4.382  18.118  0.00  0.00    +0.000 C 
BRANCH  24  25
ATOM     25  O   UNL     1       6.787   4.414  18.205  0.00  0.00    +0.000 OA
BRANCH  25  27
ATOM     26  C   UNL     1       6.332   4.147  15.858  0.00  0.00    +0.000 C 
ATOM     27  C   UNL     1       7.354   4.546  16.899  0.00  0.00    +0.000 C 
ENDBRANCH  25  27
ENDBRANCH  24  25
ENDBRANCH  23  24
ENDBRANCH  18  23
ENDBRANCH   1  18
TORSDOF 7
ENDMDL
MODEL 9
REMARK VINA RESULT:      -6.7      0.969      2.046
REMARK  Name = 
REMARK  11 active torsions:
REMARK  status: ('A' for Active; 'I' for Inactive)
REMARK    1  A    between atoms: C_1  and  C_2
REMARK    2  A    between atoms: C_2  and  O_3
REMARK    3  A    between atoms: O_3  and  C_4
REMARK    4  A    between atoms: C_4  and  C_5
REMARK    5  A    between atoms: C_5  and  C_6
REMARK    6  A    between atoms: C_6  and  C_7
REMARK    7  A    between atoms: N_9  and  C_10
REMARK    8  A    between atoms: C_12  and  C_13
REMARK    9  A    between atoms: C_14  and  N_15
REMARK   10  A    between atoms: C_16  and  C_17
REMARK   11  A    between atoms: C_19  and  C_20
REMARK                            x       y       z     vdW  Elec       q    Type
REMARK                         _______ _______ _______ _____ _____    ______ ____
ROOT
ATOM      1  C   UNL     1       2.415   5.141  19.080  0.00  0.00    +0.000 C 
ATOM      2  O   UNL     1       2.064   5.490  17.950  0.00  0.00    +0.000 OA
ATOM      3  N   UNL     1       2.357   5.955  20.206  0.00  0.00    +0.000 N 
ATOM      4  H   UNL     1       2.830   5.650  21.044  0.00  0.00    +0.000 HD
ENDROOT
BRANCH   3   5
ATOM      5  C   UNL     1       1.848   7.275  20.234  0.00  0.00    +0.000 A 
ATOM      6  C   UNL     1       1.097   7.761  21.291  0.00  0.00    +0.000 A 
ATOM      7  C   UNL     1       0.503   9.045  21.295  0.00  0.00    +0.000 A 
ATOM      8  C   UNL     1      -0.331   9.310  22.519  0.00  0.00    +0.000 C 
ATOM      9  C   UNL     1       0.715   9.913  20.203  0.00  0.00    +0.000 A 
ATOM     10  C   UNL     1       1.519   9.431  19.121  0.00  0.00    +0.000 A 
ATOM     11  C   UNL     1       1.833  10.198  17.852  0.00  0.00    +0.000 C 
ATOM     12  C   UNL     1       2.079   8.125  19.163  0.00  0.00    +0.000 A 
BRANCH   9  13
ATOM     13  N   UNL     1       0.194  11.230  20.076  0.00  0.00    +0.000 N 
ATOM     14  C   UNL     1       0.578  12.456  20.581  0.00  0.00    +0.000 C 
ATOM     15  C   UNL     1      -0.337  13.575  20.134  0.00  0.00    +0.000 C 
ATOM     16  O   UNL     1       1.532  12.734  21.294  0.00  0.00    +0.000 OA
ATOM     17  H   UNL     1      -0.607  11.301  19.469  0.00  0.00    +0.000 HD
ENDBRANCH   9  13
ENDBRANCH   3   5
BRANCH   1  18
ATOM     18  C   UNL     1       3.108   3.771  19.263  0.00  0.00    +0.000 C 
ATOM     19  C   UNL     1       2.324   2.702  18.462  0.00  0.00    +0.000 C 
ATOM     20  C   UNL     1       1.151   2.324  19.359  0.00  0.00    +0.000 C 
ATOM     21  C   UNL     1       1.624   2.569  20.788  0.00  0.00    +0.000 C 
ATOM     22  C   UNL     1       3.012   3.198  20.685  0.00  0.00    +0.000 C 
BRANCH  18  23
ATOM     23  C   UNL     1       4.558   3.859  18.732  0.00  0.00    +0.000 C 
BRANCH  23  24
ATOM     24  C   UNL     1       5.306   5.114  19.170  0.00  0.00    +0.000 C 
BRANCH  24  25
ATOM     25  O   UNL     1       5.720   5.875  18.037  0.00  0.00    +0.000 OA
BRANCH  25  27
ATOM     26  C   UNL     1       7.653   7.286  17.801  0.00  0.00    +0.000 C 
ATOM     27  C   UNL     1       7.146   5.868  17.938  0.00  0.00    +0.000 C 
ENDBRANCH  25  27
ENDBRANCH  24  25
ENDBRANCH  23  24
ENDBRANCH  18  23
ENDBRANCH   1  18
TORSDOF 7
ENDMDL
