MODEL 1
REMARK VINA RESULT:      -7.5      0.000      0.000
REMARK  Name = 
REMARK  6 active torsions:
REMARK  status: ('A' for Active; 'I' for Inactive)
REMARK    1  A    between atoms: C_1  and  C_2
REMARK    2  A    between atoms: N_4  and  C_5
REMARK    3  A    between atoms: C_8  and  S_9
REMARK    4  A    between atoms: S_9  and  C_12
REMARK    5  A    between atoms: C_15  and  N_16
REMARK    6  A    between atoms: C_17  and  C_18
REMARK                            x       y       z     vdW  Elec       q    Type
REMARK                         _______ _______ _______ _____ _____    ______ ____
ROOT
ATOM      1  S   UNL     1       3.261   5.448  19.010  0.00  0.00    +0.000 S 
ATOM      2  O   UNL     1       4.229   5.465  20.093  0.00  0.00    +0.000 OA
ATOM      3  O   UNL     1       2.186   4.473  18.999  0.00  0.00    +0.000 OA
ENDROOT
BRANCH   1   7
ATOM      4  C   UNL     1       1.228   9.561  18.950  0.00  0.00    +0.000 A 
ATOM      5  C   UNL     1       1.292   8.806  20.125  0.00  0.00    +0.000 A 
ATOM      6  C   UNL     1       1.918   7.555  20.141  0.00  0.00    +0.000 A 
ATOM      7  C   UNL     1       2.500   7.059  18.979  0.00  0.00    +0.000 A 
ATOM      8  C   UNL     1       2.430   7.789  17.788  0.00  0.00    +0.000 A 
ATOM      9  C   UNL     1       1.789   9.036  17.777  0.00  0.00    +0.000 A 
BRANCH   4  13
ATOM     10  C   UNL     1      -1.112  12.492  18.511  0.00  0.00    +0.000 C 
ATOM     11  C   UNL     1      -0.762  11.036  18.669  0.00  0.00    +0.000 C 
ATOM     12  O   UNL     1      -1.638  10.181  18.605  0.00  0.00    +0.000 OA
ATOM     13  N   UNL     1       0.590  10.819  18.883  0.00  0.00    +0.000 N 
ATOM     14  H   UNL     1       1.161  11.635  19.072  0.00  0.00    +0.000 HD
ENDBRANCH   4  13
ENDBRANCH   1   7
BRANCH   1  15
ATOM     15  C   UNL     1       4.188   5.182  17.518  0.00  0.00    +0.000 A 
ATOM     16  C   UNL     1       4.676   6.245  16.766  0.00  0.00    +0.000 A 
ATOM     17  C   UNL     1       5.424   5.988  15.612  0.00  0.00    +0.000 A 
ATOM     18  C   UNL     1       5.692   4.679  15.198  0.00  0.00    +0.000 A 
ATOM     19  C   UNL     1       5.178   3.617  15.957  0.00  0.00    +0.000 A 
ATOM     20  C   UNL     1       4.431   3.865  17.115  0.00  0.00    +0.000 A 
BRANCH  18  21
ATOM     21  N   UNL     1       6.473   4.366  14.061  0.00  0.00    +0.000 N 
ATOM     22  C   UNL     1       6.014   3.862  12.855  0.00  0.00    +0.000 C 
ATOM     23  C   UNL     1       7.099   3.690  11.823  0.00  0.00    +0.000 C 
ATOM     24  O   UNL     1       4.860   3.543  12.584  0.00  0.00    +0.000 OA
ATOM     25  H   UNL     1       7.466   4.549  14.137  0.00  0.00    +0.000 HD
ENDBRANCH  18  21
ENDBRANCH   1  15
TORSDOF 4
ENDMDL
MODEL 2
REMARK VINA RESULT:      -7.4      3.544      9.252
REMARK  Name = 
REMARK  6 active torsions:
REMARK  status: ('A' for Active; 'I' for Inactive)
REMARK    1  A    between atoms: C_1  and  C_2
REMARK    2  A    between atoms: N_4  and  C_5
REMARK    3  A    between atoms: C_8  and  S_9
REMARK    4  A    between atoms: S_9  and  C_12
REMARK    5  A    between atoms: C_15  and  N_16
REMARK    6  A    between atoms: C_17  and  C_18
REMARK                            x       y       z     vdW  Elec       q    Type
REMARK                         _______ _______ _______ _____ _____    ______ ____
ROOT
ATOM      1  S   UNL     1       0.615  10.605  20.454  0.00  0.00    +0.000 S 
ATOM      2  O   UNL     1       0.267  10.311  21.833  0.00  0.00    +0.000 OA
ATOM      3  O   UNL     1       1.534  11.684  20.140  0.00  0.00    +0.000 OA
ENDROOT
BRANCH   1   7
ATOM      4  C   UNL     1       2.485   6.773  18.757  0.00  0.00    +0.000 A 
ATOM      5  C   UNL     1       2.081   6.848  20.093  0.00  0.00    +0.000 A 
ATOM      6  C   UNL     1       1.506   8.015  20.606  0.00  0.00    +0.000 A 
ATOM      7  C   UNL     1       1.316   9.115  19.773  0.00  0.00    +0.000 A 
ATOM      8  C   UNL     1       1.731   9.069  18.439  0.00  0.00    +0.000 A 
ATOM      9  C   UNL     1       2.319   7.899  17.936  0.00  0.00    +0.000 A 
BRANCH   4  13
ATOM     10  C   UNL     1       3.339   3.407  17.274  0.00  0.00    +0.000 C 
ATOM     11  C   UNL     1       2.420   4.537  17.657  0.00  0.00    +0.000 C 
ATOM     12  O   UNL     1       1.212   4.438  17.476  0.00  0.00    +0.000 OA
ATOM     13  N   UNL     1       3.087   5.623  18.202  0.00  0.00    +0.000 N 
ATOM     14  H   UNL     1       4.099   5.621  18.136  0.00  0.00    +0.000 HD
ENDBRANCH   4  13
ENDBRANCH   1   7
BRANCH   1  15
ATOM     15  C   UNL     1      -0.908  10.994  19.628  0.00  0.00    +0.000 A 
ATOM     16  C   UNL     1      -1.340  10.274  18.520  0.00  0.00    +0.000 A 
ATOM     17  C   UNL     1      -2.560  10.599  17.917  0.00  0.00    +0.000 A 
ATOM     18  C   UNL     1      -3.358  11.638  18.409  0.00  0.00    +0.000 A 
ATOM     19  C   UNL     1      -2.901  12.368  19.517  0.00  0.00    +0.000 A 
ATOM     20  C   UNL     1      -1.682  12.047  20.128  0.00  0.00    +0.000 A 
BRANCH  18  21
ATOM     21  N   UNL     1      -4.615  11.981  17.860  0.00  0.00    +0.000 N 
ATOM     22  C   UNL     1      -5.858  11.742  18.423  0.00  0.00    +0.000 C 
ATOM     23  C   UNL     1      -7.003  12.285  17.607  0.00  0.00    +0.000 C 
ATOM     24  O   UNL     1      -6.087  11.138  19.466  0.00  0.00    +0.000 OA
ATOM     25  H   UNL     1      -4.596  12.469  16.973  0.00  0.00    +0.000 HD
ENDBRANCH  18  21
ENDBRANCH   1  15
TORSDOF 4
ENDMDL
MODEL 3
REMARK VINA RESULT:      -7.3      3.511      9.121
REMARK  Name = 
REMARK  6 active torsions:
REMARK  status: ('A' for Active; 'I' for Inactive)
REMARK    1  A    between atoms: C_1  and  C_2
REMARK    2  A    between atoms: N_4  and  C_5
REMARK    3  A    between atoms: C_8  and  S_9
REMARK    4  A    between atoms: S_9  and  C_12
REMARK    5  A    between atoms: C_15  and  N_16
REMARK    6  A    between atoms: C_17  and  C_18
REMARK                            x       y       z     vdW  Elec       q    Type
REMARK                         _______ _______ _______ _____ _____    ______ ____
ROOT
ATOM      1  S   UNL     1       0.479  10.079  21.036  0.00  0.00    +0.000 S 
ATOM      2  O   UNL     1      -0.155   9.538  22.226  0.00  0.00    +0.000 OA
ATOM      3  O   UNL     1       1.451  11.151  21.143  0.00  0.00    +0.000 OA
ENDROOT
BRANCH   1   7
ATOM      4  C   UNL     1       2.523   6.573  18.895  0.00  0.00    +0.000 A 
ATOM      5  C   UNL     1       2.373   7.812  18.266  0.00  0.00    +0.000 A 
ATOM      6  C   UNL     1       1.754   8.881  18.924  0.00  0.00    +0.000 A 
ATOM      7  C   UNL     1       1.296   8.717  20.228  0.00  0.00    +0.000 A 
ATOM      8  C   UNL     1       1.419   7.480  20.869  0.00  0.00    +0.000 A 
ATOM      9  C   UNL     1       2.028   6.410  20.197  0.00  0.00    +0.000 A 
BRANCH   4  13
ATOM     10  C   UNL     1       3.372   3.305  17.203  0.00  0.00    +0.000 C 
ATOM     11  C   UNL     1       2.453   4.403  17.668  0.00  0.00    +0.000 C 
ATOM     12  O   UNL     1       1.242   4.306  17.502  0.00  0.00    +0.000 OA
ATOM     13  N   UNL     1       3.123   5.461  18.263  0.00  0.00    +0.000 N 
ATOM     14  H   UNL     1       4.133   5.470  18.180  0.00  0.00    +0.000 HD
ENDBRANCH   4  13
ENDBRANCH   1   7
BRANCH   1  15
ATOM     15  C   UNL     1      -0.833  10.698  20.011  0.00  0.00    +0.000 A 
ATOM     16  C   UNL     1      -1.197  10.059  18.830  0.00  0.00    +0.000 A 
ATOM     17  C   UNL     1      -2.254  10.568  18.068  0.00  0.00    +0.000 A 
ATOM     18  C   UNL     1      -2.955  11.709  18.471  0.00  0.00    +0.000 A 
ATOM     19  C   UNL     1      -2.565  12.354  19.654  0.00  0.00    +0.000 A 
ATOM     20  C   UNL     1      -1.510  11.850  20.425  0.00  0.00    +0.000 A 
BRANCH  18  21
ATOM     21  N   UNL     1      -4.053  12.241  17.756  0.00  0.00    +0.000 N 
ATOM     22  C   UNL     1      -5.389  11.917  17.929  0.00  0.00    +0.000 C 
ATOM     23  C   UNL     1      -6.319  12.707  17.045  0.00  0.00    +0.000 C 
ATOM     24  O   UNL     1      -5.846  11.069  18.690  0.00  0.00    +0.000 OA
ATOM     25  H   UNL     1      -3.835  12.944  17.061  0.00  0.00    +0.000 HD
ENDBRANCH  18  21
ENDBRANCH   1  15
TORSDOF 4
ENDMDL
MODEL 4
REMARK VINA RESULT:      -7.3      0.336      1.059
REMARK  Name = 
REMARK  6 active torsions:
REMARK  status: ('A' for Active; 'I' for Inactive)
REMARK    1  A    between atoms: C_1  and  C_2
REMARK    2  A    between atoms: N_4  and  C_5
REMARK    3  A    between atoms: C_8  and  S_9
REMARK    4  A    between atoms: S_9  and  C_12
REMARK    5  A    between atoms: C_15  and  N_16
REMARK    6  A    between atoms: C_17  and  C_18
REMARK                            x       y       z     vdW  Elec       q    Type
REMARK                         _______ _______ _______ _____ _____    ______ ____
ROOT
ATOM      1  S   UNL     1       2.930   5.393  18.959  0.00  0.00    +0.000 S 
ATOM      2  O   UNL     1       3.730   5.246  20.162  0.00  0.00    +0.000 OA
ATOM      3  O   UNL     1       1.787   4.531  18.724  0.00  0.00    +0.000 OA
ENDROOT
BRANCH   1   7
ATOM      4  C   UNL     1       1.296   9.681  18.960  0.00  0.00    +0.000 A 
ATOM      5  C   UNL     1       1.353   8.931  20.139  0.00  0.00    +0.000 A 
ATOM      6  C   UNL     1       1.857   7.627  20.136  0.00  0.00    +0.000 A 
ATOM      7  C   UNL     1       2.325   7.070  18.949  0.00  0.00    +0.000 A 
ATOM      8  C   UNL     1       2.258   7.795  17.755  0.00  0.00    +0.000 A 
ATOM      9  C   UNL     1       1.738   9.097  17.764  0.00  0.00    +0.000 A 
BRANCH   4  13
ATOM     10  C   UNL     1      -0.766  12.822  18.575  0.00  0.00    +0.000 C 
ATOM     11  C   UNL     1      -0.551  11.338  18.713  0.00  0.00    +0.000 C 
ATOM     12  O   UNL     1      -1.503  10.568  18.647  0.00  0.00    +0.000 OA
ATOM     13  N   UNL     1       0.776  10.994  18.912  0.00  0.00    +0.000 N 
ATOM     14  H   UNL     1       1.423  11.750  19.106  0.00  0.00    +0.000 HD
ENDBRANCH   4  13
ENDBRANCH   1   7
BRANCH   1  15
ATOM     15  C   UNL     1       4.035   5.137  17.592  0.00  0.00    +0.000 A 
ATOM     16  C   UNL     1       4.328   3.861  17.122  0.00  0.00    +0.000 A 
ATOM     17  C   UNL     1       5.183   3.709  16.025  0.00  0.00    +0.000 A 
ATOM     18  C   UNL     1       5.753   4.818  15.390  0.00  0.00    +0.000 A 
ATOM     19  C   UNL     1       5.464   6.097  15.887  0.00  0.00    +0.000 A 
ATOM     20  C   UNL     1       4.606   6.259  16.982  0.00  0.00    +0.000 A 
BRANCH  18  21
ATOM     21  N   UNL     1       6.593   4.719  14.257  0.00  0.00    +0.000 N 
ATOM     22  C   UNL     1       6.287   4.114  13.049  0.00  0.00    +0.000 C 
ATOM     23  C   UNL     1       7.384   4.231  12.022  0.00  0.00    +0.000 C 
ATOM     24  O   UNL     1       5.257   3.506  12.773  0.00  0.00    +0.000 OA
ATOM     25  H   UNL     1       7.504   5.154  14.338  0.00  0.00    +0.000 HD
ENDBRANCH  18  21
ENDBRANCH   1  15
TORSDOF 4
ENDMDL
MODEL 5
REMARK VINA RESULT:      -7.3      0.265      8.052
REMARK  Name = 
REMARK  6 active torsions:
REMARK  status: ('A' for Active; 'I' for Inactive)
REMARK    1  A    between atoms: C_1  and  C_2
REMARK    2  A    between atoms: N_4  and  C_5
REMARK    3  A    between atoms: C_8  and  S_9
REMARK    4  A    between atoms: S_9  and  C_12
REMARK    5  A    between atoms: C_15  and  N_16
REMARK    6  A    between atoms: C_17  and  C_18
REMARK                            x       y       z     vdW  Elec       q    Type
REMARK                         _______ _______ _______ _____ _____    ______ ____
ROOT
ATOM      1  S   UNL     1       2.945   5.432  18.933  0.00  0.00    +0.000 S 
ATOM      2  O   UNL     1       1.801   4.553  18.760  0.00  0.00    +0.000 OA
ATOM      3  O   UNL     1       3.777   5.333  20.118  0.00  0.00    +0.000 OA
ENDROOT
BRANCH   1   7
ATOM      4  C   UNL     1       5.637   4.796  15.271  0.00  0.00    +0.000 A 
ATOM      5  C   UNL     1       5.421   6.075  15.794  0.00  0.00    +0.000 A 
ATOM      6  C   UNL     1       4.605   6.265  16.913  0.00  0.00    +0.000 A 
ATOM      7  C   UNL     1       4.011   5.166  17.529  0.00  0.00    +0.000 A 
ATOM      8  C   UNL     1       4.197   3.881  17.011  0.00  0.00    +0.000 A 
ATOM      9  C   UNL     1       5.006   3.701  15.879  0.00  0.00    +0.000 A 
BRANCH   4  13
ATOM     10  C   UNL     1       7.143   3.721  11.979  0.00  0.00    +0.000 C 
ATOM     11  C   UNL     1       6.021   3.954  12.956  0.00  0.00    +0.000 C 
ATOM     12  O   UNL     1       4.876   3.616  12.674  0.00  0.00    +0.000 OA
ATOM     13  N   UNL     1       6.436   4.560  14.131  0.00  0.00    +0.000 N 
ATOM     14  H   UNL     1       7.382   4.925  14.150  0.00  0.00    +0.000 HD
ENDBRANCH   4  13
ENDBRANCH   1   7
BRANCH   1  15
ATOM     15  C   UNL     1       2.308   7.089  18.910  0.00  0.00    +0.000 A 
ATOM     16  C   UNL     1       2.257   7.833  17.736  0.00  0.00    +0.000 A 
ATOM     17  C   UNL     1       1.722   9.125  17.760  0.00  0.00    +0.000 A 
ATOM     18  C   UNL     1       1.235   9.687  18.946  0.00  0.00    +0.000 A 
ATOM     19  C   UNL     1       1.310   8.932  20.126  0.00  0.00    +0.000 A 
ATOM     20  C   UNL     1       1.841   7.636  20.110  0.00  0.00    +0.000 A 
BRANCH  18  21
ATOM     21  N   UNL     1       0.652  10.973  19.016  0.00  0.00    +0.000 N 
ATOM     22  C   UNL     1      -0.680  11.291  18.805  0.00  0.00    +0.000 C 
ATOM     23  C   UNL     1      -0.990  12.751  19.012  0.00  0.00    +0.000 C 
ATOM     24  O   UNL     1      -1.573  10.522  18.462  0.00  0.00    +0.000 OA
ATOM     25  H   UNL     1       1.274  11.732  19.264  0.00  0.00    +0.000 HD
ENDBRANCH  18  21
ENDBRANCH   1  15
TORSDOF 4
ENDMDL
MODEL 6
REMARK VINA RESULT:      -7.3      0.204      7.970
REMARK  Name = 
REMARK  6 active torsions:
REMARK  status: ('A' for Active; 'I' for Inactive)
REMARK    1  A    between atoms: C_1  and  C_2
REMARK    2  A    between atoms: N_4  and  C_5
REMARK    3  A    between atoms: C_8  and  S_9
REMARK    4  A    between atoms: S_9  and  C_12
REMARK    5  A    between atoms: C_15  and  N_16
REMARK    6  A    between atoms: C_17  and  C_18
REMARK                            x       y       z     vdW  Elec       q    Type
REMARK                         _______ _______ _______ _____ _____    ______ ____
ROOT
ATOM      1  S   UNL     1       3.385   5.297  19.091  0.00  0.00    +0.000 S 
ATOM      2  O   UNL     1       2.352   4.277  19.131  0.00  0.00    +0.000 OA
ATOM      3  O   UNL     1       4.376   5.385  20.149  0.00  0.00    +0.000 OA
ENDROOT
BRANCH   1   7
ATOM      4  C   UNL     1       5.738   4.649  15.205  0.00  0.00    +0.000 A 
ATOM      5  C   UNL     1       5.213   3.568  15.919  0.00  0.00    +0.000 A 
ATOM      6  C   UNL     1       4.492   3.769  17.100  0.00  0.00    +0.000 A 
ATOM      7  C   UNL     1       4.276   5.063  17.565  0.00  0.00    +0.000 A 
ATOM      8  C   UNL     1       4.809   6.158  16.878  0.00  0.00    +0.000 A 
ATOM      9  C   UNL     1       5.543   5.947  15.702  0.00  0.00    +0.000 A 
BRANCH   4  13
ATOM     10  C   UNL     1       7.131   3.754  11.811  0.00  0.00    +0.000 C 
ATOM     11  C   UNL     1       6.050   3.891  12.850  0.00  0.00    +0.000 C 
ATOM     12  O   UNL     1       4.915   3.489  12.618  0.00  0.00    +0.000 OA
ATOM     13  N   UNL     1       6.489   4.492  14.019  0.00  0.00    +0.000 N 
ATOM     14  H   UNL     1       7.410   4.916  14.000  0.00  0.00    +0.000 HD
ENDBRANCH   4  13
ENDBRANCH   1   7
BRANCH   1  15
ATOM     15  C   UNL     1       2.541   6.860  19.070  0.00  0.00    +0.000 A 
ATOM     16  C   UNL     1       1.990   7.405  20.224  0.00  0.00    +0.000 A 
ATOM     17  C   UNL     1       1.357   8.651  20.165  0.00  0.00    +0.000 A 
ATOM     18  C   UNL     1       1.267   9.362  18.964  0.00  0.00    +0.000 A 
ATOM     19  C   UNL     1       1.810   8.792  17.804  0.00  0.00    +0.000 A 
ATOM     20  C   UNL     1       2.449   7.546  17.855  0.00  0.00    +0.000 A 
BRANCH  18  21
ATOM     21  N   UNL     1       0.670  10.640  18.859  0.00  0.00    +0.000 N 
ATOM     22  C   UNL     1      -0.637  10.917  18.492  0.00  0.00    +0.000 C 
ATOM     23  C   UNL     1      -0.976  12.384  18.533  0.00  0.00    +0.000 C 
ATOM     24  O   UNL     1      -1.487  10.105  18.139  0.00  0.00    +0.000 OA
ATOM     25  H   UNL     1       1.260  11.429  19.094  0.00  0.00    +0.000 HD
ENDBRANCH  18  21
ENDBRANCH   1  15
TORSDOF 4
ENDMDL
MODEL 7
REMARK VINA RESULT:      -7.2      3.684      9.185
REMARK  Name = 
REMARK  6 active torsions:
REMARK  status: ('A' for Active; 'I' for Inactive)
REMARK    1  A    between atoms: C_1  and  C_2
REMARK    2  A    between atoms: N_4  and  C_5
REMARK    3  A    between atoms: C_8  and  S_9
REMARK    4  A    between atoms: S_9  and  C_12
REMARK    5  A    between atoms: C_15  and  N_16
REMARK    6  A    between atoms: C_17  and  C_18
REMARK                            x       y       z     vdW  Elec       q    Type
REMARK                         _______ _______ _______ _____ _____    ______ ____
ROOT
ATOM      1  S   UNL     1       1.081  10.911  19.692  0.00  0.00    +0.000 S 
ATOM      2  O   UNL     1       1.137  11.022  21.139  0.00  0.00    +0.000 OA
ATOM      3  O   UNL     1       1.842  11.819  18.853  0.00  0.00    +0.000 OA
ENDROOT
BRANCH   1   7
ATOM      4  C   UNL     1       2.517   6.666  18.703  0.00  0.00    +0.000 A 
ATOM      5  C   UNL     1       2.021   6.982  19.972  0.00  0.00    +0.000 A 
ATOM      6  C   UNL     1       1.579   8.275  20.268  0.00  0.00    +0.000 A 
ATOM      7  C   UNL     1       1.615   9.260  19.285  0.00  0.00    +0.000 A 
ATOM      8  C   UNL     1       2.126   8.971  18.015  0.00  0.00    +0.000 A 
ATOM      9  C   UNL     1       2.581   7.675  17.731  0.00  0.00    +0.000 A 
BRANCH   4  13
ATOM     10  C   UNL     1       3.005   3.068  17.668  0.00  0.00    +0.000 C 
ATOM     11  C   UNL     1       2.253   4.368  17.774  0.00  0.00    +0.000 C 
ATOM     12  O   UNL     1       1.103   4.452  17.356  0.00  0.00    +0.000 OA
ATOM     13  N   UNL     1       2.992   5.380  18.366  0.00  0.00    +0.000 N 
ATOM     14  H   UNL     1       3.980   5.203  18.510  0.00  0.00    +0.000 HD
ENDBRANCH   4  13
ENDBRANCH   1   7
BRANCH   1  15
ATOM     15  C   UNL     1      -0.623  11.129  19.241  0.00  0.00    +0.000 A 
ATOM     16  C   UNL     1      -1.405  12.127  19.811  0.00  0.00    +0.000 A 
ATOM     17  C   UNL     1      -2.735  12.278  19.406  0.00  0.00    +0.000 A 
ATOM     18  C   UNL     1      -3.297  11.442  18.436  0.00  0.00    +0.000 A 
ATOM     19  C   UNL     1      -2.503  10.427  17.883  0.00  0.00    +0.000 A 
ATOM     20  C   UNL     1      -1.169  10.271  18.280  0.00  0.00    +0.000 A 
BRANCH  18  21
ATOM     21  N   UNL     1      -4.624  11.577  17.966  0.00  0.00    +0.000 N 
ATOM     22  C   UNL     1      -5.767  11.711  18.738  0.00  0.00    +0.000 C 
ATOM     23  C   UNL     1      -7.024  11.891  17.928  0.00  0.00    +0.000 C 
ATOM     24  O   UNL     1      -5.832  11.678  19.964  0.00  0.00    +0.000 OA
ATOM     25  H   UNL     1      -4.743  11.594  16.961  0.00  0.00    +0.000 HD
ENDBRANCH  18  21
ENDBRANCH   1  15
TORSDOF 4
ENDMDL
MODEL 8
REMARK VINA RESULT:      -7.2      2.202      2.773
REMARK  Name = 
REMARK  6 active torsions:
REMARK  status: ('A' for Active; 'I' for Inactive)
REMARK    1  A    between atoms: C_1  and  C_2
REMARK    2  A    between atoms: N_4  and  C_5
REMARK    3  A    between atoms: C_8  and  S_9
REMARK    4  A    between atoms: S_9  and  C_12
REMARK    5  A    between atoms: C_15  and  N_16
REMARK    6  A    between atoms: C_17  and  C_18
REMARK                            x       y       z     vdW  Elec       q    Type
REMARK                         _______ _______ _______ _____ _____    ______ ____
ROOT
ATOM      1  S   UNL     1       4.083   3.364  18.710  0.00  0.00    +0.000 S 
ATOM      2  O   UNL     1       4.947   2.858  19.762  0.00  0.00    +0.000 OA
ATOM      3  O   UNL     1       3.163   2.477  18.021  0.00  0.00    +0.000 OA
ENDROOT
BRANCH   1   7
ATOM      4  C   UNL     1       1.631   6.750  20.603  0.00  0.00    +0.000 A 
ATOM      5  C   UNL     1       2.562   7.012  19.592  0.00  0.00    +0.000 A 
ATOM      6  C   UNL     1       3.303   5.977  19.013  0.00  0.00    +0.000 A 
ATOM      7  C   UNL     1       3.103   4.665  19.434  0.00  0.00    +0.000 A 
ATOM      8  C   UNL     1       2.192   4.383  20.457  0.00  0.00    +0.000 A 
ATOM      9  C   UNL     1       1.463   5.428  21.042  0.00  0.00    +0.000 A 
BRANCH   4  13
ATOM     10  C   UNL     1      -0.104   9.927  21.678  0.00  0.00    +0.000 C 
ATOM     11  C   UNL     1       0.613   9.023  20.710  0.00  0.00    +0.000 C 
ATOM     12  O   UNL     1       0.905   9.426  19.590  0.00  0.00    +0.000 OA
ATOM     13  N   UNL     1       0.875   7.765  21.229  0.00  0.00    +0.000 N 
ATOM     14  H   UNL     1       0.430   7.529  22.109  0.00  0.00    +0.000 HD
ENDBRANCH   4  13
ENDBRANCH   1   7
BRANCH   1  15
ATOM     15  C   UNL     1       5.157   4.032  17.462  0.00  0.00    +0.000 A 
ATOM     16  C   UNL     1       6.461   4.415  17.754  0.00  0.00    +0.000 A 
ATOM     17  C   UNL     1       7.279   4.912  16.733  0.00  0.00    +0.000 A 
ATOM     18  C   UNL     1       6.810   5.032  15.421  0.00  0.00    +0.000 A 
ATOM     19  C   UNL     1       5.486   4.659  15.145  0.00  0.00    +0.000 A 
ATOM     20  C   UNL     1       4.661   4.158  16.160  0.00  0.00    +0.000 A 
BRANCH  18  21
ATOM     21  N   UNL     1       7.607   5.493  14.348  0.00  0.00    +0.000 N 
ATOM     22  C   UNL     1       7.551   5.066  13.031  0.00  0.00    +0.000 C 
ATOM     23  C   UNL     1       8.500   5.799  12.119  0.00  0.00    +0.000 C 
ATOM     24  O   UNL     1       6.841   4.172  12.579  0.00  0.00    +0.000 OA
ATOM     25  H   UNL     1       8.273   6.223  14.568  0.00  0.00    +0.000 HD
ENDBRANCH  18  21
ENDBRANCH   1  15
TORSDOF 4
ENDMDL
MODEL 9
REMARK VINA RESULT:      -7.2      1.235      1.593
REMARK  Name = 
REMARK  6 active torsions:
REMARK  status: ('A' for Active; 'I' for Inactive)
REMARK    1  A    between atoms: C_1  and  C_2
REMARK    2  A    between atoms: N_4  and  C_5
REMARK    3  A    between atoms: C_8  and  S_9
REMARK    4  A    between atoms: S_9  and  C_12
REMARK    5  A    between atoms: C_15  and  N_16
REMARK    6  A    between atoms: C_17  and  C_18
REMARK                            x       y       z     vdW  Elec       q    Type
REMARK                         _______ _______ _______ _____ _____    ______ ____
ROOT
ATOM      1  S   UNL     1       2.907   5.506  18.972  0.00  0.00    +0.000 S 
ATOM      2  O   UNL     1       3.790   5.421  20.122  0.00  0.00    +0.000 OA
ATOM      3  O   UNL     1       1.791   4.589  18.831  0.00  0.00    +0.000 OA
ENDROOT
BRANCH   1   7
ATOM      4  C   UNL     1       1.233   9.778  18.939  0.00  0.00    +0.000 A 
ATOM      5  C   UNL     1       1.675   9.168  17.761  0.00  0.00    +0.000 A 
ATOM      6  C   UNL     1       2.179   7.864  17.773  0.00  0.00    +0.000 A 
ATOM      7  C   UNL     1       2.228   7.153  18.970  0.00  0.00    +0.000 A 
ATOM      8  C   UNL     1       1.810   7.751  20.163  0.00  0.00    +0.000 A 
ATOM      9  C   UNL     1       1.318   9.065  20.143  0.00  0.00    +0.000 A 
BRANCH   4  13
ATOM     10  C   UNL     1       0.681  13.514  18.963  0.00  0.00    +0.000 C 
ATOM     11  C   UNL     1       1.457  12.250  18.701  0.00  0.00    +0.000 C 
ATOM     12  O   UNL     1       2.608  12.307  18.284  0.00  0.00    +0.000 OA
ATOM     13  N   UNL     1       0.735  11.099  18.976  0.00  0.00    +0.000 N 
ATOM     14  H   UNL     1      -0.256  11.211  19.157  0.00  0.00    +0.000 HD
ENDBRANCH   4  13
ENDBRANCH   1   7
BRANCH   1  15
ATOM     15  C   UNL     1       3.930   5.266  17.540  0.00  0.00    +0.000 A 
ATOM     16  C   UNL     1       4.596   6.327  16.935  0.00  0.00    +0.000 A 
ATOM     17  C   UNL     1       5.412   6.087  15.824  0.00  0.00    +0.000 A 
ATOM     18  C   UNL     1       5.573   4.797  15.309  0.00  0.00    +0.000 A 
ATOM     19  C   UNL     1       4.882   3.739  15.917  0.00  0.00    +0.000 A 
ATOM     20  C   UNL     1       4.065   3.970  17.031  0.00  0.00    +0.000 A 
BRANCH  18  21
ATOM     21  N   UNL     1       6.415   4.497  14.213  0.00  0.00    +0.000 N 
ATOM     22  C   UNL     1       6.028   3.964  12.993  0.00  0.00    +0.000 C 
ATOM     23  C   UNL     1       7.164   3.816  12.014  0.00  0.00    +0.000 C 
ATOM     24  O   UNL     1       4.898   3.606  12.674  0.00  0.00    +0.000 OA
ATOM     25  H   UNL     1       7.397   4.712  14.331  0.00  0.00    +0.000 HD
ENDBRANCH  18  21
ENDBRANCH   1  15
TORSDOF 4
ENDMDL
