MODEL 1
REMARK VINA RESULT:      -8.1      0.000      0.000
REMARK  Name = 
REMARK  6 active torsions:
REMARK  status: ('A' for Active; 'I' for Inactive)
REMARK    1  A    between atoms: C_1  and  C_2
REMARK    2  A    between atoms: N_4  and  C_5
REMARK    3  A    between atoms: C_5  and  C_6
REMARK    4  A    between atoms: C_8  and  C_9
REMARK    5  A    between atoms: C_8  and  C_15
REMARK    6  A    between atoms: N_24  and  C_25
REMARK                            x       y       z     vdW  Elec       q    Type
REMARK                         _______ _______ _______ _____ _____    ______ ____
ROOT
ATOM      1  C   UNL     1       6.475   4.879  16.539  0.00  0.00    +0.000 C 
ATOM      2  C   UNL     1       5.115   5.538  16.503  0.00  0.00    +0.000 C 
ATOM      3  C   UNL     1       4.599   5.343  17.952  0.00  0.00    +0.000 C 
ATOM      4  C   UNL     1       5.954   5.448  18.688  0.00  0.00    +0.000 C 
ATOM      5  O   UNL     1       6.143   5.637  19.881  0.00  0.00    +0.000 OA
ATOM      6  O   UNL     1       7.000   5.244  17.815  0.00  0.00    +0.000 OA
ENDROOT
BRANCH   3   7
ATOM      7  C   UNL     1       3.995   3.917  18.070  0.00  0.00    +0.000 A 
ATOM      8  C   UNL     1       2.956   3.473  17.230  0.00  0.00    +0.000 A 
ATOM      9  C   UNL     1       2.367   2.218  17.411  0.00  0.00    +0.000 A 
ATOM     10  C   UNL     1       2.820   1.366  18.416  0.00  0.00    +0.000 A 
ATOM     11  C   UNL     1       3.876   1.763  19.229  0.00  0.00    +0.000 A 
ATOM     12  C   UNL     1       4.456   3.021  19.059  0.00  0.00    +0.000 A 
ENDBRANCH   3   7
BRANCH   3  13
ATOM     13  C   UNL     1       3.656   6.503  18.341  0.00  0.00    +0.000 A 
ATOM     14  C   UNL     1       2.900   6.516  19.526  0.00  0.00    +0.000 A 
ATOM     15  C   UNL     1       1.994   7.549  19.802  0.00  0.00    +0.000 A 
ATOM     16  C   UNL     1       1.838   8.600  18.902  0.00  0.00    +0.000 A 
ATOM     17  C   UNL     1       2.591   8.631  17.741  0.00  0.00    +0.000 A 
ATOM     18  C   UNL     1       3.502   7.602  17.467  0.00  0.00    +0.000 A 
ENDBRANCH   3  13
BRANCH   1  19
ATOM     19  C   UNL     1       7.431   5.264  15.403  0.00  0.00    +0.000 C 
BRANCH  19  23
ATOM     20  C   UNL     1       5.082   2.517  11.783  0.00  0.00    +0.000 C 
ATOM     21  C   UNL     1       5.968   3.460  12.466  0.00  0.00    +0.000 A 
ATOM     22  C   UNL     1       6.007   3.783  13.854  0.00  0.00    +0.000 A 
ATOM     23  N   UNL     1       7.046   4.725  14.089  0.00  0.00    +0.000 N 
ATOM     24  N   UNL     1       7.622   5.025  12.884  0.00  0.00    +0.000 N 
ATOM     25  C   UNL     1       8.687   5.995  12.647  0.00  0.00    +0.000 C 
ATOM     26  C   UNL     1       7.009   4.237  11.873  0.00  0.00    +0.000 A 
ENDBRANCH  19  23
ENDBRANCH   1  19
TORSDOF 4
ENDMDL
MODEL 2
REMARK VINA RESULT:      -7.7      0.098      1.337
REMARK  Name = 
REMARK  6 active torsions:
REMARK  status: ('A' for Active; 'I' for Inactive)
REMARK    1  A    between atoms: C_1  and  C_2
REMARK    2  A    between atoms: N_4  and  C_5
REMARK    3  A    between atoms: C_5  and  C_6
REMARK    4  A    between atoms: C_8  and  C_9
REMARK    5  A    between atoms: C_8  and  C_15
REMARK    6  A    between atoms: N_24  and  C_25
REMARK                            x       y       z     vdW  Elec       q    Type
REMARK                         _______ _______ _______ _____ _____    ______ ____
ROOT
ATOM      1  C   UNL     1       6.472   4.883  16.585  0.00  0.00    +0.000 C 
ATOM      2  C   UNL     1       5.098   5.507  16.493  0.00  0.00    +0.000 C 
ATOM      3  C   UNL     1       4.557   5.365  17.939  0.00  0.00    +0.000 C 
ATOM      4  C   UNL     1       5.895   5.535  18.695  0.00  0.00    +0.000 C 
ATOM      5  O   UNL     1       6.055   5.782  19.881  0.00  0.00    +0.000 OA
ATOM      6  O   UNL     1       6.962   5.318  17.852  0.00  0.00    +0.000 OA
ENDROOT
BRANCH   3   7
ATOM      7  C   UNL     1       3.984   3.932  18.110  0.00  0.00    +0.000 A 
ATOM      8  C   UNL     1       4.442   3.057  19.112  0.00  0.00    +0.000 A 
ATOM      9  C   UNL     1       3.975   1.742  19.194  0.00  0.00    +0.000 A 
ATOM     10  C   UNL     1       3.018   1.278  18.294  0.00  0.00    +0.000 A 
ATOM     11  C   UNL     1       2.515   2.137  17.324  0.00  0.00    +0.000 A 
ATOM     12  C   UNL     1       2.991   3.446  17.232  0.00  0.00    +0.000 A 
ENDBRANCH   3   7
BRANCH   3  13
ATOM     13  C   UNL     1       3.580   6.518  18.257  0.00  0.00    +0.000 A 
ATOM     14  C   UNL     1       3.411   7.636  17.421  0.00  0.00    +0.000 A 
ATOM     15  C   UNL     1       2.575   8.700  17.787  0.00  0.00    +0.000 A 
ATOM     16  C   UNL     1       1.878   8.660  18.991  0.00  0.00    +0.000 A 
ATOM     17  C   UNL     1       2.000   7.558  19.820  0.00  0.00    +0.000 A 
ATOM     18  C   UNL     1       2.830   6.490  19.454  0.00  0.00    +0.000 A 
ENDBRANCH   3  13
BRANCH   1  19
ATOM     19  C   UNL     1       7.440   5.239  15.450  0.00  0.00    +0.000 C 
BRANCH  19  23
ATOM     20  C   UNL     1       5.030   2.556  11.822  0.00  0.00    +0.000 C 
ATOM     21  C   UNL     1       5.933   3.482  12.507  0.00  0.00    +0.000 A 
ATOM     22  C   UNL     1       5.987   3.790  13.899  0.00  0.00    +0.000 A 
ATOM     23  N   UNL     1       7.038   4.719  14.134  0.00  0.00    +0.000 N 
ATOM     24  N   UNL     1       7.607   5.025  12.927  0.00  0.00    +0.000 N 
ATOM     25  C   UNL     1       8.681   5.985  12.692  0.00  0.00    +0.000 C 
ATOM     26  C   UNL     1       6.977   4.254  11.914  0.00  0.00    +0.000 A 
ENDBRANCH  19  23
ENDBRANCH   1  19
TORSDOF 4
ENDMDL
MODEL 3
REMARK VINA RESULT:      -7.7      4.539      7.821
REMARK  Name = 
REMARK  6 active torsions:
REMARK  status: ('A' for Active; 'I' for Inactive)
REMARK    1  A    between atoms: C_1  and  C_2
REMARK    2  A    between atoms: N_4  and  C_5
REMARK    3  A    between atoms: C_5  and  C_6
REMARK    4  A    between atoms: C_8  and  C_9
REMARK    5  A    between atoms: C_8  and  C_15
REMARK    6  A    between atoms: N_24  and  C_25
REMARK                            x       y       z     vdW  Elec       q    Type
REMARK                         _______ _______ _______ _____ _____    ______ ____
ROOT
ATOM      1  C   UNL     1       1.745   9.483  18.561  0.00  0.00    +0.000 C 
ATOM      2  C   UNL     1       0.278   9.192  18.341  0.00  0.00    +0.000 C 
ATOM      3  C   UNL     1      -0.412  10.468  18.891  0.00  0.00    +0.000 C 
ATOM      4  C   UNL     1       0.670  11.497  18.493  0.00  0.00    +0.000 C 
ATOM      5  O   UNL     1       0.558  12.712  18.432  0.00  0.00    +0.000 OA
ATOM      6  O   UNL     1       1.871  10.869  18.245  0.00  0.00    +0.000 OA
ENDROOT
BRANCH   3   7
ATOM      7  C   UNL     1      -0.534  10.334  20.433  0.00  0.00    +0.000 A 
ATOM      8  C   UNL     1      -0.773  11.445  21.264  0.00  0.00    +0.000 A 
ATOM      9  C   UNL     1      -0.791  11.316  22.656  0.00  0.00    +0.000 A 
ATOM     10  C   UNL     1      -0.599  10.071  23.250  0.00  0.00    +0.000 A 
ATOM     11  C   UNL     1      -0.408   8.950  22.450  0.00  0.00    +0.000 A 
ATOM     12  C   UNL     1      -0.375   9.079  21.060  0.00  0.00    +0.000 A 
ENDBRANCH   3   7
BRANCH   3  13
ATOM     13  C   UNL     1      -1.736  10.723  18.136  0.00  0.00    +0.000 A 
ATOM     14  C   UNL     1      -2.746  11.573  18.620  0.00  0.00    +0.000 A 
ATOM     15  C   UNL     1      -3.966  11.712  17.944  0.00  0.00    +0.000 A 
ATOM     16  C   UNL     1      -4.194  11.016  16.760  0.00  0.00    +0.000 A 
ATOM     17  C   UNL     1      -3.206  10.196  16.243  0.00  0.00    +0.000 A 
ATOM     18  C   UNL     1      -1.983  10.059  16.914  0.00  0.00    +0.000 A 
ENDBRANCH   3  13
BRANCH   1  19
ATOM     19  C   UNL     1       2.722   8.626  17.747  0.00  0.00    +0.000 C 
BRANCH  19  23
ATOM     20  C   UNL     1       2.507   4.554  20.835  0.00  0.00    +0.000 C 
ATOM     21  C   UNL     1       2.871   5.467  19.751  0.00  0.00    +0.000 A 
ATOM     22  C   UNL     1       2.307   6.741  19.448  0.00  0.00    +0.000 A 
ATOM     23  N   UNL     1       2.983   7.300  18.329  0.00  0.00    +0.000 N 
ATOM     24  N   UNL     1       3.919   6.394  17.907  0.00  0.00    +0.000 N 
ATOM     25  C   UNL     1       4.798   6.528  16.750  0.00  0.00    +0.000 C 
ATOM     26  C   UNL     1       3.902   5.275  18.783  0.00  0.00    +0.000 A 
ENDBRANCH  19  23
ENDBRANCH   1  19
TORSDOF 4
ENDMDL
MODEL 4
REMARK VINA RESULT:      -7.6      3.970      7.307
REMARK  Name = 
REMARK  6 active torsions:
REMARK  status: ('A' for Active; 'I' for Inactive)
REMARK    1  A    between atoms: C_1  and  C_2
REMARK    2  A    between atoms: N_4  and  C_5
REMARK    3  A    between atoms: C_5  and  C_6
REMARK    4  A    between atoms: C_8  and  C_9
REMARK    5  A    between atoms: C_8  and  C_15
REMARK    6  A    between atoms: N_24  and  C_25
REMARK                            x       y       z     vdW  Elec       q    Type
REMARK                         _______ _______ _______ _____ _____    ______ ____
ROOT
ATOM      1  C   UNL     1       2.290   8.147  18.296  0.00  0.00    +0.000 C 
ATOM      2  C   UNL     1       2.255   6.809  17.594  0.00  0.00    +0.000 C 
ATOM      3  C   UNL     1       2.970   5.872  18.601  0.00  0.00    +0.000 C 
ATOM      4  C   UNL     1       2.492   6.543  19.909  0.00  0.00    +0.000 C 
ATOM      5  O   UNL     1       2.520   6.080  21.039  0.00  0.00    +0.000 OA
ATOM      6  O   UNL     1       2.044   7.823  19.665  0.00  0.00    +0.000 OA
ENDROOT
BRANCH   3   7
ATOM      7  C   UNL     1       4.504   6.023  18.410  0.00  0.00    +0.000 A 
ATOM      8  C   UNL     1       5.057   6.694  17.304  0.00  0.00    +0.000 A 
ATOM      9  C   UNL     1       6.440   6.742  17.105  0.00  0.00    +0.000 A 
ATOM     10  C   UNL     1       7.304   6.147  18.022  0.00  0.00    +0.000 A 
ATOM     11  C   UNL     1       6.784   5.519  19.148  0.00  0.00    +0.000 A 
ATOM     12  C   UNL     1       5.402   5.457  19.340  0.00  0.00    +0.000 A 
ENDBRANCH   3   7
BRANCH   3  13
ATOM     13  C   UNL     1       2.419   4.434  18.473  0.00  0.00    +0.000 A 
ATOM     14  C   UNL     1       1.268   3.988  19.145  0.00  0.00    +0.000 A 
ATOM     15  C   UNL     1       0.849   2.653  19.066  0.00  0.00    +0.000 A 
ATOM     16  C   UNL     1       1.565   1.739  18.298  0.00  0.00    +0.000 A 
ATOM     17  C   UNL     1       2.685   2.156  17.599  0.00  0.00    +0.000 A 
ATOM     18  C   UNL     1       3.102   3.492  17.672  0.00  0.00    +0.000 A 
ENDBRANCH   3  13
BRANCH   1  19
ATOM     19  C   UNL     1       1.300   9.197  17.777  0.00  0.00    +0.000 C 
BRANCH  19  23
ATOM     20  C   UNL     1       2.988  13.899  18.874  0.00  0.00    +0.000 C 
ATOM     21  C   UNL     1       2.231  12.647  18.893  0.00  0.00    +0.000 A 
ATOM     22  C   UNL     1       2.347  11.535  18.008  0.00  0.00    +0.000 A 
ATOM     23  N   UNL     1       1.440  10.517  18.411  0.00  0.00    +0.000 N 
ATOM     24  N   UNL     1       0.739  10.981  19.491  0.00  0.00    +0.000 N 
ATOM     25  C   UNL     1      -0.340  10.289  20.190  0.00  0.00    +0.000 C 
ATOM     26  C   UNL     1       1.228  12.270  19.836  0.00  0.00    +0.000 A 
ENDBRANCH  19  23
ENDBRANCH   1  19
TORSDOF 4
ENDMDL
MODEL 5
REMARK VINA RESULT:      -7.5      4.032      7.399
REMARK  Name = 
REMARK  6 active torsions:
REMARK  status: ('A' for Active; 'I' for Inactive)
REMARK    1  A    between atoms: C_1  and  C_2
REMARK    2  A    between atoms: N_4  and  C_5
REMARK    3  A    between atoms: C_5  and  C_6
REMARK    4  A    between atoms: C_8  and  C_9
REMARK    5  A    between atoms: C_8  and  C_15
REMARK    6  A    between atoms: N_24  and  C_25
REMARK                            x       y       z     vdW  Elec       q    Type
REMARK                         _______ _______ _______ _____ _____    ______ ____
ROOT
ATOM      1  C   UNL     1       2.283   8.142  18.349  0.00  0.00    +0.000 C 
ATOM      2  C   UNL     1       2.241   6.818  17.621  0.00  0.00    +0.000 C 
ATOM      3  C   UNL     1       2.973   5.864  18.600  0.00  0.00    +0.000 C 
ATOM      4  C   UNL     1       2.512   6.508  19.927  0.00  0.00    +0.000 C 
ATOM      5  O   UNL     1       2.558   6.023  21.047  0.00  0.00    +0.000 OA
ATOM      6  O   UNL     1       2.058   7.791  19.714  0.00  0.00    +0.000 OA
ENDROOT
BRANCH   3   7
ATOM      7  C   UNL     1       4.503   6.023  18.389  0.00  0.00    +0.000 A 
ATOM      8  C   UNL     1       5.040   6.691  17.273  0.00  0.00    +0.000 A 
ATOM      9  C   UNL     1       6.420   6.747  17.058  0.00  0.00    +0.000 A 
ATOM     10  C   UNL     1       7.298   6.161  17.967  0.00  0.00    +0.000 A 
ATOM     11  C   UNL     1       6.795   5.535  19.102  0.00  0.00    +0.000 A 
ATOM     12  C   UNL     1       5.416   5.466  19.311  0.00  0.00    +0.000 A 
ENDBRANCH   3   7
BRANCH   3  13
ATOM     13  C   UNL     1       2.424   4.427  18.451  0.00  0.00    +0.000 A 
ATOM     14  C   UNL     1       1.265   3.975  19.105  0.00  0.00    +0.000 A 
ATOM     15  C   UNL     1       0.847   2.640  19.009  0.00  0.00    +0.000 A 
ATOM     16  C   UNL     1       1.573   1.734  18.240  0.00  0.00    +0.000 A 
ATOM     17  C   UNL     1       2.701   2.157  17.559  0.00  0.00    +0.000 A 
ATOM     18  C   UNL     1       3.117   3.493  17.649  0.00  0.00    +0.000 A 
ENDBRANCH   3  13
BRANCH   1  19
ATOM     19  C   UNL     1       1.283   9.199  17.864  0.00  0.00    +0.000 C 
BRANCH  19  23
ATOM     20  C   UNL     1      -0.991  11.472  21.842  0.00  0.00    +0.000 C 
ATOM     21  C   UNL     1      -0.129  11.209  20.690  0.00  0.00    +0.000 A 
ATOM     22  C   UNL     1      -0.006  10.002  19.941  0.00  0.00    +0.000 A 
ATOM     23  N   UNL     1       0.925  10.198  18.884  0.00  0.00    +0.000 N 
ATOM     24  N   UNL     1       1.411  11.473  18.982  0.00  0.00    +0.000 N 
ATOM     25  C   UNL     1       2.437  12.080  18.139  0.00  0.00    +0.000 C 
ATOM     26  C   UNL     1       0.756  12.133  20.056  0.00  0.00    +0.000 A 
ENDBRANCH  19  23
ENDBRANCH   1  19
TORSDOF 4
ENDMDL
MODEL 6
REMARK VINA RESULT:      -7.4      4.001      7.373
REMARK  Name = 
REMARK  6 active torsions:
REMARK  status: ('A' for Active; 'I' for Inactive)
REMARK    1  A    between atoms: C_1  and  C_2
REMARK    2  A    between atoms: N_4  and  C_5
REMARK    3  A    between atoms: C_5  and  C_6
REMARK    4  A    between atoms: C_8  and  C_9
REMARK    5  A    between atoms: C_8  and  C_15
REMARK    6  A    between atoms: N_24  and  C_25
REMARK                            x       y       z     vdW  Elec       q    Type
REMARK                         _______ _______ _______ _____ _____    ______ ____
ROOT
ATOM      1  C   UNL     1       2.322   8.093  18.271  0.00  0.00    +0.000 C 
ATOM      2  C   UNL     1       2.266   6.727  17.627  0.00  0.00    +0.000 C 
ATOM      3  C   UNL     1       2.990   5.828  18.662  0.00  0.00    +0.000 C 
ATOM      4  C   UNL     1       2.538   6.557  19.947  0.00  0.00    +0.000 C 
ATOM      5  O   UNL     1       2.581   6.142  21.096  0.00  0.00    +0.000 OA
ATOM      6  O   UNL     1       2.096   7.829  19.656  0.00  0.00    +0.000 OA
ENDROOT
BRANCH   3   7
ATOM      7  C   UNL     1       4.522   5.958  18.441  0.00  0.00    +0.000 A 
ATOM      8  C   UNL     1       5.457   5.393  19.327  0.00  0.00    +0.000 A 
ATOM      9  C   UNL     1       6.830   5.597  19.158  0.00  0.00    +0.000 A 
ATOM     10  C   UNL     1       7.302   6.347  18.083  0.00  0.00    +0.000 A 
ATOM     11  C   UNL     1       6.400   6.877  17.167  0.00  0.00    +0.000 A 
ATOM     12  C   UNL     1       5.029   6.686  17.342  0.00  0.00    +0.000 A 
ENDBRANCH   3   7
BRANCH   3  13
ATOM     13  C   UNL     1       2.427   4.390  18.603  0.00  0.00    +0.000 A 
ATOM     14  C   UNL     1       2.955   3.390  17.767  0.00  0.00    +0.000 A 
ATOM     15  C   UNL     1       2.362   2.123  17.683  0.00  0.00    +0.000 A 
ATOM     16  C   UNL     1       1.237   1.825  18.447  0.00  0.00    +0.000 A 
ATOM     17  C   UNL     1       0.713   2.778  19.302  0.00  0.00    +0.000 A 
ATOM     18  C   UNL     1       1.308   4.044  19.393  0.00  0.00    +0.000 A 
ENDBRANCH   3  13
BRANCH   1  19
ATOM     19  C   UNL     1       1.332   9.128  17.723  0.00  0.00    +0.000 C 
BRANCH  19  23
ATOM     20  C   UNL     1       2.938  13.843  18.886  0.00  0.00    +0.000 C 
ATOM     21  C   UNL     1       2.188  12.586  18.873  0.00  0.00    +0.000 A 
ATOM     22  C   UNL     1       2.352  11.474  17.997  0.00  0.00    +0.000 A 
ATOM     23  N   UNL     1       1.434  10.450  18.360  0.00  0.00    +0.000 N 
ATOM     24  N   UNL     1       0.681  10.912  19.406  0.00  0.00    +0.000 N 
ATOM     25  C   UNL     1      -0.424  10.214  20.055  0.00  0.00    +0.000 C 
ATOM     26  C   UNL     1       1.145  12.205  19.770  0.00  0.00    +0.000 A 
ENDBRANCH  19  23
ENDBRANCH   1  19
TORSDOF 4
ENDMDL
MODEL 7
REMARK VINA RESULT:      -7.3      3.053      6.927
REMARK  Name = 
REMARK  6 active torsions:
REMARK  status: ('A' for Active; 'I' for Inactive)
REMARK    1  A    between atoms: C_1  and  C_2
REMARK    2  A    between atoms: N_4  and  C_5
REMARK    3  A    between atoms: C_5  and  C_6
REMARK    4  A    between atoms: C_8  and  C_9
REMARK    5  A    between atoms: C_8  and  C_15
REMARK    6  A    between atoms: N_24  and  C_25
REMARK                            x       y       z     vdW  Elec       q    Type
REMARK                         _______ _______ _______ _____ _____    ______ ____
ROOT
ATOM      1  C   UNL     1       4.122   6.252  18.828  0.00  0.00    +0.000 C 
ATOM      2  C   UNL     1       4.429   6.383  17.354  0.00  0.00    +0.000 C 
ATOM      3  C   UNL     1       5.870   5.819  17.251  0.00  0.00    +0.000 C 
ATOM      4  C   UNL     1       5.767   4.742  18.355  0.00  0.00    +0.000 C 
ATOM      5  O   UNL     1       6.516   3.795  18.546  0.00  0.00    +0.000 OA
ATOM      6  O   UNL     1       4.703   4.999  19.190  0.00  0.00    +0.000 OA
ENDROOT
BRANCH   3   7
ATOM      7  C   UNL     1       6.867   6.943  17.642  0.00  0.00    +0.000 A 
ATOM      8  C   UNL     1       7.894   6.739  18.583  0.00  0.00    +0.000 A 
ATOM      9  C   UNL     1       8.725   7.788  18.986  0.00  0.00    +0.000 A 
ATOM     10  C   UNL     1       8.569   9.059  18.437  0.00  0.00    +0.000 A 
ATOM     11  C   UNL     1       7.593   9.275  17.471  0.00  0.00    +0.000 A 
ATOM     12  C   UNL     1       6.752   8.232  17.078  0.00  0.00    +0.000 A 
ENDBRANCH   3   7
BRANCH   3  13
ATOM     13  C   UNL     1       6.092   5.181  15.862  0.00  0.00    +0.000 A 
ATOM     14  C   UNL     1       7.281   5.334  15.126  0.00  0.00    +0.000 A 
ATOM     15  C   UNL     1       7.411   4.808  13.833  0.00  0.00    +0.000 A 
ATOM     16  C   UNL     1       6.358   4.103  13.256  0.00  0.00    +0.000 A 
ATOM     17  C   UNL     1       5.187   3.909  13.968  0.00  0.00    +0.000 A 
ATOM     18  C   UNL     1       5.057   4.429  15.263  0.00  0.00    +0.000 A 
ENDBRANCH   3  13
BRANCH   1  19
ATOM     19  C   UNL     1       2.637   6.317  19.206  0.00  0.00    +0.000 C 
BRANCH  19  23
ATOM     20  C   UNL     1       1.201   2.411  22.181  0.00  0.00    +0.000 C 
ATOM     21  C   UNL     1       1.439   3.268  21.019  0.00  0.00    +0.000 A 
ATOM     22  C   UNL     1       1.993   4.581  20.993  0.00  0.00    +0.000 A 
ATOM     23  N   UNL     1       2.074   5.031  19.646  0.00  0.00    +0.000 N 
ATOM     24  N   UNL     1       1.549   4.053  18.844  0.00  0.00    +0.000 N 
ATOM     25  C   UNL     1       1.376   4.118  17.396  0.00  0.00    +0.000 C 
ATOM     26  C   UNL     1       1.186   2.942  19.652  0.00  0.00    +0.000 A 
ENDBRANCH  19  23
ENDBRANCH   1  19
TORSDOF 4
ENDMDL
MODEL 8
REMARK VINA RESULT:      -7.2      4.061      7.444
REMARK  Name = 
REMARK  6 active torsions:
REMARK  status: ('A' for Active; 'I' for Inactive)
REMARK    1  A    between atoms: C_1  and  C_2
REMARK    2  A    between atoms: N_4  and  C_5
REMARK    3  A    between atoms: C_5  and  C_6
REMARK    4  A    between atoms: C_8  and  C_9
REMARK    5  A    between atoms: C_8  and  C_15
REMARK    6  A    between atoms: N_24  and  C_25
REMARK                            x       y       z     vdW  Elec       q    Type
REMARK                         _______ _______ _______ _____ _____    ______ ____
ROOT
ATOM      1  C   UNL     1       2.329   8.085  18.331  0.00  0.00    +0.000 C 
ATOM      2  C   UNL     1       2.266   6.730  17.663  0.00  0.00    +0.000 C 
ATOM      3  C   UNL     1       3.000   5.813  18.675  0.00  0.00    +0.000 C 
ATOM      4  C   UNL     1       2.560   6.520  19.977  0.00  0.00    +0.000 C 
ATOM      5  O   UNL     1       2.614   6.085  21.118  0.00  0.00    +0.000 OA
ATOM      6  O   UNL     1       2.115   7.797  19.712  0.00  0.00    +0.000 OA
ENDROOT
BRANCH   3   7
ATOM      7  C   UNL     1       4.529   5.948  18.441  0.00  0.00    +0.000 A 
ATOM      8  C   UNL     1       5.473   5.388  19.323  0.00  0.00    +0.000 A 
ATOM      9  C   UNL     1       6.844   5.596  19.142  0.00  0.00    +0.000 A 
ATOM     10  C   UNL     1       7.305   6.343  18.060  0.00  0.00    +0.000 A 
ATOM     11  C   UNL     1       6.395   6.867  17.149  0.00  0.00    +0.000 A 
ATOM     12  C   UNL     1       5.025   6.673  17.336  0.00  0.00    +0.000 A 
ENDBRANCH   3   7
BRANCH   3  13
ATOM     13  C   UNL     1       2.436   4.377  18.596  0.00  0.00    +0.000 A 
ATOM     14  C   UNL     1       2.988   3.377  17.777  0.00  0.00    +0.000 A 
ATOM     15  C   UNL     1       2.396   2.111  17.672  0.00  0.00    +0.000 A 
ATOM     16  C   UNL     1       1.246   1.814  18.399  0.00  0.00    +0.000 A 
ATOM     17  C   UNL     1       0.697   2.768  19.239  0.00  0.00    +0.000 A 
ATOM     18  C   UNL     1       1.291   4.032  19.350  0.00  0.00    +0.000 A 
ENDBRANCH   3  13
BRANCH   1  19
ATOM     19  C   UNL     1       1.333   9.129  17.810  0.00  0.00    +0.000 C 
BRANCH  19  23
ATOM     20  C   UNL     1      -1.021  11.478  21.697  0.00  0.00    +0.000 C 
ATOM     21  C   UNL     1      -0.133  11.192  20.570  0.00  0.00    +0.000 A 
ATOM     22  C   UNL     1       0.001   9.972  19.843  0.00  0.00    +0.000 A 
ATOM     23  N   UNL     1       0.957  10.146  18.805  0.00  0.00    +0.000 N 
ATOM     24  N   UNL     1       1.447  11.421  18.893  0.00  0.00    +0.000 N 
ATOM     25  C   UNL     1       2.494  12.009  18.064  0.00  0.00    +0.000 C 
ATOM     26  C   UNL     1       0.771  12.101  19.941  0.00  0.00    +0.000 A 
ENDBRANCH  19  23
ENDBRANCH   1  19
TORSDOF 4
ENDMDL
MODEL 9
REMARK VINA RESULT:      -7.1      4.106      7.493
REMARK  Name = 
REMARK  6 active torsions:
REMARK  status: ('A' for Active; 'I' for Inactive)
REMARK    1  A    between atoms: C_1  and  C_2
REMARK    2  A    between atoms: N_4  and  C_5
REMARK    3  A    between atoms: C_5  and  C_6
REMARK    4  A    between atoms: C_8  and  C_9
REMARK    5  A    between atoms: C_8  and  C_15
REMARK    6  A    between atoms: N_24  and  C_25
REMARK                            x       y       z     vdW  Elec       q    Type
REMARK                         _______ _______ _______ _____ _____    ______ ____
ROOT
ATOM      1  C   UNL     1       2.268   8.234  18.191  0.00  0.00    +0.000 C 
ATOM      2  C   UNL     1       2.205   6.859  17.566  0.00  0.00    +0.000 C 
ATOM      3  C   UNL     1       2.870   5.961  18.641  0.00  0.00    +0.000 C 
ATOM      4  C   UNL     1       2.387   6.722  19.897  0.00  0.00    +0.000 C 
ATOM      5  O   UNL     1       2.378   6.324  21.053  0.00  0.00    +0.000 OA
ATOM      6  O   UNL     1       1.985   7.998  19.569  0.00  0.00    +0.000 OA
ENDROOT
BRANCH   3   7
ATOM      7  C   UNL     1       4.411   6.055  18.475  0.00  0.00    +0.000 A 
ATOM      8  C   UNL     1       5.008   6.744  17.403  0.00  0.00    +0.000 A 
ATOM      9  C   UNL     1       6.395   6.742  17.224  0.00  0.00    +0.000 A 
ATOM     10  C   UNL     1       7.219   6.075  18.127  0.00  0.00    +0.000 A 
ATOM     11  C   UNL     1       6.658   5.426  19.221  0.00  0.00    +0.000 A 
ATOM     12  C   UNL     1       5.272   5.415  19.393  0.00  0.00    +0.000 A 
ENDBRANCH   3   7
BRANCH   3  13
ATOM     13  C   UNL     1       2.277   4.536  18.583  0.00  0.00    +0.000 A 
ATOM     14  C   UNL     1       1.247   4.095  19.434  0.00  0.00    +0.000 A 
ATOM     15  C   UNL     1       0.795   2.769  19.404  0.00  0.00    +0.000 A 
ATOM     16  C   UNL     1       1.354   1.859  18.510  0.00  0.00    +0.000 A 
ATOM     17  C   UNL     1       2.347   2.271  17.639  0.00  0.00    +0.000 A 
ATOM     18  C   UNL     1       2.797   3.598  17.663  0.00  0.00    +0.000 A 
ENDBRANCH   3  13
BRANCH   1  19
ATOM     19  C   UNL     1       1.322   9.281  17.590  0.00  0.00    +0.000 C 
BRANCH  19  23
ATOM     20  C   UNL     1      -0.206  11.606  21.882  0.00  0.00    +0.000 C 
ATOM     21  C   UNL     1      -0.191  11.011  20.545  0.00  0.00    +0.000 A 
ATOM     22  C   UNL     1       0.920  10.463  19.839  0.00  0.00    +0.000 A 
ATOM     23  N   UNL     1       0.478   9.965  18.582  0.00  0.00    +0.000 N 
ATOM     24  N   UNL     1      -0.861  10.225  18.473  0.00  0.00    +0.000 N 
ATOM     25  C   UNL     1      -1.711   9.941  17.321  0.00  0.00    +0.000 C 
ATOM     26  C   UNL     1      -1.310  10.831  19.677  0.00  0.00    +0.000 A 
ENDBRANCH  19  23
ENDBRANCH   1  19
TORSDOF 4
ENDMDL
