MODEL 1
REMARK VINA RESULT:      -8.7      0.000      0.000
REMARK  Name = 
REMARK  5 active torsions:
REMARK  status: ('A' for Active; 'I' for Inactive)
REMARK    1  A    between atoms: C_1  and  C_2
REMARK    2  A    between atoms: C_5  and  O_6
REMARK    3  A    between atoms: O_6  and  C_7
REMARK    4  A    between atoms: C_10  and  N_11
REMARK    5  A    between atoms: N_11  and  C_12
REMARK                            x       y       z     vdW  Elec       q    Type
REMARK                         _______ _______ _______ _____ _____    ______ ____
ROOT
ATOM      1  C   UNL     1       0.798  10.236  18.814  0.00  0.00    +0.000 A 
ATOM      2  C   UNL     1       0.658   9.751  20.112  0.00  0.00    +0.000 A 
ATOM      3  C   UNL     1       1.305   8.570  20.496  0.00  0.00    +0.000 A 
ATOM      4  C   UNL     1       2.064   7.836  19.576  0.00  0.00    +0.000 A 
ATOM      5  C   UNL     1       2.256   8.372  18.299  0.00  0.00    +0.000 A 
ATOM      6  C   UNL     1       1.598   9.539  17.906  0.00  0.00    +0.000 A 
ENDROOT
BRANCH   4   7
ATOM      7  N   UNL     1       2.668   6.600  19.858  0.00  0.00    +0.000 N 
ATOM      8  H   UNL     1       2.053   6.037  20.442  0.00  0.00    +0.000 HD
BRANCH   7   9
ATOM      9  C   UNL     1       3.207   5.849  18.727  0.00  0.00    +0.000 C 
ATOM     10  C   UNL     1       4.751   5.739  18.802  0.00  0.00    +0.000 C 
ATOM     11  C   UNL     1       5.146   4.284  19.076  0.00  0.00    +0.000 C 
ATOM     12  C   UNL     1       3.861   3.544  18.929  0.00  0.00    +0.000 A 
ATOM     13  C   UNL     1       3.697   2.166  18.955  0.00  0.00    +0.000 A 
ATOM     14  C   UNL     1       2.412   1.649  18.796  0.00  0.00    +0.000 A 
ATOM     15  C   UNL     1       1.328   2.514  18.626  0.00  0.00    +0.000 A 
ATOM     16  F   UNL     1       0.103   1.998  18.458  0.00  0.00    +0.000 F 
ATOM     17  C   UNL     1       1.493   3.898  18.613  0.00  0.00    +0.000 A 
ATOM     18  C   UNL     1       2.775   4.409  18.766  0.00  0.00    +0.000 A 
ENDBRANCH   7   9
ENDBRANCH   4   7
BRANCH   1  19
ATOM     19  O   UNL     1       0.055  11.352  18.492  0.00  0.00    +0.000 OA
BRANCH  19  24
ATOM     20  C   UNL     1      -5.481  10.960  17.962  0.00  0.00    +0.000 C 
ATOM     21  C   UNL     1      -3.994  10.970  18.106  0.00  0.00    +0.000 A 
ATOM     22  C   UNL     1      -3.172  10.094  17.403  0.00  0.00    +0.000 A 
ATOM     23  C   UNL     1      -1.797  10.212  17.551  0.00  0.00    +0.000 A 
ATOM     24  C   UNL     1      -1.316  11.197  18.391  0.00  0.00    +0.000 A 
ATOM     25  N   UNL     1      -2.136  11.992  19.109  0.00  0.00    +0.000 NA
ATOM     26  N   UNL     1      -3.484  11.891  18.950  0.00  0.00    +0.000 NA
ENDBRANCH  19  24
ENDBRANCH   1  19
TORSDOF 4
ENDMDL
MODEL 2
REMARK VINA RESULT:      -8.4      4.231      8.750
REMARK  Name = 
REMARK  5 active torsions:
REMARK  status: ('A' for Active; 'I' for Inactive)
REMARK    1  A    between atoms: C_1  and  C_2
REMARK    2  A    between atoms: C_5  and  O_6
REMARK    3  A    between atoms: O_6  and  C_7
REMARK    4  A    between atoms: C_10  and  N_11
REMARK    5  A    between atoms: N_11  and  C_12
REMARK                            x       y       z     vdW  Elec       q    Type
REMARK                         _______ _______ _______ _____ _____    ______ ____
ROOT
ATOM      1  C   UNL     1       5.367   5.494  18.041  0.00  0.00    +0.000 A 
ATOM      2  C   UNL     1       4.982   6.639  17.348  0.00  0.00    +0.000 A 
ATOM      3  C   UNL     1       3.826   7.333  17.723  0.00  0.00    +0.000 A 
ATOM      4  C   UNL     1       3.017   6.869  18.768  0.00  0.00    +0.000 A 
ATOM      5  C   UNL     1       3.454   5.763  19.502  0.00  0.00    +0.000 A 
ATOM      6  C   UNL     1       4.595   5.056  19.120  0.00  0.00    +0.000 A 
ENDROOT
BRANCH   4   7
ATOM      7  N   UNL     1       1.799   7.458  19.145  0.00  0.00    +0.000 N 
ATOM      8  H   UNL     1       1.402   6.959  19.939  0.00  0.00    +0.000 HD
BRANCH   7   9
ATOM      9  C   UNL     1       1.791   8.907  19.334  0.00  0.00    +0.000 C 
ATOM     10  C   UNL     1       1.080   9.628  18.161  0.00  0.00    +0.000 C 
ATOM     11  C   UNL     1      -0.232  10.242  18.659  0.00  0.00    +0.000 C 
ATOM     12  C   UNL     1      -0.155  10.071  20.137  0.00  0.00    +0.000 A 
ATOM     13  C   UNL     1      -1.047  10.577  21.073  0.00  0.00    +0.000 A 
ATOM     14  C   UNL     1      -0.810  10.316  22.422  0.00  0.00    +0.000 A 
ATOM     15  C   UNL     1       0.299   9.554  22.801  0.00  0.00    +0.000 A 
ATOM     16  F   UNL     1       0.519   9.329  24.103  0.00  0.00    +0.000 F 
ATOM     17  C   UNL     1       1.187   9.036  21.859  0.00  0.00    +0.000 A 
ATOM     18  C   UNL     1       0.950   9.303  20.518  0.00  0.00    +0.000 A 
ENDBRANCH   7   9
ENDBRANCH   4   7
BRANCH   1  19
ATOM     19  O   UNL     1       6.463   4.818  17.550  0.00  0.00    +0.000 OA
BRANCH  19  24
ATOM     20  C   UNL     1       7.264   4.412  12.048  0.00  0.00    +0.000 C 
ATOM     21  C   UNL     1       6.956   4.517  13.506  0.00  0.00    +0.000 A 
ATOM     22  C   UNL     1       5.976   3.740  14.118  0.00  0.00    +0.000 A 
ATOM     23  C   UNL     1       5.797   3.859  15.489  0.00  0.00    +0.000 A 
ATOM     24  C   UNL     1       6.603   4.744  16.176  0.00  0.00    +0.000 A 
ATOM     25  N   UNL     1       7.502   5.531  15.550  0.00  0.00    +0.000 NA
ATOM     26  N   UNL     1       7.694   5.402  14.208  0.00  0.00    +0.000 NA
ENDBRANCH  19  24
ENDBRANCH   1  19
TORSDOF 4
ENDMDL
MODEL 3
REMARK VINA RESULT:      -8.3      0.770      1.371
REMARK  Name = 
REMARK  5 active torsions:
REMARK  status: ('A' for Active; 'I' for Inactive)
REMARK    1  A    between atoms: C_1  and  C_2
REMARK    2  A    between atoms: C_5  and  O_6
REMARK    3  A    between atoms: O_6  and  C_7
REMARK    4  A    between atoms: C_10  and  N_11
REMARK    5  A    between atoms: N_11  and  C_12
REMARK                            x       y       z     vdW  Elec       q    Type
REMARK                         _______ _______ _______ _____ _____    ______ ____
ROOT
ATOM      1  C   UNL     1       0.691  10.147  19.053  0.00  0.00    +0.000 A 
ATOM      2  C   UNL     1       1.399   9.562  18.006  0.00  0.00    +0.000 A 
ATOM      3  C   UNL     1       2.100   8.368  18.210  0.00  0.00    +0.000 A 
ATOM      4  C   UNL     1       2.138   7.765  19.474  0.00  0.00    +0.000 A 
ATOM      5  C   UNL     1       1.363   8.321  20.495  0.00  0.00    +0.000 A 
ATOM      6  C   UNL     1       0.678   9.522  20.302  0.00  0.00    +0.000 A 
ENDROOT
BRANCH   4   7
ATOM      7  N   UNL     1       2.889   6.618  19.780  0.00  0.00    +0.000 N 
ATOM      8  H   UNL     1       2.397   6.055  20.471  0.00  0.00    +0.000 HD
BRANCH   7   9
ATOM      9  C   UNL     1       3.377   5.823  18.656  0.00  0.00    +0.000 C 
ATOM     10  C   UNL     1       4.917   5.657  18.706  0.00  0.00    +0.000 C 
ATOM     11  C   UNL     1       5.263   4.194  19.006  0.00  0.00    +0.000 C 
ATOM     12  C   UNL     1       3.948   3.500  18.898  0.00  0.00    +0.000 A 
ATOM     13  C   UNL     1       3.733   2.130  18.957  0.00  0.00    +0.000 A 
ATOM     14  C   UNL     1       2.427   1.659  18.834  0.00  0.00    +0.000 A 
ATOM     15  C   UNL     1       1.373   2.561  18.664  0.00  0.00    +0.000 A 
ATOM     16  F   UNL     1       0.127   2.087  18.530  0.00  0.00    +0.000 F 
ATOM     17  C   UNL     1       1.589   3.937  18.616  0.00  0.00    +0.000 A 
ATOM     18  C   UNL     1       2.892   4.402  18.735  0.00  0.00    +0.000 A 
ENDBRANCH   7   9
ENDBRANCH   4   7
BRANCH   1  19
ATOM     19  O   UNL     1       0.106  11.367  18.793  0.00  0.00    +0.000 OA
BRANCH  19  24
ATOM     20  C   UNL     1      -5.405  11.186  17.963  0.00  0.00    +0.000 C 
ATOM     21  C   UNL     1      -3.936  11.327  18.204  0.00  0.00    +0.000 A 
ATOM     22  C   UNL     1      -3.424  12.080  19.256  0.00  0.00    +0.000 A 
ATOM     23  C   UNL     1      -2.049  12.109  19.442  0.00  0.00    +0.000 A 
ATOM     24  C   UNL     1      -1.259  11.385  18.570  0.00  0.00    +0.000 A 
ATOM     25  N   UNL     1      -1.777  10.714  17.521  0.00  0.00    +0.000 NA
ATOM     26  N   UNL     1      -3.127  10.668  17.348  0.00  0.00    +0.000 NA
ENDBRANCH  19  24
ENDBRANCH   1  19
TORSDOF 4
ENDMDL
MODEL 4
REMARK VINA RESULT:      -8.3      4.179      8.697
REMARK  Name = 
REMARK  5 active torsions:
REMARK  status: ('A' for Active; 'I' for Inactive)
REMARK    1  A    between atoms: C_1  and  C_2
REMARK    2  A    between atoms: C_5  and  O_6
REMARK    3  A    between atoms: O_6  and  C_7
REMARK    4  A    between atoms: C_10  and  N_11
REMARK    5  A    between atoms: N_11  and  C_12
REMARK                            x       y       z     vdW  Elec       q    Type
REMARK                         _______ _______ _______ _____ _____    ______ ____
ROOT
ATOM      1  C   UNL     1       4.392   3.959  17.624  0.00  0.00    +0.000 A 
ATOM      2  C   UNL     1       4.834   4.588  18.786  0.00  0.00    +0.000 A 
ATOM      3  C   UNL     1       3.971   5.422  19.507  0.00  0.00    +0.000 A 
ATOM      4  C   UNL     1       2.669   5.671  19.054  0.00  0.00    +0.000 A 
ATOM      5  C   UNL     1       2.214   4.975  17.930  0.00  0.00    +0.000 A 
ATOM      6  C   UNL     1       3.077   4.159  17.196  0.00  0.00    +0.000 A 
ENDROOT
BRANCH   4   7
ATOM      7  N   UNL     1       1.775   6.561  19.671  0.00  0.00    +0.000 N 
ATOM      8  H   UNL     1       1.518   6.213  20.593  0.00  0.00    +0.000 HD
BRANCH   7   9
ATOM      9  C   UNL     1       2.149   7.973  19.690  0.00  0.00    +0.000 C 
ATOM     10  C   UNL     1       1.965   8.627  18.297  0.00  0.00    +0.000 C 
ATOM     11  C   UNL     1       0.814   9.636  18.356  0.00  0.00    +0.000 C 
ATOM     12  C   UNL     1       0.502   9.721  19.810  0.00  0.00    +0.000 A 
ATOM     13  C   UNL     1      -0.389  10.599  20.412  0.00  0.00    +0.000 A 
ATOM     14  C   UNL     1      -0.550  10.535  21.795  0.00  0.00    +0.000 A 
ATOM     15  C   UNL     1       0.171   9.596  22.539  0.00  0.00    +0.000 A 
ATOM     16  F   UNL     1       0.015   9.561  23.869  0.00  0.00    +0.000 F 
ATOM     17  C   UNL     1       1.056   8.707  21.932  0.00  0.00    +0.000 A 
ATOM     18  C   UNL     1       1.217   8.778  20.554  0.00  0.00    +0.000 A 
ENDBRANCH   7   9
ENDBRANCH   4   7
BRANCH   1  19
ATOM     19  O   UNL     1       5.330   3.231  16.925  0.00  0.00    +0.000 OA
BRANCH  19  24
ATOM     20  C   UNL     1       8.124   5.630  12.739  0.00  0.00    +0.000 C 
ATOM     21  C   UNL     1       7.295   5.004  13.813  0.00  0.00    +0.000 A 
ATOM     22  C   UNL     1       6.233   4.149  13.531  0.00  0.00    +0.000 A 
ATOM     23  C   UNL     1       5.554   3.564  14.590  0.00  0.00    +0.000 A 
ATOM     24  C   UNL     1       5.970   3.861  15.873  0.00  0.00    +0.000 A 
ATOM     25  N   UNL     1       6.962   4.741  16.120  0.00  0.00    +0.000 NA
ATOM     26  N   UNL     1       7.643   5.301  15.082  0.00  0.00    +0.000 NA
ENDBRANCH  19  24
ENDBRANCH   1  19
TORSDOF 4
ENDMDL
MODEL 5
REMARK VINA RESULT:      -8.2      5.140      7.840
REMARK  Name = 
REMARK  5 active torsions:
REMARK  status: ('A' for Active; 'I' for Inactive)
REMARK    1  A    between atoms: C_1  and  C_2
REMARK    2  A    between atoms: C_5  and  O_6
REMARK    3  A    between atoms: O_6  and  C_7
REMARK    4  A    between atoms: C_10  and  N_11
REMARK    5  A    between atoms: N_11  and  C_12
REMARK                            x       y       z     vdW  Elec       q    Type
REMARK                         _______ _______ _______ _____ _____    ______ ____
ROOT
ATOM      1  C   UNL     1       6.498   6.011  16.957  0.00  0.00    +0.000 A 
ATOM      2  C   UNL     1       5.303   6.692  16.735  0.00  0.00    +0.000 A 
ATOM      3  C   UNL     1       4.321   6.735  17.731  0.00  0.00    +0.000 A 
ATOM      4  C   UNL     1       4.501   6.061  18.946  0.00  0.00    +0.000 A 
ATOM      5  C   UNL     1       5.733   5.445  19.185  0.00  0.00    +0.000 A 
ATOM      6  C   UNL     1       6.708   5.383  18.188  0.00  0.00    +0.000 A 
ENDROOT
BRANCH   4   7
ATOM      7  N   UNL     1       3.530   5.982  19.958  0.00  0.00    +0.000 N 
ATOM      8  H   UNL     1       3.119   6.900  20.118  0.00  0.00    +0.000 HD
BRANCH   7   9
ATOM      9  C   UNL     1       2.522   4.933  19.831  0.00  0.00    +0.000 C 
ATOM     10  C   UNL     1       1.559   5.212  18.648  0.00  0.00    +0.000 C 
ATOM     11  C   UNL     1       1.792   4.174  17.545  0.00  0.00    +0.000 C 
ATOM     12  C   UNL     1       2.707   3.188  18.186  0.00  0.00    +0.000 A 
ATOM     13  C   UNL     1       3.124   1.979  17.645  0.00  0.00    +0.000 A 
ATOM     14  C   UNL     1       3.985   1.180  18.396  0.00  0.00    +0.000 A 
ATOM     15  C   UNL     1       4.413   1.608  19.657  0.00  0.00    +0.000 A 
ATOM     16  F   UNL     1       5.227   0.818  20.370  0.00  0.00    +0.000 F 
ATOM     17  C   UNL     1       4.003   2.827  20.192  0.00  0.00    +0.000 A 
ATOM     18  C   UNL     1       3.142   3.618  19.443  0.00  0.00    +0.000 A 
ENDBRANCH   7   9
ENDBRANCH   4   7
BRANCH   1  19
ATOM     19  O   UNL     1       7.371   5.939  15.894  0.00  0.00    +0.000 OA
BRANCH  19  24
ATOM     20  C   UNL     1       6.070   2.709  11.539  0.00  0.00    +0.000 C 
ATOM     21  C   UNL     1       6.326   3.585  12.723  0.00  0.00    +0.000 A 
ATOM     22  C   UNL     1       5.609   3.462  13.909  0.00  0.00    +0.000 A 
ATOM     23  C   UNL     1       5.952   4.278  14.979  0.00  0.00    +0.000 A 
ATOM     24  C   UNL     1       6.992   5.170  14.809  0.00  0.00    +0.000 A 
ATOM     25  N   UNL     1       7.629   5.313  13.628  0.00  0.00    +0.000 NA
ATOM     26  N   UNL     1       7.307   4.501  12.584  0.00  0.00    +0.000 NA
ENDBRANCH  19  24
ENDBRANCH   1  19
TORSDOF 4
ENDMDL
MODEL 6
REMARK VINA RESULT:      -8.1      2.606      3.530
REMARK  Name = 
REMARK  5 active torsions:
REMARK  status: ('A' for Active; 'I' for Inactive)
REMARK    1  A    between atoms: C_1  and  C_2
REMARK    2  A    between atoms: C_5  and  O_6
REMARK    3  A    between atoms: O_6  and  C_7
REMARK    4  A    between atoms: C_10  and  N_11
REMARK    5  A    between atoms: N_11  and  C_12
REMARK                            x       y       z     vdW  Elec       q    Type
REMARK                         _______ _______ _______ _____ _____    ______ ____
ROOT
ATOM      1  C   UNL     1       0.789   9.735  19.407  0.00  0.00    +0.000 A 
ATOM      2  C   UNL     1       1.358   9.627  18.140  0.00  0.00    +0.000 A 
ATOM      3  C   UNL     1       2.229   8.572  17.847  0.00  0.00    +0.000 A 
ATOM      4  C   UNL     1       2.577   7.634  18.828  0.00  0.00    +0.000 A 
ATOM      5  C   UNL     1       1.942   7.710  20.071  0.00  0.00    +0.000 A 
ATOM      6  C   UNL     1       1.088   8.772  20.375  0.00  0.00    +0.000 A 
ENDROOT
BRANCH   4   7
ATOM      7  N   UNL     1       3.509   6.601  18.639  0.00  0.00    +0.000 N 
ATOM      8  H   UNL     1       3.633   6.081  19.506  0.00  0.00    +0.000 HD
BRANCH   7   9
ATOM      9  C   UNL     1       3.308   5.727  17.486  0.00  0.00    +0.000 C 
ATOM     10  C   UNL     1       4.652   5.382  16.795  0.00  0.00    +0.000 C 
ATOM     11  C   UNL     1       4.967   3.897  17.004  0.00  0.00    +0.000 C 
ATOM     12  C   UNL     1       3.713   3.359  17.603  0.00  0.00    +0.000 A 
ATOM     13  C   UNL     1       3.433   2.025  17.868  0.00  0.00    +0.000 A 
ATOM     14  C   UNL     1       2.198   1.708  18.432  0.00  0.00    +0.000 A 
ATOM     15  C   UNL     1       1.283   2.723  18.725  0.00  0.00    +0.000 A 
ATOM     16  F   UNL     1       0.095   2.396  19.251  0.00  0.00    +0.000 F 
ATOM     17  C   UNL     1       1.571   4.062  18.470  0.00  0.00    +0.000 A 
ATOM     18  C   UNL     1       2.799   4.374  17.903  0.00  0.00    +0.000 A 
ENDBRANCH   7   9
ENDBRANCH   4   7
BRANCH   1  19
ATOM     19  O   UNL     1       0.018  10.853  19.641  0.00  0.00    +0.000 OA
BRANCH  19  24
ATOM     20  C   UNL     1       2.909  15.521  20.609  0.00  0.00    +0.000 C 
ATOM     21  C   UNL     1       2.062  14.324  20.321  0.00  0.00    +0.000 A 
ATOM     22  C   UNL     1       1.277  14.226  19.176  0.00  0.00    +0.000 A 
ATOM     23  C   UNL     1       0.567  13.054  18.957  0.00  0.00    +0.000 A 
ATOM     24  C   UNL     1       0.679  12.042  19.890  0.00  0.00    +0.000 A 
ATOM     25  N   UNL     1       1.397  12.186  21.023  0.00  0.00    +0.000 NA
ATOM     26  N   UNL     1       2.110  13.328  21.230  0.00  0.00    +0.000 NA
ENDBRANCH  19  24
ENDBRANCH   1  19
TORSDOF 4
ENDMDL
MODEL 7
REMARK VINA RESULT:      -8.1      1.309      1.629
REMARK  Name = 
REMARK  5 active torsions:
REMARK  status: ('A' for Active; 'I' for Inactive)
REMARK    1  A    between atoms: C_1  and  C_2
REMARK    2  A    between atoms: C_5  and  O_6
REMARK    3  A    between atoms: O_6  and  C_7
REMARK    4  A    between atoms: C_10  and  N_11
REMARK    5  A    between atoms: N_11  and  C_12
REMARK                            x       y       z     vdW  Elec       q    Type
REMARK                         _______ _______ _______ _____ _____    ______ ____
ROOT
ATOM      1  C   UNL     1       0.502  10.179  18.811  0.00  0.00    +0.000 A 
ATOM      2  C   UNL     1       1.372   9.685  17.841  0.00  0.00    +0.000 A 
ATOM      3  C   UNL     1       2.171   8.569  18.115  0.00  0.00    +0.000 A 
ATOM      4  C   UNL     1       2.143   7.957  19.375  0.00  0.00    +0.000 A 
ATOM      5  C   UNL     1       1.213   8.416  20.312  0.00  0.00    +0.000 A 
ATOM      6  C   UNL     1       0.428   9.540  20.052  0.00  0.00    +0.000 A 
ENDROOT
BRANCH   4   7
ATOM      7  N   UNL     1       2.976   6.892  19.755  0.00  0.00    +0.000 N 
ATOM      8  H   UNL     1       2.914   6.744  20.760  0.00  0.00    +0.000 HD
BRANCH   7   9
ATOM      9  C   UNL     1       2.855   5.650  18.997  0.00  0.00    +0.000 C 
ATOM     10  C   UNL     1       4.142   5.352  18.186  0.00  0.00    +0.000 C 
ATOM     11  C   UNL     1       4.843   4.124  18.775  0.00  0.00    +0.000 C 
ATOM     12  C   UNL     1       3.852   3.597  19.756  0.00  0.00    +0.000 A 
ATOM     13  C   UNL     1       3.951   2.412  20.473  0.00  0.00    +0.000 A 
ATOM     14  C   UNL     1       2.919   2.080  21.348  0.00  0.00    +0.000 A 
ATOM     15  C   UNL     1       1.823   2.936  21.493  0.00  0.00    +0.000 A 
ATOM     16  F   UNL     1       0.833   2.590  22.327  0.00  0.00    +0.000 F 
ATOM     17  C   UNL     1       1.731   4.131  20.782  0.00  0.00    +0.000 A 
ATOM     18  C   UNL     1       2.759   4.456  19.908  0.00  0.00    +0.000 A 
ENDBRANCH   7   9
ENDBRANCH   4   7
BRANCH   1  19
ATOM     19  O   UNL     1      -0.179  11.334  18.494  0.00  0.00    +0.000 OA
BRANCH  19  24
ATOM     20  C   UNL     1      -5.714  11.220  17.829  0.00  0.00    +0.000 C 
ATOM     21  C   UNL     1      -4.231  11.156  17.998  0.00  0.00    +0.000 A 
ATOM     22  C   UNL     1      -3.426  10.333  17.216  0.00  0.00    +0.000 A 
ATOM     23  C   UNL     1      -2.052  10.379  17.400  0.00  0.00    +0.000 A 
ATOM     24  C   UNL     1      -1.553  11.245  18.353  0.00  0.00    +0.000 A 
ATOM     25  N   UNL     1      -2.358  11.987  19.142  0.00  0.00    +0.000 NA
ATOM     26  N   UNL     1      -3.705  11.957  18.949  0.00  0.00    +0.000 NA
ENDBRANCH  19  24
ENDBRANCH   1  19
TORSDOF 4
ENDMDL
MODEL 8
REMARK VINA RESULT:      -8.0      2.190      3.130
REMARK  Name = 
REMARK  5 active torsions:
REMARK  status: ('A' for Active; 'I' for Inactive)
REMARK    1  A    between atoms: C_1  and  C_2
REMARK    2  A    between atoms: C_5  and  O_6
REMARK    3  A    between atoms: O_6  and  C_7
REMARK    4  A    between atoms: C_10  and  N_11
REMARK    5  A    between atoms: N_11  and  C_12
REMARK                            x       y       z     vdW  Elec       q    Type
REMARK                         _______ _______ _______ _____ _____    ______ ____
ROOT
ATOM      1  C   UNL     1       0.489   9.738  19.527  0.00  0.00    +0.000 A 
ATOM      2  C   UNL     1       0.984   9.590  18.234  0.00  0.00    +0.000 A 
ATOM      3  C   UNL     1       1.913   8.584  17.946  0.00  0.00    +0.000 A 
ATOM      4  C   UNL     1       2.392   7.739  18.955  0.00  0.00    +0.000 A 
ATOM      5  C   UNL     1       1.831   7.849  20.231  0.00  0.00    +0.000 A 
ATOM      6  C   UNL     1       0.920   8.863  20.528  0.00  0.00    +0.000 A 
ENDROOT
BRANCH   4   7
ATOM      7  N   UNL     1       3.387   6.766  18.765  0.00  0.00    +0.000 N 
ATOM      8  H   UNL     1       3.498   6.213  19.613  0.00  0.00    +0.000 HD
BRANCH   7   9
ATOM      9  C   UNL     1       3.287   5.938  17.566  0.00  0.00    +0.000 C 
ATOM     10  C   UNL     1       4.680   5.684  16.936  0.00  0.00    +0.000 C 
ATOM     11  C   UNL     1       5.051   4.206  17.096  0.00  0.00    +0.000 C 
ATOM     12  C   UNL     1       3.793   3.587  17.601  0.00  0.00    +0.000 A 
ATOM     13  C   UNL     1       3.560   2.232  17.791  0.00  0.00    +0.000 A 
ATOM     14  C   UNL     1       2.313   1.836  18.272  0.00  0.00    +0.000 A 
ATOM     15  C   UNL     1       1.338   2.795  18.558  0.00  0.00    +0.000 A 
ATOM     16  F   UNL     1       0.140   2.393  19.003  0.00  0.00    +0.000 F 
ATOM     17  C   UNL     1       1.578   4.156  18.378  0.00  0.00    +0.000 A 
ATOM     18  C   UNL     1       2.819   4.547  17.895  0.00  0.00    +0.000 A 
ENDBRANCH   7   9
ENDBRANCH   4   7
BRANCH   1  19
ATOM     19  O   UNL     1      -0.350  10.810  19.745  0.00  0.00    +0.000 OA
BRANCH  19  24
ATOM     20  C   UNL     1       1.446  16.000  18.782  0.00  0.00    +0.000 C 
ATOM     21  C   UNL     1       1.055  14.580  19.034  0.00  0.00    +0.000 A 
ATOM     22  C   UNL     1       1.785  13.744  19.874  0.00  0.00    +0.000 A 
ATOM     23  C   UNL     1       1.317  12.457  20.099  0.00  0.00    +0.000 A 
ATOM     24  C   UNL     1       0.147  12.072  19.474  0.00  0.00    +0.000 A 
ATOM     25  N   UNL     1      -0.508  12.880  18.615  0.00  0.00    +0.000 NA
ATOM     26  N   UNL     1      -0.061  14.150  18.409  0.00  0.00    +0.000 NA
ENDBRANCH  19  24
ENDBRANCH   1  19
TORSDOF 4
ENDMDL
MODEL 9
REMARK VINA RESULT:      -8.0      4.284      8.723
REMARK  Name = 
REMARK  5 active torsions:
REMARK  status: ('A' for Active; 'I' for Inactive)
REMARK    1  A    between atoms: C_1  and  C_2
REMARK    2  A    between atoms: C_5  and  O_6
REMARK    3  A    between atoms: O_6  and  C_7
REMARK    4  A    between atoms: C_10  and  N_11
REMARK    5  A    between atoms: N_11  and  C_12
REMARK                            x       y       z     vdW  Elec       q    Type
REMARK                         _______ _______ _______ _____ _____    ______ ____
ROOT
ATOM      1  C   UNL     1       4.668   5.398  17.532  0.00  0.00    +0.000 A 
ATOM      2  C   UNL     1       3.599   4.696  18.084  0.00  0.00    +0.000 A 
ATOM      3  C   UNL     1       2.480   5.384  18.569  0.00  0.00    +0.000 A 
ATOM      4  C   UNL     1       2.434   6.784  18.548  0.00  0.00    +0.000 A 
ATOM      5  C   UNL     1       3.479   7.471  17.925  0.00  0.00    +0.000 A 
ATOM      6  C   UNL     1       4.605   6.791  17.457  0.00  0.00    +0.000 A 
ENDROOT
BRANCH   4   7
ATOM      7  N   UNL     1       1.390   7.548  19.095  0.00  0.00    +0.000 N 
ATOM      8  H   UNL     1       0.971   7.053  19.880  0.00  0.00    +0.000 HD
BRANCH   7   9
ATOM      9  C   UNL     1       1.681   8.945  19.406  0.00  0.00    +0.000 C 
ATOM     10  C   UNL     1       1.234   9.886  18.258  0.00  0.00    +0.000 C 
ATOM     11  C   UNL     1       0.052  10.739  18.728  0.00  0.00    +0.000 C 
ATOM     12  C   UNL     1      -0.022  10.452  20.189  0.00  0.00    +0.000 A 
ATOM     13  C   UNL     1      -0.852  11.076  21.110  0.00  0.00    +0.000 A 
ATOM     14  C   UNL     1      -0.780  10.676  22.443  0.00  0.00    +0.000 A 
ATOM     15  C   UNL     1       0.106   9.663  22.821  0.00  0.00    +0.000 A 
ATOM     16  F   UNL     1       0.173   9.304  24.110  0.00  0.00    +0.000 F 
ATOM     17  C   UNL     1       0.930   9.029  21.893  0.00  0.00    +0.000 A 
ATOM     18  C   UNL     1       0.858   9.434  20.567  0.00  0.00    +0.000 A 
ENDBRANCH   7   9
ENDBRANCH   4   7
BRANCH   1  19
ATOM     19  O   UNL     1       5.767   4.652  17.163  0.00  0.00    +0.000 OA
BRANCH  19  24
ATOM     20  C   UNL     1       7.491   4.648  11.861  0.00  0.00    +0.000 C 
ATOM     21  C   UNL     1       6.940   4.657  13.250  0.00  0.00    +0.000 A 
ATOM     22  C   UNL     1       5.798   3.943  13.603  0.00  0.00    +0.000 A 
ATOM     23  C   UNL     1       5.390   3.960  14.929  0.00  0.00    +0.000 A 
ATOM     24  C   UNL     1       6.141   4.685  15.832  0.00  0.00    +0.000 A 
ATOM     25  N   UNL     1       7.208   5.419  15.453  0.00  0.00    +0.000 NA
ATOM     26  N   UNL     1       7.622   5.388  14.156  0.00  0.00    +0.000 NA
ENDBRANCH  19  24
ENDBRANCH   1  19
TORSDOF 4
ENDMDL
