MODEL 1
REMARK VINA RESULT:      -7.5      0.000      0.000
REMARK  Name = 
REMARK  7 active torsions:
REMARK  status: ('A' for Active; 'I' for Inactive)
REMARK    1  A    between atoms: C_1  and  O_2
REMARK    2  A    between atoms: O_2  and  C_3
REMARK    3  A    between atoms: C_7  and  C_8
REMARK    4  A    between atoms: C_11  and  S_12
REMARK    5  A    between atoms: S_12  and  C_15
REMARK    6  A    between atoms: C_15  and  C_16
REMARK    7  A    between atoms: C_16  and  O_18
REMARK                            x       y       z     vdW  Elec       q    Type
REMARK                         _______ _______ _______ _____ _____    ______ ____
ROOT
ATOM      1  C   UNL     1       2.231   7.802  18.980  0.00  0.00    +0.000 A 
ATOM      2  C   UNL     1       3.074   7.806  17.852  0.00  0.00    +0.000 A 
ATOM      3  C   UNL     1       3.937   6.742  17.586  0.00  0.00    +0.000 A 
ATOM      4  C   UNL     1       3.975   5.647  18.452  0.00  0.00    +0.000 A 
ATOM      5  C   UNL     1       3.166   5.614  19.585  0.00  0.00    +0.000 A 
ATOM      6  C   UNL     1       2.314   6.689  19.845  0.00  0.00    +0.000 A 
ENDROOT
BRANCH   1  11
ATOM      7  C   UNL     1      -0.117  10.185  20.807  0.00  0.00    +0.000 A 
ATOM      8  C   UNL     1      -0.603  10.942  19.739  0.00  0.00    +0.000 A 
ATOM      9  C   UNL     1      -0.150  10.712  18.448  0.00  0.00    +0.000 A 
ATOM     10  C   UNL     1       0.791   9.713  18.213  0.00  0.00    +0.000 A 
ATOM     11  C   UNL     1       1.289   8.910  19.258  0.00  0.00    +0.000 A 
ATOM     12  C   UNL     1       0.830   9.185  20.561  0.00  0.00    +0.000 A 
BRANCH   7  14
ATOM     13  C   UNL     1      -0.266   9.693  23.131  0.00  0.00    +0.000 C 
ATOM     14  O   UNL     1      -0.654  10.500  22.026  0.00  0.00    +0.000 OA
ENDBRANCH   7  14
ENDBRANCH   1  11
BRANCH   4  15
ATOM     15  S   UNL     1       5.032   4.291  18.057  0.00  0.00    +0.000 S 
ATOM     16  O   UNL     1       6.153   4.277  18.988  0.00  0.00    +0.000 OA
ATOM     17  O   UNL     1       4.185   3.122  17.920  0.00  0.00    +0.000 OA
BRANCH  15  18
ATOM     18  C   UNL     1       5.711   4.650  16.482  0.00  0.00    +0.000 C 
BRANCH  18  19
ATOM     19  C   UNL     1       7.123   5.091  16.617  0.00  0.00    +0.000 C 
ATOM     20  O   UNL     1       7.492   6.220  16.322  0.00  0.00    +0.000 OA
BRANCH  19  21
ATOM     21  O   UNL     1       7.998   4.141  17.015  0.00  0.00    +0.000 OA
ATOM     22  H   UNL     1       8.608   3.801  16.317  0.00  0.00    +0.000 HD
ENDBRANCH  19  21
ENDBRANCH  18  19
ENDBRANCH  15  18
ENDBRANCH   4  15
TORSDOF 6
ENDMDL
MODEL 2
REMARK VINA RESULT:      -7.3      0.610      1.216
REMARK  Name = 
REMARK  7 active torsions:
REMARK  status: ('A' for Active; 'I' for Inactive)
REMARK    1  A    between atoms: C_1  and  O_2
REMARK    2  A    between atoms: O_2  and  C_3
REMARK    3  A    between atoms: C_7  and  C_8
REMARK    4  A    between atoms: C_11  and  S_12
REMARK    5  A    between atoms: S_12  and  C_15
REMARK    6  A    between atoms: C_15  and  C_16
REMARK    7  A    between atoms: C_16  and  O_18
REMARK                            x       y       z     vdW  Elec       q    Type
REMARK                         _______ _______ _______ _____ _____    ______ ____
ROOT
ATOM      1  C   UNL     1       2.176   7.721  19.289  0.00  0.00    +0.000 A 
ATOM      2  C   UNL     1       2.291   6.538  20.045  0.00  0.00    +0.000 A 
ATOM      3  C   UNL     1       3.112   5.488  19.631  0.00  0.00    +0.000 A 
ATOM      4  C   UNL     1       3.837   5.602  18.442  0.00  0.00    +0.000 A 
ATOM      5  C   UNL     1       3.738   6.751  17.662  0.00  0.00    +0.000 A 
ATOM      6  C   UNL     1       2.907   7.791  18.083  0.00  0.00    +0.000 A 
ENDROOT
BRANCH   1  11
ATOM      7  C   UNL     1       0.285  10.176  21.508  0.00  0.00    +0.000 A 
ATOM      8  C   UNL     1      -0.380  10.938  20.546  0.00  0.00    +0.000 A 
ATOM      9  C   UNL     1      -0.191  10.688  19.195  0.00  0.00    +0.000 A 
ATOM     10  C   UNL     1       0.662   9.664  18.793  0.00  0.00    +0.000 A 
ATOM     11  C   UNL     1       1.333   8.855  19.731  0.00  0.00    +0.000 A 
ATOM     12  C   UNL     1       1.141   9.150  21.095  0.00  0.00    +0.000 A 
BRANCH   7  14
ATOM     13  C   UNL     1      -1.164  11.296  23.029  0.00  0.00    +0.000 C 
ATOM     14  O   UNL     1       0.002  10.512  22.804  0.00  0.00    +0.000 OA
ENDBRANCH   7  14
ENDBRANCH   1  11
BRANCH   4  15
ATOM     15  S   UNL     1       4.913   4.283  17.977  0.00  0.00    +0.000 S 
ATOM     16  O   UNL     1       5.996   4.190  18.948  0.00  0.00    +0.000 OA
ATOM     17  O   UNL     1       4.075   3.131  17.707  0.00  0.00    +0.000 OA
BRANCH  15  18
ATOM     18  C   UNL     1       5.654   4.774  16.467  0.00  0.00    +0.000 C 
BRANCH  18  19
ATOM     19  C   UNL     1       7.074   5.149  16.687  0.00  0.00    +0.000 C 
ATOM     20  O   UNL     1       7.487   6.290  16.531  0.00  0.00    +0.000 OA
BRANCH  19  21
ATOM     21  O   UNL     1       7.907   4.131  16.998  0.00  0.00    +0.000 OA
ATOM     22  H   UNL     1       7.521   3.225  16.928  0.00  0.00    +0.000 HD
ENDBRANCH  19  21
ENDBRANCH  18  19
ENDBRANCH  15  18
ENDBRANCH   4  15
TORSDOF 6
ENDMDL
MODEL 3
REMARK VINA RESULT:      -7.3      2.690      7.862
REMARK  Name = 
REMARK  7 active torsions:
REMARK  status: ('A' for Active; 'I' for Inactive)
REMARK    1  A    between atoms: C_1  and  O_2
REMARK    2  A    between atoms: O_2  and  C_3
REMARK    3  A    between atoms: C_7  and  C_8
REMARK    4  A    between atoms: C_11  and  S_12
REMARK    5  A    between atoms: S_12  and  C_15
REMARK    6  A    between atoms: C_15  and  C_16
REMARK    7  A    between atoms: C_16  and  O_18
REMARK                            x       y       z     vdW  Elec       q    Type
REMARK                         _______ _______ _______ _____ _____    ______ ____
ROOT
ATOM      1  C   UNL     1       2.778   7.203  18.364  0.00  0.00    +0.000 A 
ATOM      2  C   UNL     1       2.390   7.042  19.707  0.00  0.00    +0.000 A 
ATOM      3  C   UNL     1       1.645   8.018  20.370  0.00  0.00    +0.000 A 
ATOM      4  C   UNL     1       1.274   9.184  19.697  0.00  0.00    +0.000 A 
ATOM      5  C   UNL     1       1.651   9.383  18.371  0.00  0.00    +0.000 A 
ATOM      6  C   UNL     1       2.404   8.403  17.722  0.00  0.00    +0.000 A 
ENDROOT
BRANCH   1  11
ATOM      7  C   UNL     1       4.093   3.811  17.224  0.00  0.00    +0.000 A 
ATOM      8  C   UNL     1       5.100   4.205  16.340  0.00  0.00    +0.000 A 
ATOM      9  C   UNL     1       5.328   5.550  16.086  0.00  0.00    +0.000 A 
ATOM     10  C   UNL     1       4.552   6.516  16.722  0.00  0.00    +0.000 A 
ATOM     11  C   UNL     1       3.543   6.162  17.638  0.00  0.00    +0.000 A 
ATOM     12  C   UNL     1       3.317   4.788  17.856  0.00  0.00    +0.000 A 
BRANCH   7  14
ATOM     13  C   UNL     1       2.804   1.987  18.046  0.00  0.00    +0.000 C 
ATOM     14  O   UNL     1       3.980   2.459  17.400  0.00  0.00    +0.000 OA
ENDBRANCH   7  14
ENDBRANCH   1  11
BRANCH   4  15
ATOM     15  S   UNL     1       0.281  10.372  20.542  0.00  0.00    +0.000 S 
ATOM     16  O   UNL     1       1.152  11.275  21.285  0.00  0.00    +0.000 OA
ATOM     17  O   UNL     1      -0.660  10.901  19.575  0.00  0.00    +0.000 OA
BRANCH  15  18
ATOM     18  C   UNL     1      -0.628   9.476  21.743  0.00  0.00    +0.000 C 
BRANCH  18  19
ATOM     19  C   UNL     1      -0.503  10.123  23.074  0.00  0.00    +0.000 C 
ATOM     20  O   UNL     1      -1.226  11.043  23.430  0.00  0.00    +0.000 OA
BRANCH  19  21
ATOM     21  O   UNL     1       0.515   9.682  23.846  0.00  0.00    +0.000 OA
ATOM     22  H   UNL     1       0.798  10.292  24.570  0.00  0.00    +0.000 HD
ENDBRANCH  19  21
ENDBRANCH  18  19
ENDBRANCH  15  18
ENDBRANCH   4  15
TORSDOF 6
ENDMDL
MODEL 4
REMARK VINA RESULT:      -7.1      1.416      2.594
REMARK  Name = 
REMARK  7 active torsions:
REMARK  status: ('A' for Active; 'I' for Inactive)
REMARK    1  A    between atoms: C_1  and  O_2
REMARK    2  A    between atoms: O_2  and  C_3
REMARK    3  A    between atoms: C_7  and  C_8
REMARK    4  A    between atoms: C_11  and  S_12
REMARK    5  A    between atoms: S_12  and  C_15
REMARK    6  A    between atoms: C_15  and  C_16
REMARK    7  A    between atoms: C_16  and  O_18
REMARK                            x       y       z     vdW  Elec       q    Type
REMARK                         _______ _______ _______ _____ _____    ______ ____
ROOT
ATOM      1  C   UNL     1       2.193   7.680  19.124  0.00  0.00    +0.000 A 
ATOM      2  C   UNL     1       3.033   7.576  17.998  0.00  0.00    +0.000 A 
ATOM      3  C   UNL     1       3.847   6.459  17.800  0.00  0.00    +0.000 A 
ATOM      4  C   UNL     1       3.838   5.420  18.733  0.00  0.00    +0.000 A 
ATOM      5  C   UNL     1       3.030   5.495  19.865  0.00  0.00    +0.000 A 
ATOM      6  C   UNL     1       2.227   6.621  20.056  0.00  0.00    +0.000 A 
ENDROOT
BRANCH   1  11
ATOM      7  C   UNL     1      -0.070  10.255  20.789  0.00  0.00    +0.000 A 
ATOM      8  C   UNL     1      -0.495  10.987  19.678  0.00  0.00    +0.000 A 
ATOM      9  C   UNL     1      -0.027  10.677  18.410  0.00  0.00    +0.000 A 
ATOM     10  C   UNL     1       0.868   9.624  18.240  0.00  0.00    +0.000 A 
ATOM     11  C   UNL     1       1.302   8.845  19.331  0.00  0.00    +0.000 A 
ATOM     12  C   UNL     1       0.830   9.200  20.610  0.00  0.00    +0.000 A 
BRANCH   7  14
ATOM     13  C   UNL     1      -0.414   9.796  23.100  0.00  0.00    +0.000 C 
ATOM     14  O   UNL     1      -0.617  10.650  21.980  0.00  0.00    +0.000 OA
ENDBRANCH   7  14
ENDBRANCH   1  11
BRANCH   4  15
ATOM     15  S   UNL     1       4.831   3.995  18.425  0.00  0.00    +0.000 S 
ATOM     16  O   UNL     1       4.532   3.489  17.091  0.00  0.00    +0.000 OA
ATOM     17  O   UNL     1       6.192   4.344  18.782  0.00  0.00    +0.000 OA
BRANCH  15  18
ATOM     18  C   UNL     1       4.279   2.768  19.547  0.00  0.00    +0.000 C 
BRANCH  18  19
ATOM     19  C   UNL     1       3.392   1.798  18.856  0.00  0.00    +0.000 C 
ATOM     20  O   UNL     1       2.171   1.890  18.877  0.00  0.00    +0.000 OA
BRANCH  19  21
ATOM     21  O   UNL     1       4.014   0.756  18.260  0.00  0.00    +0.000 OA
ATOM     22  H   UNL     1       3.837   0.648  17.295  0.00  0.00    +0.000 HD
ENDBRANCH  19  21
ENDBRANCH  18  19
ENDBRANCH  15  18
ENDBRANCH   4  15
TORSDOF 6
ENDMDL
MODEL 5
REMARK VINA RESULT:      -7.1      3.160      7.817
REMARK  Name = 
REMARK  7 active torsions:
REMARK  status: ('A' for Active; 'I' for Inactive)
REMARK    1  A    between atoms: C_1  and  O_2
REMARK    2  A    between atoms: O_2  and  C_3
REMARK    3  A    between atoms: C_7  and  C_8
REMARK    4  A    between atoms: C_11  and  S_12
REMARK    5  A    between atoms: S_12  and  C_15
REMARK    6  A    between atoms: C_15  and  C_16
REMARK    7  A    between atoms: C_16  and  O_18
REMARK                            x       y       z     vdW  Elec       q    Type
REMARK                         _______ _______ _______ _____ _____    ______ ____
ROOT
ATOM      1  C   UNL     1       2.237   7.448  18.576  0.00  0.00    +0.000 A 
ATOM      2  C   UNL     1       2.053   8.607  17.798  0.00  0.00    +0.000 A 
ATOM      3  C   UNL     1       1.520   9.774  18.347  0.00  0.00    +0.000 A 
ATOM      4  C   UNL     1       1.156   9.803  19.696  0.00  0.00    +0.000 A 
ATOM      5  C   UNL     1       1.312   8.672  20.493  0.00  0.00    +0.000 A 
ATOM      6  C   UNL     1       1.838   7.508  19.929  0.00  0.00    +0.000 A 
ENDROOT
BRANCH   1  11
ATOM      7  C   UNL     1       2.721   3.811  17.542  0.00  0.00    +0.000 A 
ATOM      8  C   UNL     1       4.029   3.850  17.055  0.00  0.00    +0.000 A 
ATOM      9  C   UNL     1       4.734   5.044  17.025  0.00  0.00    +0.000 A 
ATOM     10  C   UNL     1       4.137   6.213  17.491  0.00  0.00    +0.000 A 
ATOM     11  C   UNL     1       2.829   6.212  18.014  0.00  0.00    +0.000 A 
ATOM     12  C   UNL     1       2.129   4.990  18.007  0.00  0.00    +0.000 A 
BRANCH   7  14
ATOM     13  C   UNL     1       1.261   2.261  18.606  0.00  0.00    +0.000 C 
ATOM     14  O   UNL     1       2.141   2.572  17.533  0.00  0.00    +0.000 OA
ENDBRANCH   7  14
ENDBRANCH   1  11
BRANCH   4  15
ATOM     15  S   UNL     1       0.543  11.310  20.376  0.00  0.00    +0.000 S 
ATOM     16  O   UNL     1       1.497  11.810  21.358  0.00  0.00    +0.000 OA
ATOM     17  O   UNL     1       0.143  12.145  19.260  0.00  0.00    +0.000 OA
BRANCH  15  18
ATOM     18  C   UNL     1      -0.901  10.884  21.273  0.00  0.00    +0.000 C 
BRANCH  18  19
ATOM     19  C   UNL     1      -0.707  11.152  22.721  0.00  0.00    +0.000 C 
ATOM     20  O   UNL     1      -1.098  12.179  23.260  0.00  0.00    +0.000 OA
BRANCH  19  21
ATOM     21  O   UNL     1       0.000  10.221  23.399  0.00  0.00    +0.000 OA
ATOM     22  H   UNL     1       0.928  10.080  23.091  0.00  0.00    +0.000 HD
ENDBRANCH  19  21
ENDBRANCH  18  19
ENDBRANCH  15  18
ENDBRANCH   4  15
TORSDOF 6
ENDMDL
MODEL 6
REMARK VINA RESULT:      -7.1      2.393      7.977
REMARK  Name = 
REMARK  7 active torsions:
REMARK  status: ('A' for Active; 'I' for Inactive)
REMARK    1  A    between atoms: C_1  and  O_2
REMARK    2  A    between atoms: O_2  and  C_3
REMARK    3  A    between atoms: C_7  and  C_8
REMARK    4  A    between atoms: C_11  and  S_12
REMARK    5  A    between atoms: S_12  and  C_15
REMARK    6  A    between atoms: C_15  and  C_16
REMARK    7  A    between atoms: C_16  and  O_18
REMARK                            x       y       z     vdW  Elec       q    Type
REMARK                         _______ _______ _______ _____ _____    ______ ____
ROOT
ATOM      1  C   UNL     1       2.433   7.090  18.681  0.00  0.00    +0.000 A 
ATOM      2  C   UNL     1       2.082   7.197  20.040  0.00  0.00    +0.000 A 
ATOM      3  C   UNL     1       1.494   8.357  20.549  0.00  0.00    +0.000 A 
ATOM      4  C   UNL     1       1.248   9.439  19.702  0.00  0.00    +0.000 A 
ATOM      5  C   UNL     1       1.593   9.373  18.354  0.00  0.00    +0.000 A 
ATOM      6  C   UNL     1       2.189   8.212  17.859  0.00  0.00    +0.000 A 
ENDROOT
BRANCH   1  11
ATOM      7  C   UNL     1       4.939   4.628  17.201  0.00  0.00    +0.000 A 
ATOM      8  C   UNL     1       4.108   3.537  16.937  0.00  0.00    +0.000 A 
ATOM      9  C   UNL     1       2.762   3.580  17.268  0.00  0.00    +0.000 A 
ATOM     10  C   UNL     1       2.231   4.723  17.861  0.00  0.00    +0.000 A 
ATOM     11  C   UNL     1       3.029   5.855  18.121  0.00  0.00    +0.000 A 
ATOM     12  C   UNL     1       4.397   5.771  17.798  0.00  0.00    +0.000 A 
BRANCH   7  14
ATOM     13  C   UNL     1       7.246   4.851  17.744  0.00  0.00    +0.000 C 
ATOM     14  O   UNL     1       6.241   4.465  16.814  0.00  0.00    +0.000 OA
ENDBRANCH   7  14
ENDBRANCH   1  11
BRANCH   4  15
ATOM     15  S   UNL     1       0.449  10.867  20.361  0.00  0.00    +0.000 S 
ATOM     16  O   UNL     1       1.381  11.570  21.235  0.00  0.00    +0.000 OA
ATOM     17  O   UNL     1      -0.166  11.559  19.246  0.00  0.00    +0.000 OA
BRANCH  15  18
ATOM     18  C   UNL     1      -0.833  10.270  21.396  0.00  0.00    +0.000 C 
BRANCH  18  19
ATOM     19  C   UNL     1      -0.588  10.672  22.805  0.00  0.00    +0.000 C 
ATOM     20  O   UNL     1      -1.094  11.669  23.303  0.00  0.00    +0.000 OA
BRANCH  19  21
ATOM     21  O   UNL     1       0.293   9.907  23.488  0.00  0.00    +0.000 OA
ATOM     22  H   UNL     1       0.890   9.346  22.937  0.00  0.00    +0.000 HD
ENDBRANCH  19  21
ENDBRANCH  18  19
ENDBRANCH  15  18
ENDBRANCH   4  15
TORSDOF 6
ENDMDL
MODEL 7
REMARK VINA RESULT:      -7.1      2.812      7.961
REMARK  Name = 
REMARK  7 active torsions:
REMARK  status: ('A' for Active; 'I' for Inactive)
REMARK    1  A    between atoms: C_1  and  O_2
REMARK    2  A    between atoms: O_2  and  C_3
REMARK    3  A    between atoms: C_7  and  C_8
REMARK    4  A    between atoms: C_11  and  S_12
REMARK    5  A    between atoms: S_12  and  C_15
REMARK    6  A    between atoms: C_15  and  C_16
REMARK    7  A    between atoms: C_16  and  O_18
REMARK                            x       y       z     vdW  Elec       q    Type
REMARK                         _______ _______ _______ _____ _____    ______ ____
ROOT
ATOM      1  C   UNL     1       2.405   7.213  18.904  0.00  0.00    +0.000 A 
ATOM      2  C   UNL     1       1.914   7.460  20.200  0.00  0.00    +0.000 A 
ATOM      3  C   UNL     1       1.301   8.670  20.526  0.00  0.00    +0.000 A 
ATOM      4  C   UNL     1       1.170   9.666  19.555  0.00  0.00    +0.000 A 
ATOM      5  C   UNL     1       1.656   9.462  18.266  0.00  0.00    +0.000 A 
ATOM      6  C   UNL     1       2.275   8.250  17.954  0.00  0.00    +0.000 A 
ENDROOT
BRANCH   1  11
ATOM      7  C   UNL     1       4.988   4.458  18.388  0.00  0.00    +0.000 A 
ATOM      8  C   UNL     1       4.224   3.508  17.706  0.00  0.00    +0.000 A 
ATOM      9  C   UNL     1       2.881   3.738  17.449  0.00  0.00    +0.000 A 
ATOM     10  C   UNL     1       2.289   4.928  17.867  0.00  0.00    +0.000 A 
ATOM     11  C   UNL     1       3.030   5.922  18.535  0.00  0.00    +0.000 A 
ATOM     12  C   UNL     1       4.385   5.649  18.805  0.00  0.00    +0.000 A 
BRANCH   7  14
ATOM     13  C   UNL     1       7.263   4.824  17.789  0.00  0.00    +0.000 C 
ATOM     14  O   UNL     1       6.302   4.118  18.565  0.00  0.00    +0.000 OA
ENDBRANCH   7  14
ENDBRANCH   1  11
BRANCH   4  15
ATOM     15  S   UNL     1       0.337  11.161  19.981  0.00  0.00    +0.000 S 
ATOM     16  O   UNL     1      -1.097  10.972  19.802  0.00  0.00    +0.000 OA
ATOM     17  O   UNL     1       0.861  11.585  21.265  0.00  0.00    +0.000 OA
BRANCH  15  18
ATOM     18  C   UNL     1       0.826  12.345  18.785  0.00  0.00    +0.000 C 
BRANCH  18  19
ATOM     19  C   UNL     1      -0.323  13.212  18.417  0.00  0.00    +0.000 C 
ATOM     20  O   UNL     1      -0.608  14.227  19.038  0.00  0.00    +0.000 OA
BRANCH  19  21
ATOM     21  O   UNL     1      -1.088  12.768  17.395  0.00  0.00    +0.000 OA
ATOM     22  H   UNL     1      -0.869  13.137  16.506  0.00  0.00    +0.000 HD
ENDBRANCH  19  21
ENDBRANCH  18  19
ENDBRANCH  15  18
ENDBRANCH   4  15
TORSDOF 6
ENDMDL
MODEL 8
REMARK VINA RESULT:      -7.1      3.280      7.850
REMARK  Name = 
REMARK  7 active torsions:
REMARK  status: ('A' for Active; 'I' for Inactive)
REMARK    1  A    between atoms: C_1  and  O_2
REMARK    2  A    between atoms: O_2  and  C_3
REMARK    3  A    between atoms: C_7  and  C_8
REMARK    4  A    between atoms: C_11  and  S_12
REMARK    5  A    between atoms: S_12  and  C_15
REMARK    6  A    between atoms: C_15  and  C_16
REMARK    7  A    between atoms: C_16  and  O_18
REMARK                            x       y       z     vdW  Elec       q    Type
REMARK                         _______ _______ _______ _____ _____    ______ ____
ROOT
ATOM      1  C   UNL     1       2.316   7.394  18.523  0.00  0.00    +0.000 A 
ATOM      2  C   UNL     1       1.912   7.546  19.862  0.00  0.00    +0.000 A 
ATOM      3  C   UNL     1       1.357   8.741  20.323  0.00  0.00    +0.000 A 
ATOM      4  C   UNL     1       1.198   9.816  19.446  0.00  0.00    +0.000 A 
ATOM      5  C   UNL     1       1.598   9.706  18.116  0.00  0.00    +0.000 A 
ATOM      6  C   UNL     1       2.159   8.509  17.670  0.00  0.00    +0.000 A 
ENDROOT
BRANCH   1  11
ATOM      7  C   UNL     1       2.740   3.697  17.697  0.00  0.00    +0.000 A 
ATOM      8  C   UNL     1       4.025   3.698  17.150  0.00  0.00    +0.000 A 
ATOM      9  C   UNL     1       4.732   4.883  17.014  0.00  0.00    +0.000 A 
ATOM     10  C   UNL     1       4.161   6.082  17.432  0.00  0.00    +0.000 A 
ATOM     11  C   UNL     1       2.878   6.122  18.012  0.00  0.00    +0.000 A 
ATOM     12  C   UNL     1       2.174   4.906  18.113  0.00  0.00    +0.000 A 
BRANCH   7  14
ATOM     13  C   UNL     1       1.079   2.325  18.710  0.00  0.00    +0.000 C 
ATOM     14  O   UNL     1       2.156   2.463  17.791  0.00  0.00    +0.000 OA
ENDBRANCH   7  14
ENDBRANCH   1  11
BRANCH   4  15
ATOM     15  S   UNL     1       0.438  11.292  20.042  0.00  0.00    +0.000 S 
ATOM     16  O   UNL     1      -1.010  11.155  19.938  0.00  0.00    +0.000 OA
ATOM     17  O   UNL     1       1.050  11.595  21.321  0.00  0.00    +0.000 OA
BRANCH  15  18
ATOM     18  C   UNL     1       0.889  12.557  18.917  0.00  0.00    +0.000 C 
BRANCH  18  19
ATOM     19  C   UNL     1      -0.297  13.373  18.555  0.00  0.00    +0.000 C 
ATOM     20  O   UNL     1      -0.633  14.366  19.187  0.00  0.00    +0.000 OA
BRANCH  19  21
ATOM     21  O   UNL     1      -1.036  12.907  17.523  0.00  0.00    +0.000 OA
ATOM     22  H   UNL     1      -1.848  12.404  17.771  0.00  0.00    +0.000 HD
ENDBRANCH  19  21
ENDBRANCH  18  19
ENDBRANCH  15  18
ENDBRANCH   4  15
TORSDOF 6
ENDMDL
MODEL 9
REMARK VINA RESULT:      -7.1      3.131      7.891
REMARK  Name = 
REMARK  7 active torsions:
REMARK  status: ('A' for Active; 'I' for Inactive)
REMARK    1  A    between atoms: C_1  and  O_2
REMARK    2  A    between atoms: O_2  and  C_3
REMARK    3  A    between atoms: C_7  and  C_8
REMARK    4  A    between atoms: C_11  and  S_12
REMARK    5  A    between atoms: S_12  and  C_15
REMARK    6  A    between atoms: C_15  and  C_16
REMARK    7  A    between atoms: C_16  and  O_18
REMARK                            x       y       z     vdW  Elec       q    Type
REMARK                         _______ _______ _______ _____ _____    ______ ____
ROOT
ATOM      1  C   UNL     1       2.312   7.549  18.488  0.00  0.00    +0.000 A 
ATOM      2  C   UNL     1       2.007   8.651  17.667  0.00  0.00    +0.000 A 
ATOM      3  C   UNL     1       1.380   9.788  18.180  0.00  0.00    +0.000 A 
ATOM      4  C   UNL     1       1.042   9.842  19.534  0.00  0.00    +0.000 A 
ATOM      5  C   UNL     1       1.317   8.766  20.374  0.00  0.00    +0.000 A 
ATOM      6  C   UNL     1       1.936   7.631  19.847  0.00  0.00    +0.000 A 
ENDROOT
BRANCH   1  11
ATOM      7  C   UNL     1       3.094   3.934  17.569  0.00  0.00    +0.000 A 
ATOM      8  C   UNL     1       4.395   4.064  17.079  0.00  0.00    +0.000 A 
ATOM      9  C   UNL     1       5.000   5.311  17.011  0.00  0.00    +0.000 A 
ATOM     10  C   UNL     1       4.308   6.441  17.440  0.00  0.00    +0.000 A 
ATOM     11  C   UNL     1       3.004   6.349  17.964  0.00  0.00    +0.000 A 
ATOM     12  C   UNL     1       2.407   5.074  17.997  0.00  0.00    +0.000 A 
BRANCH   7  14
ATOM     13  C   UNL     1       3.421   1.678  18.257  0.00  0.00    +0.000 C 
ATOM     14  O   UNL     1       2.618   2.651  17.599  0.00  0.00    +0.000 OA
ENDBRANCH   7  14
ENDBRANCH   1  11
BRANCH   4  15
ATOM     15  S   UNL     1       0.306  11.316  20.165  0.00  0.00    +0.000 S 
ATOM     16  O   UNL     1      -1.139  11.236  19.990  0.00  0.00    +0.000 OA
ATOM     17  O   UNL     1       0.868  11.538  21.483  0.00  0.00    +0.000 OA
BRANCH  15  18
ATOM     18  C   UNL     1       0.851  12.614  19.122  0.00  0.00    +0.000 C 
BRANCH  18  19
ATOM     19  C   UNL     1      -0.306  13.408  18.637  0.00  0.00    +0.000 C 
ATOM     20  O   UNL     1      -0.689  14.427  19.197  0.00  0.00    +0.000 OA
BRANCH  19  21
ATOM     21  O   UNL     1      -0.966  12.893  17.575  0.00  0.00    +0.000 OA
ATOM     22  H   UNL     1      -0.497  12.956  16.708  0.00  0.00    +0.000 HD
ENDBRANCH  19  21
ENDBRANCH  18  19
ENDBRANCH  15  18
ENDBRANCH   4  15
TORSDOF 6
ENDMDL
