MODEL 1
REMARK VINA RESULT:      -8.2      0.000      0.000
REMARK  Name = 
REMARK  6 active torsions:
REMARK  status: ('A' for Active; 'I' for Inactive)
REMARK    1  A    between atoms: C_1  and  N_2
REMARK    2  A    between atoms: C_5  and  C_6
REMARK    3  A    between atoms: C_6  and  N_7
REMARK    4  A    between atoms: C_13  and  C_14
REMARK    5  A    between atoms: C_17  and  C_18
REMARK    6  A    between atoms: C_23  and  O_24
REMARK                            x       y       z     vdW  Elec       q    Type
REMARK                         _______ _______ _______ _____ _____    ______ ____
ROOT
ATOM      1  N   UNL     1      -1.878  12.184  20.657  0.00  0.00    +0.000 N 
ATOM      2  C   UNL     1      -1.128  11.222  21.258  0.00  0.00    +0.000 C 
ATOM      3  N   UNL     1      -0.843  11.117  22.510  0.00  0.00    +0.000 NA
ATOM      4  C   UNL     1      -0.023  10.044  22.782  0.00  0.00    +0.000 C 
ATOM      5  O   UNL     1       0.345   9.702  23.896  0.00  0.00    +0.000 OA
ATOM      6  C   UNL     1       0.380   9.337  21.535  0.00  0.00    +0.000 C 
ATOM      7  C   UNL     1       1.280   8.347  21.525  0.00  0.00    +0.000 C 
ATOM      8  S   UNL     1      -0.453  10.016  20.195  0.00  0.00    +0.000 S 
ATOM      9  H   UNL     1      -1.811  12.182  19.644  0.00  0.00    +0.000 HD
ENDROOT
BRANCH   7  10
ATOM     10  C   UNL     1       1.731   7.666  20.363  0.00  0.00    +0.000 A 
ATOM     11  C   UNL     1       2.179   8.285  19.224  0.00  0.00    +0.000 A 
ATOM     12  S   UNL     1       2.627   7.101  18.082  0.00  0.00    +0.000 S 
ATOM     13  C   UNL     1       2.284   5.849  19.237  0.00  0.00    +0.000 A 
ATOM     14  N   UNL     1       1.754   6.289  20.368  0.00  0.00    +0.000 NA
BRANCH  13  15
ATOM     15  C   UNL     1       2.496   4.422  18.904  0.00  0.00    +0.000 A 
ATOM     16  C   UNL     1       3.557   4.080  18.045  0.00  0.00    +0.000 A 
ATOM     17  C   UNL     1       3.830   2.745  17.722  0.00  0.00    +0.000 A 
ATOM     18  C   UNL     1       3.047   1.723  18.249  0.00  0.00    +0.000 A 
ATOM     19  C   UNL     1       1.972   2.037  19.079  0.00  0.00    +0.000 A 
ATOM     20  C   UNL     1       1.695   3.373  19.390  0.00  0.00    +0.000 A 
BRANCH  20  21
ATOM     21  O   UNL     1       0.591   3.635  20.161  0.00  0.00    +0.000 OA
ATOM     22  H   UNL     1      -0.209   3.570  19.616  0.00  0.00    +0.000 HD
ENDBRANCH  20  21
ENDBRANCH  13  15
ENDBRANCH   7  10
BRANCH   1  23
ATOM     23  C   UNL     1      -2.031  13.494  21.267  0.00  0.00    +0.000 C 
BRANCH  23  28
ATOM     24  C   UNL     1      -7.121  12.652  23.811  0.00  0.00    +0.000 C 
ATOM     25  N   UNL     1      -5.785  12.549  23.224  0.00  0.00    +0.000 NA
ATOM     26  C   UNL     1      -5.835  12.866  21.791  0.00  0.00    +0.000 C 
ATOM     27  C   UNL     1      -4.455  12.751  21.144  0.00  0.00    +0.000 C 
ATOM     28  C   UNL     1      -3.436  13.650  21.856  0.00  0.00    +0.000 C 
ATOM     29  C   UNL     1      -3.434  13.318  23.354  0.00  0.00    +0.000 C 
ATOM     30  C   UNL     1      -4.843  13.419  23.941  0.00  0.00    +0.000 C 
ENDBRANCH  23  28
ENDBRANCH   1  23
TORSDOF 5
ENDMDL
MODEL 2
REMARK VINA RESULT:      -7.8      3.746      6.203
REMARK  Name = 
REMARK  6 active torsions:
REMARK  status: ('A' for Active; 'I' for Inactive)
REMARK    1  A    between atoms: C_1  and  N_2
REMARK    2  A    between atoms: C_5  and  C_6
REMARK    3  A    between atoms: C_6  and  N_7
REMARK    4  A    between atoms: C_13  and  C_14
REMARK    5  A    between atoms: C_17  and  C_18
REMARK    6  A    between atoms: C_23  and  O_24
REMARK                            x       y       z     vdW  Elec       q    Type
REMARK                         _______ _______ _______ _____ _____    ______ ____
ROOT
ATOM      1  N   UNL     1       1.671   8.067  20.512  0.00  0.00    +0.000 N 
ATOM      2  C   UNL     1       1.936   6.787  20.133  0.00  0.00    +0.000 C 
ATOM      3  N   UNL     1       1.353   5.712  20.538  0.00  0.00    +0.000 NA
ATOM      4  C   UNL     1       1.893   4.573  19.984  0.00  0.00    +0.000 C 
ATOM      5  O   UNL     1       1.483   3.436  20.170  0.00  0.00    +0.000 OA
ATOM      6  C   UNL     1       3.065   4.889  19.122  0.00  0.00    +0.000 C 
ATOM      7  C   UNL     1       3.840   3.940  18.582  0.00  0.00    +0.000 C 
ATOM      8  S   UNL     1       3.239   6.592  18.990  0.00  0.00    +0.000 S 
ATOM      9  H   UNL     1       2.376   8.735  20.216  0.00  0.00    +0.000 HD
ENDROOT
BRANCH   7  10
ATOM     10  C   UNL     1       4.991   4.185  17.786  0.00  0.00    +0.000 A 
ATOM     11  C   UNL     1       6.231   4.489  18.284  0.00  0.00    +0.000 A 
ATOM     12  S   UNL     1       7.321   4.695  16.990  0.00  0.00    +0.000 S 
ATOM     13  C   UNL     1       6.073   4.261  15.862  0.00  0.00    +0.000 A 
ATOM     14  N   UNL     1       4.882   4.087  16.416  0.00  0.00    +0.000 NA
BRANCH  13  15
ATOM     15  C   UNL     1       6.344   4.195  14.408  0.00  0.00    +0.000 A 
ATOM     16  C   UNL     1       5.556   3.343  13.613  0.00  0.00    +0.000 A 
ATOM     17  C   UNL     1       5.740   3.265  12.227  0.00  0.00    +0.000 A 
ATOM     18  C   UNL     1       6.718   4.036  11.606  0.00  0.00    +0.000 A 
ATOM     19  C   UNL     1       7.531   4.866  12.374  0.00  0.00    +0.000 A 
ATOM     20  C   UNL     1       7.352   4.933  13.761  0.00  0.00    +0.000 A 
BRANCH  20  21
ATOM     21  O   UNL     1       8.217   5.718  14.482  0.00  0.00    +0.000 OA
ATOM     22  H   UNL     1       8.722   5.164  15.098  0.00  0.00    +0.000 HD
ENDBRANCH  20  21
ENDBRANCH  13  15
ENDBRANCH   7  10
BRANCH   1  23
ATOM     23  C   UNL     1       1.049   8.347  21.794  0.00  0.00    +0.000 C 
BRANCH  23  28
ATOM     24  C   UNL     1      -1.772  13.360  21.814  0.00  0.00    +0.000 C 
ATOM     25  N   UNL     1      -0.815  12.261  21.941  0.00  0.00    +0.000 NA
ATOM     26  C   UNL     1      -1.342  11.231  22.844  0.00  0.00    +0.000 C 
ATOM     27  C   UNL     1      -0.357  10.075  23.011  0.00  0.00    +0.000 C 
ATOM     28  C   UNL     1       0.007   9.461  21.653  0.00  0.00    +0.000 C 
ATOM     29  C   UNL     1       0.520  10.567  20.723  0.00  0.00    +0.000 C 
ATOM     30  C   UNL     1      -0.491  11.711  20.618  0.00  0.00    +0.000 C 
ENDBRANCH  23  28
ENDBRANCH   1  23
TORSDOF 5
ENDMDL
MODEL 3
REMARK VINA RESULT:      -7.7      1.030      1.342
REMARK  Name = 
REMARK  6 active torsions:
REMARK  status: ('A' for Active; 'I' for Inactive)
REMARK    1  A    between atoms: C_1  and  N_2
REMARK    2  A    between atoms: C_5  and  C_6
REMARK    3  A    between atoms: C_6  and  N_7
REMARK    4  A    between atoms: C_13  and  C_14
REMARK    5  A    between atoms: C_17  and  C_18
REMARK    6  A    between atoms: C_23  and  O_24
REMARK                            x       y       z     vdW  Elec       q    Type
REMARK                         _______ _______ _______ _____ _____    ______ ____
ROOT
ATOM      1  N   UNL     1      -2.011  12.215  20.917  0.00  0.00    +0.000 N 
ATOM      2  C   UNL     1      -1.222  11.241  21.446  0.00  0.00    +0.000 C 
ATOM      3  N   UNL     1      -0.914  11.067  22.685  0.00  0.00    +0.000 NA
ATOM      4  C   UNL     1      -0.057  10.006  22.877  0.00  0.00    +0.000 C 
ATOM      5  O   UNL     1       0.339   9.607  23.962  0.00  0.00    +0.000 OA
ATOM      6  C   UNL     1       0.348   9.393  21.582  0.00  0.00    +0.000 C 
ATOM      7  C   UNL     1       1.279   8.434  21.498  0.00  0.00    +0.000 C 
ATOM      8  S   UNL     1      -0.526  10.127  20.300  0.00  0.00    +0.000 S 
ATOM      9  H   UNL     1      -1.960  12.279  19.906  0.00  0.00    +0.000 HD
ENDROOT
BRANCH   7  10
ATOM     10  C   UNL     1       1.732   7.843  20.288  0.00  0.00    +0.000 A 
ATOM     11  C   UNL     1       2.103   8.545  19.170  0.00  0.00    +0.000 A 
ATOM     12  S   UNL     1       2.587   7.452  17.955  0.00  0.00    +0.000 S 
ATOM     13  C   UNL     1       2.361   6.124  19.053  0.00  0.00    +0.000 A 
ATOM     14  N   UNL     1       1.842   6.471  20.221  0.00  0.00    +0.000 NA
BRANCH  13  15
ATOM     15  C   UNL     1       2.650   4.732  18.639  0.00  0.00    +0.000 A 
ATOM     16  C   UNL     1       1.596   3.799  18.629  0.00  0.00    +0.000 A 
ATOM     17  C   UNL     1       1.799   2.477  18.213  0.00  0.00    +0.000 A 
ATOM     18  C   UNL     1       3.061   2.059  17.801  0.00  0.00    +0.000 A 
ATOM     19  C   UNL     1       4.127   2.955  17.830  0.00  0.00    +0.000 A 
ATOM     20  C   UNL     1       3.923   4.272  18.257  0.00  0.00    +0.000 A 
BRANCH  20  21
ATOM     21  O   UNL     1       5.015   5.100  18.326  0.00  0.00    +0.000 OA
ATOM     22  H   UNL     1       5.603   4.926  17.573  0.00  0.00    +0.000 HD
ENDBRANCH  20  21
ENDBRANCH  13  15
ENDBRANCH   7  10
BRANCH   1  23
ATOM     23  C   UNL     1      -2.195  13.478  21.611  0.00  0.00    +0.000 C 
BRANCH  23  28
ATOM     24  C   UNL     1      -7.535  12.523  23.526  0.00  0.00    +0.000 C 
ATOM     25  N   UNL     1      -6.156  12.442  23.045  0.00  0.00    +0.000 NA
ATOM     26  C   UNL     1      -6.056  13.008  21.693  0.00  0.00    +0.000 C 
ATOM     27  C   UNL     1      -4.629  12.921  21.154  0.00  0.00    +0.000 C 
ATOM     28  C   UNL     1      -3.640  13.616  22.100  0.00  0.00    +0.000 C 
ATOM     29  C   UNL     1      -3.794  13.027  23.507  0.00  0.00    +0.000 C 
ATOM     30  C   UNL     1      -5.246  13.111  23.983  0.00  0.00    +0.000 C 
ENDBRANCH  23  28
ENDBRANCH   1  23
TORSDOF 5
ENDMDL
MODEL 4
REMARK VINA RESULT:      -7.6      4.122      5.695
REMARK  Name = 
REMARK  6 active torsions:
REMARK  status: ('A' for Active; 'I' for Inactive)
REMARK    1  A    between atoms: C_1  and  N_2
REMARK    2  A    between atoms: C_5  and  C_6
REMARK    3  A    between atoms: C_6  and  N_7
REMARK    4  A    between atoms: C_13  and  C_14
REMARK    5  A    between atoms: C_17  and  C_18
REMARK    6  A    between atoms: C_23  and  O_24
REMARK                            x       y       z     vdW  Elec       q    Type
REMARK                         _______ _______ _______ _____ _____    ______ ____
ROOT
ATOM      1  N   UNL     1       0.624  11.375  18.466  0.00  0.00    +0.000 N 
ATOM      2  C   UNL     1       0.780  10.412  19.414  0.00  0.00    +0.000 C 
ATOM      3  N   UNL     1       0.651  10.538  20.690  0.00  0.00    +0.000 NA
ATOM      4  C   UNL     1       0.919   9.371  21.370  0.00  0.00    +0.000 C 
ATOM      5  O   UNL     1       0.817   9.220  22.578  0.00  0.00    +0.000 OA
ATOM      6  C   UNL     1       1.368   8.293  20.446  0.00  0.00    +0.000 C 
ATOM      7  C   UNL     1       1.816   7.109  20.881  0.00  0.00    +0.000 C 
ATOM      8  S   UNL     1       1.240   8.837  18.822  0.00  0.00    +0.000 S 
ATOM      9  H   UNL     1       0.962  11.104  17.548  0.00  0.00    +0.000 HD
ENDROOT
BRANCH   7  10
ATOM     10  C   UNL     1       2.293   6.062  20.048  0.00  0.00    +0.000 A 
ATOM     11  C   UNL     1       1.588   4.925  19.748  0.00  0.00    +0.000 A 
ATOM     12  S   UNL     1       2.522   3.942  18.714  0.00  0.00    +0.000 S 
ATOM     13  C   UNL     1       3.759   5.162  18.664  0.00  0.00    +0.000 A 
ATOM     14  N   UNL     1       3.536   6.191  19.468  0.00  0.00    +0.000 NA
BRANCH  13  15
ATOM     15  C   UNL     1       4.982   4.979  17.849  0.00  0.00    +0.000 A 
ATOM     16  C   UNL     1       4.844   4.736  16.470  0.00  0.00    +0.000 A 
ATOM     17  C   UNL     1       5.963   4.590  15.642  0.00  0.00    +0.000 A 
ATOM     18  C   UNL     1       7.245   4.683  16.174  0.00  0.00    +0.000 A 
ATOM     19  C   UNL     1       7.410   4.894  17.541  0.00  0.00    +0.000 A 
ATOM     20  C   UNL     1       6.289   5.027  18.369  0.00  0.00    +0.000 A 
BRANCH  20  21
ATOM     21  O   UNL     1       6.501   5.173  19.717  0.00  0.00    +0.000 OA
ATOM     22  H   UNL     1       7.273   4.649  19.983  0.00  0.00    +0.000 HD
ENDBRANCH  20  21
ENDBRANCH  13  15
ENDBRANCH   7  10
BRANCH   1  23
ATOM     23  C   UNL     1       0.792  12.779  18.801  0.00  0.00    +0.000 C 
BRANCH  23  28
ATOM     24  C   UNL     1       5.801  15.319  20.042  0.00  0.00    +0.000 C 
ATOM     25  N   UNL     1       4.411  14.976  19.743  0.00  0.00    +0.000 NA
ATOM     26  C   UNL     1       4.310  14.390  18.401  0.00  0.00    +0.000 C 
ATOM     27  C   UNL     1       2.866  14.037  18.051  0.00  0.00    +0.000 C 
ATOM     28  C   UNL     1       2.263  13.088  19.096  0.00  0.00    +0.000 C 
ATOM     29  C   UNL     1       2.415  13.713  20.488  0.00  0.00    +0.000 C 
ATOM     30  C   UNL     1       3.875  14.076  20.772  0.00  0.00    +0.000 C 
ENDBRANCH  23  28
ENDBRANCH   1  23
TORSDOF 5
ENDMDL
MODEL 5
REMARK VINA RESULT:      -7.5      4.095      5.870
REMARK  Name = 
REMARK  6 active torsions:
REMARK  status: ('A' for Active; 'I' for Inactive)
REMARK    1  A    between atoms: C_1  and  N_2
REMARK    2  A    between atoms: C_5  and  C_6
REMARK    3  A    between atoms: C_6  and  N_7
REMARK    4  A    between atoms: C_13  and  C_14
REMARK    5  A    between atoms: C_17  and  C_18
REMARK    6  A    between atoms: C_23  and  O_24
REMARK                            x       y       z     vdW  Elec       q    Type
REMARK                         _______ _______ _______ _____ _____    ______ ____
ROOT
ATOM      1  N   UNL     1       1.584   9.780  17.912  0.00  0.00    +0.000 N 
ATOM      2  C   UNL     1       1.950   8.587  18.455  0.00  0.00    +0.000 C 
ATOM      3  N   UNL     1       1.480   8.030  19.518  0.00  0.00    +0.000 NA
ATOM      4  C   UNL     1       2.103   6.838  19.814  0.00  0.00    +0.000 C 
ATOM      5  O   UNL     1       1.804   6.097  20.739  0.00  0.00    +0.000 OA
ATOM      6  C   UNL     1       3.213   6.553  18.864  0.00  0.00    +0.000 C 
ATOM      7  C   UNL     1       4.054   5.523  19.024  0.00  0.00    +0.000 C 
ATOM      8  S   UNL     1       3.228   7.740  17.624  0.00  0.00    +0.000 S 
ATOM      9  H   UNL     1       2.215  10.112  17.191  0.00  0.00    +0.000 HD
ENDROOT
BRANCH   7  10
ATOM     10  C   UNL     1       5.152   5.227  18.173  0.00  0.00    +0.000 A 
ATOM     11  C   UNL     1       6.446   5.069  18.599  0.00  0.00    +0.000 A 
ATOM     12  S   UNL     1       7.438   4.718  17.258  0.00  0.00    +0.000 S 
ATOM     13  C   UNL     1       6.043   4.702  16.223  0.00  0.00    +0.000 A 
ATOM     14  N   UNL     1       4.918   5.055  16.826  0.00  0.00    +0.000 NA
BRANCH  13  15
ATOM     15  C   UNL     1       6.167   4.404  14.777  0.00  0.00    +0.000 A 
ATOM     16  C   UNL     1       5.225   3.544  14.183  0.00  0.00    +0.000 A 
ATOM     17  C   UNL     1       5.267   3.253  12.814  0.00  0.00    +0.000 A 
ATOM     18  C   UNL     1       6.254   3.815  12.009  0.00  0.00    +0.000 A 
ATOM     19  C   UNL     1       7.215   4.648  12.578  0.00  0.00    +0.000 A 
ATOM     20  C   UNL     1       7.177   4.926  13.949  0.00  0.00    +0.000 A 
BRANCH  20  21
ATOM     21  O   UNL     1       8.180   5.702  14.474  0.00  0.00    +0.000 OA
ATOM     22  H   UNL     1       8.411   5.379  15.359  0.00  0.00    +0.000 HD
ENDBRANCH  20  21
ENDBRANCH  13  15
ENDBRANCH   7  10
BRANCH   1  23
ATOM     23  C   UNL     1       0.979  10.813  18.735  0.00  0.00    +0.000 C 
BRANCH  23  28
ATOM     24  C   UNL     1      -4.658  11.080  17.618  0.00  0.00    +0.000 C 
ATOM     25  N   UNL     1      -3.200  11.209  17.644  0.00  0.00    +0.000 NA
ATOM     26  C   UNL     1      -2.770  11.841  18.897  0.00  0.00    +0.000 C 
ATOM     27  C   UNL     1      -1.252  12.006  18.948  0.00  0.00    +0.000 C 
ATOM     28  C   UNL     1      -0.545  10.657  18.758  0.00  0.00    +0.000 C 
ATOM     29  C   UNL     1      -1.042  10.008  17.461  0.00  0.00    +0.000 C 
ATOM     30  C   UNL     1      -2.568   9.897  17.451  0.00  0.00    +0.000 C 
ENDBRANCH  23  28
ENDBRANCH   1  23
TORSDOF 5
ENDMDL
MODEL 6
REMARK VINA RESULT:      -7.5      3.756      5.942
REMARK  Name = 
REMARK  6 active torsions:
REMARK  status: ('A' for Active; 'I' for Inactive)
REMARK    1  A    between atoms: C_1  and  N_2
REMARK    2  A    between atoms: C_5  and  C_6
REMARK    3  A    between atoms: C_6  and  N_7
REMARK    4  A    between atoms: C_13  and  C_14
REMARK    5  A    between atoms: C_17  and  C_18
REMARK    6  A    between atoms: C_23  and  O_24
REMARK                            x       y       z     vdW  Elec       q    Type
REMARK                         _______ _______ _______ _____ _____    ______ ____
ROOT
ATOM      1  N   UNL     1       1.460   8.309  20.428  0.00  0.00    +0.000 N 
ATOM      2  C   UNL     1       1.875   7.046  20.139  0.00  0.00    +0.000 C 
ATOM      3  N   UNL     1       1.491   5.948  20.692  0.00  0.00    +0.000 NA
ATOM      4  C   UNL     1       2.143   4.843  20.190  0.00  0.00    +0.000 C 
ATOM      5  O   UNL     1       1.919   3.685  20.514  0.00  0.00    +0.000 OA
ATOM      6  C   UNL     1       3.181   5.228  19.195  0.00  0.00    +0.000 C 
ATOM      7  C   UNL     1       4.038   4.345  18.668  0.00  0.00    +0.000 C 
ATOM      8  S   UNL     1       3.093   6.917  18.898  0.00  0.00    +0.000 S 
ATOM      9  H   UNL     1       2.032   9.035  20.008  0.00  0.00    +0.000 HD
ENDROOT
BRANCH   7  10
ATOM     10  C   UNL     1       5.072   4.664  17.747  0.00  0.00    +0.000 A 
ATOM     11  C   UNL     1       6.242   5.296  18.079  0.00  0.00    +0.000 A 
ATOM     12  S   UNL     1       7.200   5.474  16.681  0.00  0.00    +0.000 S 
ATOM     13  C   UNL     1       6.019   4.599  15.754  0.00  0.00    +0.000 A 
ATOM     14  N   UNL     1       4.920   4.295  16.428  0.00  0.00    +0.000 NA
BRANCH  13  15
ATOM     15  C   UNL     1       6.228   4.322  14.314  0.00  0.00    +0.000 A 
ATOM     16  C   UNL     1       5.348   3.437  13.663  0.00  0.00    +0.000 A 
ATOM     17  C   UNL     1       5.472   3.164  12.295  0.00  0.00    +0.000 A 
ATOM     18  C   UNL     1       6.480   3.767  11.549  0.00  0.00    +0.000 A 
ATOM     19  C   UNL     1       7.381   4.625  12.176  0.00  0.00    +0.000 A 
ATOM     20  C   UNL     1       7.262   4.886  13.545  0.00  0.00    +0.000 A 
BRANCH  20  21
ATOM     21  O   UNL     1       8.210   5.689  14.130  0.00  0.00    +0.000 OA
ATOM     22  H   UNL     1       7.938   5.904  15.036  0.00  0.00    +0.000 HD
ENDBRANCH  20  21
ENDBRANCH  13  15
ENDBRANCH   7  10
BRANCH   1  23
ATOM     23  C   UNL     1       0.911   8.628  21.734  0.00  0.00    +0.000 C 
BRANCH  23  28
ATOM     24  C   UNL     1      -2.479  13.276  21.703  0.00  0.00    +0.000 C 
ATOM     25  N   UNL     1      -1.898  11.934  21.682  0.00  0.00    +0.000 NA
ATOM     26  C   UNL     1      -1.017  11.780  20.517  0.00  0.00    +0.000 C 
ATOM     27  C   UNL     1      -0.408  10.381  20.456  0.00  0.00    +0.000 C 
ATOM     28  C   UNL     1       0.353  10.055  21.748  0.00  0.00    +0.000 C 
ATOM     29  C   UNL     1      -0.583  10.258  22.946  0.00  0.00    +0.000 C 
ATOM     30  C   UNL     1      -1.188  11.664  22.939  0.00  0.00    +0.000 C 
ENDBRANCH  23  28
ENDBRANCH   1  23
TORSDOF 5
ENDMDL
MODEL 7
REMARK VINA RESULT:      -7.4      3.066     10.252
REMARK  Name = 
REMARK  6 active torsions:
REMARK  status: ('A' for Active; 'I' for Inactive)
REMARK    1  A    between atoms: C_1  and  N_2
REMARK    2  A    between atoms: C_5  and  C_6
REMARK    3  A    between atoms: C_6  and  N_7
REMARK    4  A    between atoms: C_13  and  C_14
REMARK    5  A    between atoms: C_17  and  C_18
REMARK    6  A    between atoms: C_23  and  O_24
REMARK                            x       y       z     vdW  Elec       q    Type
REMARK                         _______ _______ _______ _____ _____    ______ ____
ROOT
ATOM      1  N   UNL     1       1.956   8.195  17.930  0.00  0.00    +0.000 N 
ATOM      2  C   UNL     1       1.773   9.520  18.177  0.00  0.00    +0.000 C 
ATOM      3  N   UNL     1       2.498  10.503  17.766  0.00  0.00    +0.000 NA
ATOM      4  C   UNL     1       2.056  11.722  18.232  0.00  0.00    +0.000 C 
ATOM      5  O   UNL     1       2.543  12.805  17.943  0.00  0.00    +0.000 OA
ATOM      6  C   UNL     1       0.900  11.564  19.157  0.00  0.00    +0.000 C 
ATOM      7  C   UNL     1       0.381  12.590  19.844  0.00  0.00    +0.000 C 
ATOM      8  S   UNL     1       0.415   9.918  19.196  0.00  0.00    +0.000 S 
ATOM      9  H   UNL     1       1.384   7.588  18.508  0.00  0.00    +0.000 HD
ENDROOT
BRANCH   7  10
ATOM     10  C   UNL     1      -0.693  12.490  20.768  0.00  0.00    +0.000 A 
ATOM     11  C   UNL     1      -0.544  12.280  22.115  0.00  0.00    +0.000 A 
ATOM     12  S   UNL     1      -2.082  12.236  22.850  0.00  0.00    +0.000 S 
ATOM     13  C   UNL     1      -2.827  12.603  21.323  0.00  0.00    +0.000 A 
ATOM     14  N   UNL     1      -1.982  12.640  20.304  0.00  0.00    +0.000 NA
BRANCH  13  15
ATOM     15  C   UNL     1      -4.295  12.759  21.207  0.00  0.00    +0.000 A 
ATOM     16  C   UNL     1      -5.050  12.937  22.381  0.00  0.00    +0.000 A 
ATOM     17  C   UNL     1      -6.437  13.127  22.333  0.00  0.00    +0.000 A 
ATOM     18  C   UNL     1      -7.099  13.141  21.109  0.00  0.00    +0.000 A 
ATOM     19  C   UNL     1      -6.379  12.939  19.934  0.00  0.00    +0.000 A 
ATOM     20  C   UNL     1      -4.995  12.738  19.986  0.00  0.00    +0.000 A 
BRANCH  20  21
ATOM     21  O   UNL     1      -4.339  12.483  18.808  0.00  0.00    +0.000 OA
ATOM     22  H   UNL     1      -4.029  11.563  18.802  0.00  0.00    +0.000 HD
ENDBRANCH  20  21
ENDBRANCH  13  15
ENDBRANCH   7  10
BRANCH   1  23
ATOM     23  C   UNL     1       3.273   7.678  17.599  0.00  0.00    +0.000 C 
BRANCH  23  28
ATOM     24  C   UNL     1       3.270   1.938  17.981  0.00  0.00    +0.000 C 
ATOM     25  N   UNL     1       3.146   3.342  17.589  0.00  0.00    +0.000 NA
ATOM     26  C   UNL     1       2.220   4.040  18.490  0.00  0.00    +0.000 C 
ATOM     27  C   UNL     1       2.055   5.507  18.096  0.00  0.00    +0.000 C 
ATOM     28  C   UNL     1       3.411   6.224  18.061  0.00  0.00    +0.000 C 
ATOM     29  C   UNL     1       4.363   5.452  17.141  0.00  0.00    +0.000 C 
ATOM     30  C   UNL     1       4.466   3.984  17.562  0.00  0.00    +0.000 C 
ENDBRANCH  23  28
ENDBRANCH   1  23
TORSDOF 5
ENDMDL
MODEL 8
REMARK VINA RESULT:      -7.3      3.122     10.183
REMARK  Name = 
REMARK  6 active torsions:
REMARK  status: ('A' for Active; 'I' for Inactive)
REMARK    1  A    between atoms: C_1  and  N_2
REMARK    2  A    between atoms: C_5  and  C_6
REMARK    3  A    between atoms: C_6  and  N_7
REMARK    4  A    between atoms: C_13  and  C_14
REMARK    5  A    between atoms: C_17  and  C_18
REMARK    6  A    between atoms: C_23  and  O_24
REMARK                            x       y       z     vdW  Elec       q    Type
REMARK                         _______ _______ _______ _____ _____    ______ ____
ROOT
ATOM      1  N   UNL     1       1.687   8.551  18.003  0.00  0.00    +0.000 N 
ATOM      2  C   UNL     1       1.513   9.855  18.349  0.00  0.00    +0.000 C 
ATOM      3  N   UNL     1       2.280  10.851  18.068  0.00  0.00    +0.000 NA
ATOM      4  C   UNL     1       1.833  12.037  18.608  0.00  0.00    +0.000 C 
ATOM      5  O   UNL     1       2.356  13.129  18.442  0.00  0.00    +0.000 OA
ATOM      6  C   UNL     1       0.618  11.830  19.444  0.00  0.00    +0.000 C 
ATOM      7  C   UNL     1       0.076  12.806  20.183  0.00  0.00    +0.000 C 
ATOM      8  S   UNL     1       0.101  10.198  19.313  0.00  0.00    +0.000 S 
ATOM      9  H   UNL     1       1.069   7.911  18.491  0.00  0.00    +0.000 HD
ENDROOT
BRANCH   7  10
ATOM     10  C   UNL     1      -1.056  12.655  21.027  0.00  0.00    +0.000 A 
ATOM     11  C   UNL     1      -0.994  12.430  22.379  0.00  0.00    +0.000 A 
ATOM     12  S   UNL     1      -2.577  12.321  23.003  0.00  0.00    +0.000 S 
ATOM     13  C   UNL     1      -3.227  12.685  21.433  0.00  0.00    +0.000 A 
ATOM     14  N   UNL     1      -2.314  12.767  20.476  0.00  0.00    +0.000 NA
BRANCH  13  15
ATOM     15  C   UNL     1      -4.688  12.792  21.215  0.00  0.00    +0.000 A 
ATOM     16  C   UNL     1      -5.527  12.940  22.335  0.00  0.00    +0.000 A 
ATOM     17  C   UNL     1      -6.913  13.083  22.191  0.00  0.00    +0.000 A 
ATOM     18  C   UNL     1      -7.489  13.079  20.925  0.00  0.00    +0.000 A 
ATOM     19  C   UNL     1      -6.683  12.905  19.802  0.00  0.00    +0.000 A 
ATOM     20  C   UNL     1      -5.300  12.750  19.949  0.00  0.00    +0.000 A 
BRANCH  20  21
ATOM     21  O   UNL     1      -4.556  12.521  18.819  0.00  0.00    +0.000 OA
ATOM     22  H   UNL     1      -4.951  12.995  18.070  0.00  0.00    +0.000 HD
ENDBRANCH  20  21
ENDBRANCH  13  15
ENDBRANCH   7  10
BRANCH   1  23
ATOM     23  C   UNL     1       3.013   8.033  17.710  0.00  0.00    +0.000 C 
BRANCH  23  28
ATOM     24  C   UNL     1       4.359   2.800  19.685  0.00  0.00    +0.000 C 
ATOM     25  N   UNL     1       4.266   4.226  19.369  0.00  0.00    +0.000 NA
ATOM     26  C   UNL     1       4.496   4.443  17.935  0.00  0.00    +0.000 C 
ATOM     27  C   UNL     1       4.423   5.926  17.575  0.00  0.00    +0.000 C 
ATOM     28  C   UNL     1       3.077   6.530  17.999  0.00  0.00    +0.000 C 
ATOM     29  C   UNL     1       2.852   6.255  19.491  0.00  0.00    +0.000 C 
ATOM     30  C   UNL     1       2.968   4.761  19.799  0.00  0.00    +0.000 C 
ENDBRANCH  23  28
ENDBRANCH   1  23
TORSDOF 5
ENDMDL
MODEL 9
REMARK VINA RESULT:      -7.3      3.252      4.255
REMARK  Name = 
REMARK  6 active torsions:
REMARK  status: ('A' for Active; 'I' for Inactive)
REMARK    1  A    between atoms: C_1  and  N_2
REMARK    2  A    between atoms: C_5  and  C_6
REMARK    3  A    between atoms: C_6  and  N_7
REMARK    4  A    between atoms: C_13  and  C_14
REMARK    5  A    between atoms: C_17  and  C_18
REMARK    6  A    between atoms: C_23  and  O_24
REMARK                            x       y       z     vdW  Elec       q    Type
REMARK                         _______ _______ _______ _____ _____    ______ ____
ROOT
ATOM      1  N   UNL     1       1.313  11.565  18.852  0.00  0.00    +0.000 N 
ATOM      2  C   UNL     1       1.260  10.500  19.697  0.00  0.00    +0.000 C 
ATOM      3  N   UNL     1       1.027  10.515  20.965  0.00  0.00    +0.000 NA
ATOM      4  C   UNL     1       1.086   9.261  21.531  0.00  0.00    +0.000 C 
ATOM      5  O   UNL     1       0.853   9.005  22.704  0.00  0.00    +0.000 OA
ATOM      6  C   UNL     1       1.485   8.231  20.533  0.00  0.00    +0.000 C 
ATOM      7  C   UNL     1       1.743   6.961  20.871  0.00  0.00    +0.000 C 
ATOM      8  S   UNL     1       1.578   8.945  18.975  0.00  0.00    +0.000 S 
ATOM      9  H   UNL     1       1.700  11.344  17.940  0.00  0.00    +0.000 HD
ENDROOT
BRANCH   7  10
ATOM     10  C   UNL     1       2.165   5.948  19.968  0.00  0.00    +0.000 A 
ATOM     11  C   UNL     1       1.377   4.912  19.538  0.00  0.00    +0.000 A 
ATOM     12  S   UNL     1       2.270   3.937  18.461  0.00  0.00    +0.000 S 
ATOM     13  C   UNL     1       3.612   5.035  18.573  0.00  0.00    +0.000 A 
ATOM     14  N   UNL     1       3.442   6.009  19.455  0.00  0.00    +0.000 NA
BRANCH  13  15
ATOM     15  C   UNL     1       4.854   4.807  17.798  0.00  0.00    +0.000 A 
ATOM     16  C   UNL     1       4.745   4.450  16.441  0.00  0.00    +0.000 A 
ATOM     17  C   UNL     1       5.883   4.257  15.647  0.00  0.00    +0.000 A 
ATOM     18  C   UNL     1       7.153   4.415  16.193  0.00  0.00    +0.000 A 
ATOM     19  C   UNL     1       7.287   4.740  17.541  0.00  0.00    +0.000 A 
ATOM     20  C   UNL     1       6.149   4.921  18.335  0.00  0.00    +0.000 A 
BRANCH  20  21
ATOM     21  O   UNL     1       6.333   5.180  19.670  0.00  0.00    +0.000 OA
ATOM     22  H   UNL     1       7.242   4.954  19.922  0.00  0.00    +0.000 HD
ENDBRANCH  20  21
ENDBRANCH  13  15
ENDBRANCH   7  10
BRANCH   1  23
ATOM     23  C   UNL     1       1.617  12.894  19.353  0.00  0.00    +0.000 C 
BRANCH  23  28
ATOM     24  C   UNL     1      -2.274  17.089  19.940  0.00  0.00    +0.000 C 
ATOM     25  N   UNL     1      -1.131  16.181  20.029  0.00  0.00    +0.000 NA
ATOM     26  C   UNL     1      -1.579  14.838  20.419  0.00  0.00    +0.000 C 
ATOM     27  C   UNL     1      -0.405  13.869  20.538  0.00  0.00    +0.000 C 
ATOM     28  C   UNL     1       0.394  13.807  19.229  0.00  0.00    +0.000 C 
ATOM     29  C   UNL     1       0.816  15.227  18.833  0.00  0.00    +0.000 C 
ATOM     30  C   UNL     1      -0.394  16.161  18.759  0.00  0.00    +0.000 C 
ENDBRANCH  23  28
ENDBRANCH   1  23
TORSDOF 5
ENDMDL
