MODEL 1
REMARK VINA RESULT:      -7.1      0.000      0.000
REMARK  Name = 
REMARK  4 active torsions:
REMARK  status: ('A' for Active; 'I' for Inactive)
REMARK    1  A    between atoms: C_1  and  O_2
REMARK    2  A    between atoms: O_2  and  C_3
REMARK    3  A    between atoms: C_6  and  N_7
REMARK    4  A    between atoms: C_11  and  C_13
REMARK                            x       y       z     vdW  Elec       q    Type
REMARK                         _______ _______ _______ _____ _____    ______ ____
ROOT
ATOM      1  N   UNL     1      -0.376  10.447  20.200  0.00  0.00    +0.000 N 
ATOM      2  C   UNL     1      -0.011  10.813  18.820  0.00  0.00    +0.000 C 
ATOM      3  C   UNL     1       1.446  10.389  18.525  0.00  0.00    +0.000 C 
ATOM      4  N   UNL     1       1.699   8.990  18.905  0.00  0.00    +0.000 N 
ATOM      5  C   UNL     1       2.387   8.161  18.023  0.00  0.00    +0.000 C 
ATOM      6  O   UNL     1       2.841   8.639  16.977  0.00  0.00    +0.000 OA
ATOM      7  C   UNL     1       1.352   8.708  20.309  0.00  0.00    +0.000 C 
ATOM      8  C   UNL     1      -0.127   9.042  20.564  0.00  0.00    +0.000 C 
ENDROOT
BRANCH   5   9
ATOM      9  C   UNL     1       2.522   6.741  18.329  0.00  0.00    +0.000 A 
ATOM     10  C   UNL     1       1.676   5.676  18.081  0.00  0.00    +0.000 A 
ATOM     11  C   UNL     1       2.188   4.412  18.532  0.00  0.00    +0.000 A 
ATOM     12  C   UNL     1       3.493   4.547  18.967  0.00  0.00    +0.000 A 
ATOM     13  S   UNL     1       3.991   6.182  19.011  0.00  0.00    +0.000 S 
ATOM     14  C   UNL     1       4.475   3.471  19.312  0.00  0.00    +0.000 C 
ATOM     15  C   UNL     1       3.991   2.410  20.300  0.00  0.00    +0.000 C 
ATOM     16  C   UNL     1       2.518   2.423  20.697  0.00  0.00    +0.000 C 
ATOM     17  C   UNL     1       1.562   2.109  19.550  0.00  0.00    +0.000 C 
ATOM     18  C   UNL     1       1.422   3.128  18.415  0.00  0.00    +0.000 C 
ENDBRANCH   5   9
BRANCH   1  22
ATOM     19  C   UNL     1      -2.467  13.075  22.756  0.00  0.00    +0.000 A 
ATOM     20  C   UNL     1      -1.649  12.081  23.283  0.00  0.00    +0.000 A 
ATOM     21  C   UNL     1      -0.941  11.218  22.437  0.00  0.00    +0.000 A 
ATOM     22  C   UNL     1      -1.038  11.313  21.042  0.00  0.00    +0.000 A 
ATOM     23  C   UNL     1      -1.879  12.316  20.538  0.00  0.00    +0.000 A 
ATOM     24  C   UNL     1      -2.588  13.187  21.376  0.00  0.00    +0.000 A 
BRANCH  19  26
ATOM     25  C   UNL     1      -4.466  13.469  23.951  0.00  0.00    +0.000 C 
ATOM     26  O   UNL     1      -3.122  13.846  23.675  0.00  0.00    +0.000 OA
ENDBRANCH  19  26
ENDBRANCH   1  22
TORSDOF 3
ENDMDL
MODEL 2
REMARK VINA RESULT:      -6.9      0.955      1.477
REMARK  Name = 
REMARK  4 active torsions:
REMARK  status: ('A' for Active; 'I' for Inactive)
REMARK    1  A    between atoms: C_1  and  O_2
REMARK    2  A    between atoms: O_2  and  C_3
REMARK    3  A    between atoms: C_6  and  N_7
REMARK    4  A    between atoms: C_11  and  C_13
REMARK                            x       y       z     vdW  Elec       q    Type
REMARK                         _______ _______ _______ _____ _____    ______ ____
ROOT
ATOM      1  N   UNL     1      -0.511  10.661  20.340  0.00  0.00    +0.000 N 
ATOM      2  C   UNL     1      -0.108  10.915  18.946  0.00  0.00    +0.000 C 
ATOM      3  C   UNL     1       1.342  10.430  18.713  0.00  0.00    +0.000 C 
ATOM      4  N   UNL     1       1.545   9.056  19.198  0.00  0.00    +0.000 N 
ATOM      5  C   UNL     1       2.225   8.146  18.393  0.00  0.00    +0.000 C 
ATOM      6  O   UNL     1       2.714   8.534  17.326  0.00  0.00    +0.000 OA
ATOM      7  C   UNL     1       1.162   8.886  20.611  0.00  0.00    +0.000 C 
ATOM      8  C   UNL     1      -0.312   9.280  20.810  0.00  0.00    +0.000 C 
ENDROOT
BRANCH   5   9
ATOM      9  C   UNL     1       2.311   6.748  18.803  0.00  0.00    +0.000 A 
ATOM     10  C   UNL     1       1.729   6.076  19.861  0.00  0.00    +0.000 A 
ATOM     11  C   UNL     1       2.056   4.678  19.911  0.00  0.00    +0.000 A 
ATOM     12  C   UNL     1       2.756   4.306  18.779  0.00  0.00    +0.000 A 
ATOM     13  S   UNL     1       3.167   5.650  17.805  0.00  0.00    +0.000 S 
ATOM     14  C   UNL     1       3.104   2.927  18.312  0.00  0.00    +0.000 C 
ATOM     15  C   UNL     1       3.788   2.023  19.337  0.00  0.00    +0.000 C 
ATOM     16  C   UNL     1       3.884   2.519  20.777  0.00  0.00    +0.000 C 
ATOM     17  C   UNL     1       2.535   2.664  21.476  0.00  0.00    +0.000 C 
ATOM     18  C   UNL     1       1.579   3.763  20.999  0.00  0.00    +0.000 C 
ENDBRANCH   5   9
BRANCH   1  22
ATOM     19  C   UNL     1      -2.446  13.576  22.701  0.00  0.00    +0.000 A 
ATOM     20  C   UNL     1      -2.563  13.600  21.315  0.00  0.00    +0.000 A 
ATOM     21  C   UNL     1      -1.936  12.623  20.530  0.00  0.00    +0.000 A 
ATOM     22  C   UNL     1      -1.164  11.604  21.103  0.00  0.00    +0.000 A 
ATOM     23  C   UNL     1      -1.052  11.611  22.501  0.00  0.00    +0.000 A 
ATOM     24  C   UNL     1      -1.679  12.581  23.295  0.00  0.00    +0.000 A 
BRANCH  19  26
ATOM     25  C   UNL     1      -2.916  14.603  24.774  0.00  0.00    +0.000 C 
ATOM     26  O   UNL     1      -3.085  14.587  23.362  0.00  0.00    +0.000 OA
ENDBRANCH  19  26
ENDBRANCH   1  22
TORSDOF 3
ENDMDL
MODEL 3
REMARK VINA RESULT:      -6.7      2.668      9.383
REMARK  Name = 
REMARK  4 active torsions:
REMARK  status: ('A' for Active; 'I' for Inactive)
REMARK    1  A    between atoms: C_1  and  O_2
REMARK    2  A    between atoms: O_2  and  C_3
REMARK    3  A    between atoms: C_6  and  N_7
REMARK    4  A    between atoms: C_11  and  C_13
REMARK                            x       y       z     vdW  Elec       q    Type
REMARK                         _______ _______ _______ _____ _____    ______ ____
ROOT
ATOM      1  N   UNL     1       1.707   8.471  19.437  0.00  0.00    +0.000 N 
ATOM      2  C   UNL     1       1.778   9.465  18.351  0.00  0.00    +0.000 C 
ATOM      3  C   UNL     1       0.389  10.107  18.125  0.00  0.00    +0.000 C 
ATOM      4  N   UNL     1      -0.211  10.575  19.384  0.00  0.00    +0.000 N 
ATOM      5  C   UNL     1      -0.797  11.837  19.428  0.00  0.00    +0.000 C 
ATOM      6  O   UNL     1      -0.874  12.501  18.389  0.00  0.00    +0.000 OA
ATOM      7  C   UNL     1      -0.289   9.518  20.408  0.00  0.00    +0.000 C 
ATOM      8  C   UNL     1       1.114   8.956  20.694  0.00  0.00    +0.000 C 
ENDROOT
BRANCH   5   9
ATOM      9  C   UNL     1      -1.271  12.366  20.703  0.00  0.00    +0.000 A 
ATOM     10  C   UNL     1      -2.281  11.937  21.543  0.00  0.00    +0.000 A 
ATOM     11  C   UNL     1      -2.425  12.732  22.730  0.00  0.00    +0.000 A 
ATOM     12  C   UNL     1      -1.397  13.651  22.823  0.00  0.00    +0.000 A 
ATOM     13  S   UNL     1      -0.423  13.672  21.417  0.00  0.00    +0.000 S 
ATOM     14  C   UNL     1      -1.030  14.523  23.983  0.00  0.00    +0.000 C 
ATOM     15  C   UNL     1      -2.163  15.354  24.585  0.00  0.00    +0.000 C 
ATOM     16  C   UNL     1      -3.582  15.090  24.092  0.00  0.00    +0.000 C 
ATOM     17  C   UNL     1      -4.115  13.703  24.443  0.00  0.00    +0.000 C 
ATOM     18  C   UNL     1      -3.487  12.484  23.759  0.00  0.00    +0.000 C 
ENDBRANCH   5   9
BRANCH   1  22
ATOM     19  C   UNL     1       3.416   4.625  19.123  0.00  0.00    +0.000 A 
ATOM     20  C   UNL     1       3.621   5.571  18.124  0.00  0.00    +0.000 A 
ATOM     21  C   UNL     1       3.069   6.853  18.235  0.00  0.00    +0.000 A 
ATOM     22  C   UNL     1       2.286   7.225  19.336  0.00  0.00    +0.000 A 
ATOM     23  C   UNL     1       2.085   6.248  20.322  0.00  0.00    +0.000 A 
ATOM     24  C   UNL     1       2.637   4.964  20.223  0.00  0.00    +0.000 A 
BRANCH  19  26
ATOM     25  C   UNL     1       4.094   2.557  20.040  0.00  0.00    +0.000 C 
ATOM     26  O   UNL     1       3.987   3.403  18.902  0.00  0.00    +0.000 OA
ENDBRANCH  19  26
ENDBRANCH   1  22
TORSDOF 3
ENDMDL
MODEL 4
REMARK VINA RESULT:      -6.6      1.635      1.985
REMARK  Name = 
REMARK  4 active torsions:
REMARK  status: ('A' for Active; 'I' for Inactive)
REMARK    1  A    between atoms: C_1  and  O_2
REMARK    2  A    between atoms: O_2  and  C_3
REMARK    3  A    between atoms: C_6  and  N_7
REMARK    4  A    between atoms: C_11  and  C_13
REMARK                            x       y       z     vdW  Elec       q    Type
REMARK                         _______ _______ _______ _____ _____    ______ ____
ROOT
ATOM      1  N   UNL     1      -0.653  11.586  21.084  0.00  0.00    +0.000 N 
ATOM      2  C   UNL     1      -0.398  12.006  19.695  0.00  0.00    +0.000 C 
ATOM      3  C   UNL     1       1.010  11.548  19.250  0.00  0.00    +0.000 C 
ATOM      4  N   UNL     1       1.243  10.126  19.542  0.00  0.00    +0.000 N 
ATOM      5  C   UNL     1       1.818   9.318  18.564  0.00  0.00    +0.000 C 
ATOM      6  O   UNL     1       2.195   9.831  17.505  0.00  0.00    +0.000 OA
ATOM      7  C   UNL     1       1.012   9.788  20.957  0.00  0.00    +0.000 C 
ATOM      8  C   UNL     1      -0.425  10.157  21.360  0.00  0.00    +0.000 C 
ENDROOT
BRANCH   5   9
ATOM      9  C   UNL     1       1.926   7.881  18.792  0.00  0.00    +0.000 A 
ATOM     10  C   UNL     1       2.196   6.843  17.920  0.00  0.00    +0.000 A 
ATOM     11  C   UNL     1       2.232   5.552  18.548  0.00  0.00    +0.000 A 
ATOM     12  C   UNL     1       2.145   5.681  19.921  0.00  0.00    +0.000 A 
ATOM     13  S   UNL     1       1.828   7.292  20.398  0.00  0.00    +0.000 S 
ATOM     14  C   UNL     1       2.359   4.634  20.970  0.00  0.00    +0.000 C 
ATOM     15  C   UNL     1       1.576   3.334  20.791  0.00  0.00    +0.000 C 
ATOM     16  C   UNL     1       0.807   3.136  19.488  0.00  0.00    +0.000 C 
ATOM     17  C   UNL     1       1.694   3.030  18.252  0.00  0.00    +0.000 C 
ATOM     18  C   UNL     1       2.457   4.277  17.791  0.00  0.00    +0.000 C 
ENDBRANCH   5   9
BRANCH   1  22
ATOM     19  C   UNL     1      -2.341  14.124  24.004  0.00  0.00    +0.000 A 
ATOM     20  C   UNL     1      -1.090  14.405  23.463  0.00  0.00    +0.000 A 
ATOM     21  C   UNL     1      -0.536  13.573  22.482  0.00  0.00    +0.000 A 
ATOM     22  C   UNL     1      -1.205  12.432  22.022  0.00  0.00    +0.000 A 
ATOM     23  C   UNL     1      -2.457  12.165  22.593  0.00  0.00    +0.000 A 
ATOM     24  C   UNL     1      -3.023  12.993  23.571  0.00  0.00    +0.000 A 
BRANCH  19  26
ATOM     25  C   UNL     1      -1.791  15.418  25.901  0.00  0.00    +0.000 C 
ATOM     26  O   UNL     1      -2.774  14.993  24.966  0.00  0.00    +0.000 OA
ENDBRANCH  19  26
ENDBRANCH   1  22
TORSDOF 3
ENDMDL
MODEL 5
REMARK VINA RESULT:      -6.6      2.728      9.369
REMARK  Name = 
REMARK  4 active torsions:
REMARK  status: ('A' for Active; 'I' for Inactive)
REMARK    1  A    between atoms: C_1  and  O_2
REMARK    2  A    between atoms: O_2  and  C_3
REMARK    3  A    between atoms: C_6  and  N_7
REMARK    4  A    between atoms: C_11  and  C_13
REMARK                            x       y       z     vdW  Elec       q    Type
REMARK                         _______ _______ _______ _____ _____    ______ ____
ROOT
ATOM      1  N   UNL     1       1.700   8.293  19.620  0.00  0.00    +0.000 N 
ATOM      2  C   UNL     1       1.913   9.292  18.557  0.00  0.00    +0.000 C 
ATOM      3  C   UNL     1       0.591  10.029  18.246  0.00  0.00    +0.000 C 
ATOM      4  N   UNL     1      -0.063  10.523  19.467  0.00  0.00    +0.000 N 
ATOM      5  C   UNL     1      -0.565  11.822  19.490  0.00  0.00    +0.000 C 
ATOM      6  O   UNL     1      -0.524  12.501  18.458  0.00  0.00    +0.000 OA
ATOM      7  C   UNL     1      -0.284   9.463  20.466  0.00  0.00    +0.000 C 
ATOM      8  C   UNL     1       1.054   8.803  20.840  0.00  0.00    +0.000 C 
ENDROOT
BRANCH   5   9
ATOM      9  C   UNL     1      -1.091  12.368  20.737  0.00  0.00    +0.000 A 
ATOM     10  C   UNL     1      -2.094  11.915  21.573  0.00  0.00    +0.000 A 
ATOM     11  C   UNL     1      -2.302  12.741  22.729  0.00  0.00    +0.000 A 
ATOM     12  C   UNL     1      -1.325  13.715  22.809  0.00  0.00    +0.000 A 
ATOM     13  S   UNL     1      -0.326  13.740  21.421  0.00  0.00    +0.000 S 
ATOM     14  C   UNL     1      -1.026  14.643  23.945  0.00  0.00    +0.000 C 
ATOM     15  C   UNL     1      -2.212  15.434  24.497  0.00  0.00    +0.000 C 
ATOM     16  C   UNL     1      -3.606  15.080  23.988  0.00  0.00    +0.000 C 
ATOM     17  C   UNL     1      -4.074  13.680  24.377  0.00  0.00    +0.000 C 
ATOM     18  C   UNL     1      -3.370  12.473  23.747  0.00  0.00    +0.000 C 
ENDBRANCH   5   9
BRANCH   1  22
ATOM     19  C   UNL     1       3.299   4.394  19.378  0.00  0.00    +0.000 A 
ATOM     20  C   UNL     1       2.503   4.765  20.457  0.00  0.00    +0.000 A 
ATOM     21  C   UNL     1       1.958   6.053  20.531  0.00  0.00    +0.000 A 
ATOM     22  C   UNL     1       2.200   7.012  19.539  0.00  0.00    +0.000 A 
ATOM     23  C   UNL     1       3.015   6.616  18.469  0.00  0.00    +0.000 A 
ATOM     24  C   UNL     1       3.562   5.329  18.383  0.00  0.00    +0.000 A 
BRANCH  19  26
ATOM     25  C   UNL     1       3.400   2.273  18.346  0.00  0.00    +0.000 C 
ATOM     26  O   UNL     1       3.790   3.120  19.419  0.00  0.00    +0.000 OA
ENDBRANCH  19  26
ENDBRANCH   1  22
TORSDOF 3
ENDMDL
MODEL 6
REMARK VINA RESULT:      -6.5      1.186      1.639
REMARK  Name = 
REMARK  4 active torsions:
REMARK  status: ('A' for Active; 'I' for Inactive)
REMARK    1  A    between atoms: C_1  and  O_2
REMARK    2  A    between atoms: O_2  and  C_3
REMARK    3  A    between atoms: C_6  and  N_7
REMARK    4  A    between atoms: C_11  and  C_13
REMARK                            x       y       z     vdW  Elec       q    Type
REMARK                         _______ _______ _______ _____ _____    ______ ____
ROOT
ATOM      1  N   UNL     1      -0.759  11.094  20.443  0.00  0.00    +0.000 N 
ATOM      2  C   UNL     1      -0.291  11.431  19.087  0.00  0.00    +0.000 C 
ATOM      3  C   UNL     1       1.164  10.945  18.890  0.00  0.00    +0.000 C 
ATOM      4  N   UNL     1       1.334   9.542  19.297  0.00  0.00    +0.000 N 
ATOM      5  C   UNL     1       2.043   8.677  18.468  0.00  0.00    +0.000 C 
ATOM      6  O   UNL     1       2.583   9.124  17.450  0.00  0.00    +0.000 OA
ATOM      7  C   UNL     1       0.886   9.289  20.678  0.00  0.00    +0.000 C 
ATOM      8  C   UNL     1      -0.592   9.685  20.834  0.00  0.00    +0.000 C 
ENDROOT
BRANCH   5   9
ATOM      9  C   UNL     1       2.100   7.255  18.793  0.00  0.00    +0.000 A 
ATOM     10  C   UNL     1       2.433   6.160  18.018  0.00  0.00    +0.000 A 
ATOM     11  C   UNL     1       2.381   4.911  18.725  0.00  0.00    +0.000 A 
ATOM     12  C   UNL     1       2.163   5.128  20.073  0.00  0.00    +0.000 A 
ATOM     13  S   UNL     1       1.833   6.771  20.415  0.00  0.00    +0.000 S 
ATOM     14  C   UNL     1       2.253   4.147  21.200  0.00  0.00    +0.000 C 
ATOM     15  C   UNL     1       1.465   2.849  21.025  0.00  0.00    +0.000 C 
ATOM     16  C   UNL     1       0.823   2.580  19.668  0.00  0.00    +0.000 C 
ATOM     17  C   UNL     1       1.824   2.384  18.534  0.00  0.00    +0.000 C 
ATOM     18  C   UNL     1       2.653   3.588  18.074  0.00  0.00    +0.000 C 
ENDBRANCH   5   9
BRANCH   1  22
ATOM     19  C   UNL     1      -2.778  13.870  22.900  0.00  0.00    +0.000 A 
ATOM     20  C   UNL     1      -2.681  14.082  21.528  0.00  0.00    +0.000 A 
ATOM     21  C   UNL     1      -2.027  13.153  20.709  0.00  0.00    +0.000 A 
ATOM     22  C   UNL     1      -1.438  11.996  21.234  0.00  0.00    +0.000 A 
ATOM     23  C   UNL     1      -1.539  11.813  22.621  0.00  0.00    +0.000 A 
ATOM     24  C   UNL     1      -2.196  12.733  23.448  0.00  0.00    +0.000 A 
BRANCH  19  26
ATOM     25  C   UNL     1      -4.843  14.778  23.596  0.00  0.00    +0.000 C 
ATOM     26  O   UNL     1      -3.423  14.849  23.602  0.00  0.00    +0.000 OA
ENDBRANCH  19  26
ENDBRANCH   1  22
TORSDOF 3
ENDMDL
MODEL 7
REMARK VINA RESULT:      -6.5      3.189      9.588
REMARK  Name = 
REMARK  4 active torsions:
REMARK  status: ('A' for Active; 'I' for Inactive)
REMARK    1  A    between atoms: C_1  and  O_2
REMARK    2  A    between atoms: O_2  and  C_3
REMARK    3  A    between atoms: C_6  and  N_7
REMARK    4  A    between atoms: C_11  and  C_13
REMARK                            x       y       z     vdW  Elec       q    Type
REMARK                         _______ _______ _______ _____ _____    ______ ____
ROOT
ATOM      1  N   UNL     1       0.908   9.901  19.647  0.00  0.00    +0.000 N 
ATOM      2  C   UNL     1       1.477  11.260  19.669  0.00  0.00    +0.000 C 
ATOM      3  C   UNL     1       0.490  12.261  19.026  0.00  0.00    +0.000 C 
ATOM      4  N   UNL     1      -0.867  12.125  19.576  0.00  0.00    +0.000 N 
ATOM      5  C   UNL     1      -1.571  13.272  19.933  0.00  0.00    +0.000 C 
ATOM      6  O   UNL     1      -1.075  14.380  19.702  0.00  0.00    +0.000 OA
ATOM      7  C   UNL     1      -1.388  10.750  19.480  0.00  0.00    +0.000 C 
ATOM      8  C   UNL     1      -0.447   9.777  20.210  0.00  0.00    +0.000 C 
ENDROOT
BRANCH   5   9
ATOM      9  C   UNL     1      -2.860  13.144  20.606  0.00  0.00    +0.000 A 
ATOM     10  C   UNL     1      -4.091  12.725  20.137  0.00  0.00    +0.000 A 
ATOM     11  C   UNL     1      -5.123  12.726  21.135  0.00  0.00    +0.000 A 
ATOM     12  C   UNL     1      -4.590  12.998  22.381  0.00  0.00    +0.000 A 
ATOM     13  S   UNL     1      -2.939  13.432  22.293  0.00  0.00    +0.000 S 
ATOM     14  C   UNL     1      -5.251  12.888  23.720  0.00  0.00    +0.000 C 
ATOM     15  C   UNL     1      -6.598  13.594  23.865  0.00  0.00    +0.000 C 
ATOM     16  C   UNL     1      -7.238  14.177  22.609  0.00  0.00    +0.000 C 
ATOM     17  C   UNL     1      -7.648  13.131  21.577  0.00  0.00    +0.000 C 
ATOM     18  C   UNL     1      -6.547  12.359  20.842  0.00  0.00    +0.000 C 
ENDBRANCH   5   9
BRANCH   1  22
ATOM     19  C   UNL     1       3.217   6.568  18.473  0.00  0.00    +0.000 A 
ATOM     20  C   UNL     1       2.584   6.586  19.712  0.00  0.00    +0.000 A 
ATOM     21  C   UNL     1       1.803   7.684  20.096  0.00  0.00    +0.000 A 
ATOM     22  C   UNL     1       1.643   8.799  19.264  0.00  0.00    +0.000 A 
ATOM     23  C   UNL     1       2.302   8.760  18.027  0.00  0.00    +0.000 A 
ATOM     24  C   UNL     1       3.081   7.665  17.631  0.00  0.00    +0.000 A 
BRANCH  19  26
ATOM     25  C   UNL     1       5.110   5.274  19.037  0.00  0.00    +0.000 C 
ATOM     26  O   UNL     1       3.966   5.455  18.212  0.00  0.00    +0.000 OA
ENDBRANCH  19  26
ENDBRANCH   1  22
TORSDOF 3
ENDMDL
MODEL 8
REMARK VINA RESULT:      -6.4      2.916      9.393
REMARK  Name = 
REMARK  4 active torsions:
REMARK  status: ('A' for Active; 'I' for Inactive)
REMARK    1  A    between atoms: C_1  and  O_2
REMARK    2  A    between atoms: O_2  and  C_3
REMARK    3  A    between atoms: C_6  and  N_7
REMARK    4  A    between atoms: C_11  and  C_13
REMARK                            x       y       z     vdW  Elec       q    Type
REMARK                         _______ _______ _______ _____ _____    ______ ____
ROOT
ATOM      1  N   UNL     1       1.443   8.904  19.472  0.00  0.00    +0.000 N 
ATOM      2  C   UNL     1       1.786   9.992  18.539  0.00  0.00    +0.000 C 
ATOM      3  C   UNL     1       0.499  10.668  18.013  0.00  0.00    +0.000 C 
ATOM      4  N   UNL     1      -0.419  11.026  19.105  0.00  0.00    +0.000 N 
ATOM      5  C   UNL     1      -1.013  12.285  19.107  0.00  0.00    +0.000 C 
ATOM      6  O   UNL     1      -0.821  13.043  18.150  0.00  0.00    +0.000 OA
ATOM      7  C   UNL     1      -0.752   9.880  19.970  0.00  0.00    +0.000 C 
ATOM      8  C   UNL     1       0.532   9.278  20.566  0.00  0.00    +0.000 C 
ENDROOT
BRANCH   5   9
ATOM      9  C   UNL     1      -1.815  12.700  20.254  0.00  0.00    +0.000 A 
ATOM     10  C   UNL     1      -1.451  13.299  21.445  0.00  0.00    +0.000 A 
ATOM     11  C   UNL     1      -2.556  13.566  22.322  0.00  0.00    +0.000 A 
ATOM     12  C   UNL     1      -3.753  13.300  21.684  0.00  0.00    +0.000 A 
ATOM     13  S   UNL     1      -3.520  12.564  20.158  0.00  0.00    +0.000 S 
ATOM     14  C   UNL     1      -5.142  13.634  22.133  0.00  0.00    +0.000 C 
ATOM     15  C   UNL     1      -5.513  13.201  23.551  0.00  0.00    +0.000 C 
ATOM     16  C   UNL     1      -4.405  12.648  24.442  0.00  0.00    +0.000 C 
ATOM     17  C   UNL     1      -3.326  13.667  24.798  0.00  0.00    +0.000 C 
ATOM     18  C   UNL     1      -2.395  14.164  23.687  0.00  0.00    +0.000 C 
ENDBRANCH   5   9
BRANCH   1  22
ATOM     19  C   UNL     1       3.223   5.081  19.292  0.00  0.00    +0.000 A 
ATOM     20  C   UNL     1       3.425   6.002  18.269  0.00  0.00    +0.000 A 
ATOM     21  C   UNL     1       2.850   7.277  18.335  0.00  0.00    +0.000 A 
ATOM     22  C   UNL     1       2.045   7.666  19.414  0.00  0.00    +0.000 A 
ATOM     23  C   UNL     1       1.847   6.714  20.425  0.00  0.00    +0.000 A 
ATOM     24  C   UNL     1       2.422   5.438  20.371  0.00  0.00    +0.000 A 
BRANCH  19  26
ATOM     25  C   UNL     1       3.465   3.174  17.920  0.00  0.00    +0.000 C 
ATOM     26  O   UNL     1       3.818   3.863  19.113  0.00  0.00    +0.000 OA
ENDBRANCH  19  26
ENDBRANCH   1  22
TORSDOF 3
ENDMDL
MODEL 9
REMARK VINA RESULT:      -6.4      2.997      9.477
REMARK  Name = 
REMARK  4 active torsions:
REMARK  status: ('A' for Active; 'I' for Inactive)
REMARK    1  A    between atoms: C_1  and  O_2
REMARK    2  A    between atoms: O_2  and  C_3
REMARK    3  A    between atoms: C_6  and  N_7
REMARK    4  A    between atoms: C_11  and  C_13
REMARK                            x       y       z     vdW  Elec       q    Type
REMARK                         _______ _______ _______ _____ _____    ______ ____
ROOT
ATOM      1  N   UNL     1       1.417   8.641  19.574  0.00  0.00    +0.000 N 
ATOM      2  C   UNL     1       1.441   9.388  18.304  0.00  0.00    +0.000 C 
ATOM      3  C   UNL     1       0.052  10.005  18.022  0.00  0.00    +0.000 C 
ATOM      4  N   UNL     1      -0.471  10.737  19.186  0.00  0.00    +0.000 N 
ATOM      5  C   UNL     1      -1.036  11.996  18.997  0.00  0.00    +0.000 C 
ATOM      6  O   UNL     1      -1.161  12.434  17.849  0.00  0.00    +0.000 OA
ATOM      7  C   UNL     1      -0.507   9.916  20.408  0.00  0.00    +0.000 C 
ATOM      8  C   UNL     1       0.901   9.389  20.733  0.00  0.00    +0.000 C 
ENDROOT
BRANCH   5   9
ATOM      9  C   UNL     1      -1.430  12.787  20.158  0.00  0.00    +0.000 A 
ATOM     10  C   UNL     1      -0.673  13.486  21.080  0.00  0.00    +0.000 A 
ATOM     11  C   UNL     1      -1.452  14.159  22.080  0.00  0.00    +0.000 A 
ATOM     12  C   UNL     1      -2.799  14.076  21.780  0.00  0.00    +0.000 A 
ATOM     13  S   UNL     1      -3.099  13.046  20.448  0.00  0.00    +0.000 S 
ATOM     14  C   UNL     1      -3.941  14.806  22.415  0.00  0.00    +0.000 C 
ATOM     15  C   UNL     1      -4.020  14.734  23.940  0.00  0.00    +0.000 C 
ATOM     16  C   UNL     1      -2.850  14.101  24.687  0.00  0.00    +0.000 C 
ATOM     17  C   UNL     1      -1.543  14.881  24.571  0.00  0.00    +0.000 C 
ATOM     18  C   UNL     1      -0.843  14.936  23.209  0.00  0.00    +0.000 C 
ENDBRANCH   5   9
BRANCH   1  22
ATOM     19  C   UNL     1       3.053   4.769  19.954  0.00  0.00    +0.000 A 
ATOM     20  C   UNL     1       3.496   5.627  18.953  0.00  0.00    +0.000 A 
ATOM     21  C   UNL     1       2.967   6.918  18.835  0.00  0.00    +0.000 A 
ATOM     22  C   UNL     1       1.972   7.387  19.703  0.00  0.00    +0.000 A 
ATOM     23  C   UNL     1       1.534   6.498  20.695  0.00  0.00    +0.000 A 
ATOM     24  C   UNL     1       2.060   5.205  20.824  0.00  0.00    +0.000 A 
BRANCH  19  26
ATOM     25  C   UNL     1       4.739   3.359  19.093  0.00  0.00    +0.000 C 
ATOM     26  O   UNL     1       3.626   3.529  19.962  0.00  0.00    +0.000 OA
ENDBRANCH  19  26
ENDBRANCH   1  22
TORSDOF 3
ENDMDL
