MODEL 1
REMARK VINA RESULT:      -8.5      0.000      0.000
REMARK  Name = 
REMARK  8 active torsions:
REMARK  status: ('A' for Active; 'I' for Inactive)
REMARK    1  A    between atoms: C_1  and  C_2
REMARK    2  A    between atoms: C_5  and  S_6
REMARK    3  A    between atoms: S_6  and  N_9
REMARK    4  A    between atoms: N_9  and  C_10
REMARK    5  A    between atoms: C_13  and  C_14
REMARK    6  A    between atoms: C_16  and  O_17
REMARK    7  A    between atoms: O_17  and  C_18
REMARK    8  A    between atoms: C_21  and  C_22
REMARK                            x       y       z     vdW  Elec       q    Type
REMARK                         _______ _______ _______ _____ _____    ______ ____
ROOT
ATOM      1  C   UNL     1       3.642   4.721  17.575  0.00  0.00    +0.000 A 
ATOM      2  C   UNL     1       3.344   3.485  16.991  0.00  0.00    +0.000 A 
ATOM      3  C   UNL     1       2.307   2.694  17.492  0.00  0.00    +0.000 A 
ATOM      4  C   UNL     1       1.503   3.168  18.529  0.00  0.00    +0.000 A 
ATOM      5  C   UNL     1       0.437   2.319  19.153  0.00  0.00    +0.000 C 
ATOM      6  C   UNL     1       1.743   4.448  19.043  0.00  0.00    +0.000 A 
ATOM      7  C   UNL     1       2.862   5.193  18.638  0.00  0.00    +0.000 A 
ENDROOT
BRANCH   1   8
ATOM      8  N   UNL     1       4.742   5.461  17.042  0.00  0.00    +0.000 N 
ATOM      9  H   UNL     1       4.652   5.746  16.066  0.00  0.00    +0.000 HD
BRANCH   8  10
ATOM     10  S   UNL     1       6.306   4.911  17.385  0.00  0.00    +0.000 S 
ATOM     11  O   UNL     1       6.894   4.327  16.195  0.00  0.00    +0.000 OA
ATOM     12  O   UNL     1       6.200   4.137  18.614  0.00  0.00    +0.000 OA
BRANCH  10  17
ATOM     13  C   UNL     1       9.091  10.093  18.866  0.00  0.00    +0.000 C 
ATOM     14  C   UNL     1       8.461   8.793  18.457  0.00  0.00    +0.000 A 
ATOM     15  C   UNL     1       7.613   8.735  17.344  0.00  0.00    +0.000 A 
ATOM     16  C   UNL     1       6.979   7.540  17.003  0.00  0.00    +0.000 A 
ATOM     17  C   UNL     1       7.195   6.394  17.777  0.00  0.00    +0.000 A 
ATOM     18  C   UNL     1       8.026   6.441  18.898  0.00  0.00    +0.000 A 
ATOM     19  C   UNL     1       8.661   7.640  19.231  0.00  0.00    +0.000 A 
ENDBRANCH  10  17
ENDBRANCH   8  10
ENDBRANCH   1   8
BRANCH   7  20
ATOM     20  O   UNL     1       3.233   6.370  19.272  0.00  0.00    +0.000 OA
BRANCH  20  21
ATOM     21  C   UNL     1       2.395   7.463  19.130  0.00  0.00    +0.000 A 
ATOM     22  C   UNL     1       2.200   8.111  17.902  0.00  0.00    +0.000 A 
ATOM     23  C   UNL     1       1.482   9.306  17.844  0.00  0.00    +0.000 A 
ATOM     24  C   UNL     1       0.883   9.817  18.998  0.00  0.00    +0.000 A 
ATOM     25  C   UNL     1       0.985   9.115  20.206  0.00  0.00    +0.000 A 
ATOM     26  C   UNL     1       1.747   7.940  20.272  0.00  0.00    +0.000 A 
BRANCH  24  27
ATOM     27  C   UNL     1       0.174  11.122  18.919  0.00  0.00    +0.000 C 
ATOM     28  N   UNL     1       0.706  12.184  18.400  0.00  0.00    +0.000 NA
ATOM     29  N   UNL     1      -1.099  11.243  19.397  0.00  0.00    +0.000 N 
ATOM     30  H   UNL     1       1.673  12.010  18.114  0.00  0.00    +0.000 HD
ATOM     31  H   UNL     1      -1.713  10.458  19.217  0.00  0.00    +0.000 HD
ATOM     32  H   UNL     1      -1.509  12.127  19.109  0.00  0.00    +0.000 HD
ENDBRANCH  24  27
ENDBRANCH  20  21
ENDBRANCH   7  20
TORSDOF 6
ENDMDL
MODEL 2
REMARK VINA RESULT:      -8.5      0.300      1.129
REMARK  Name = 
REMARK  8 active torsions:
REMARK  status: ('A' for Active; 'I' for Inactive)
REMARK    1  A    between atoms: C_1  and  C_2
REMARK    2  A    between atoms: C_5  and  S_6
REMARK    3  A    between atoms: S_6  and  N_9
REMARK    4  A    between atoms: N_9  and  C_10
REMARK    5  A    between atoms: C_13  and  C_14
REMARK    6  A    between atoms: C_16  and  O_17
REMARK    7  A    between atoms: O_17  and  C_18
REMARK    8  A    between atoms: C_21  and  C_22
REMARK                            x       y       z     vdW  Elec       q    Type
REMARK                         _______ _______ _______ _____ _____    ______ ____
ROOT
ATOM      1  C   UNL     1       3.636   4.654  17.601  0.00  0.00    +0.000 A 
ATOM      2  C   UNL     1       3.258   3.434  17.030  0.00  0.00    +0.000 A 
ATOM      3  C   UNL     1       2.217   2.684  17.582  0.00  0.00    +0.000 A 
ATOM      4  C   UNL     1       1.488   3.185  18.661  0.00  0.00    +0.000 A 
ATOM      5  C   UNL     1       0.423   2.376  19.338  0.00  0.00    +0.000 C 
ATOM      6  C   UNL     1       1.807   4.451  19.165  0.00  0.00    +0.000 A 
ATOM      7  C   UNL     1       2.933   5.153  18.704  0.00  0.00    +0.000 A 
ENDROOT
BRANCH   1   8
ATOM      8  N   UNL     1       4.736   5.351  17.013  0.00  0.00    +0.000 N 
ATOM      9  H   UNL     1       4.640   5.572  16.021  0.00  0.00    +0.000 HD
BRANCH   8  10
ATOM     10  S   UNL     1       6.300   4.816  17.380  0.00  0.00    +0.000 S 
ATOM     11  O   UNL     1       6.906   4.225  16.204  0.00  0.00    +0.000 OA
ATOM     12  O   UNL     1       6.184   4.053  18.616  0.00  0.00    +0.000 OA
BRANCH  10  17
ATOM     13  C   UNL     1       9.033  10.028  18.855  0.00  0.00    +0.000 C 
ATOM     14  C   UNL     1       8.415   8.722  18.445  0.00  0.00    +0.000 A 
ATOM     15  C   UNL     1       7.546   8.661  17.350  0.00  0.00    +0.000 A 
ATOM     16  C   UNL     1       6.923   7.459  17.009  0.00  0.00    +0.000 A 
ATOM     17  C   UNL     1       7.173   6.309  17.769  0.00  0.00    +0.000 A 
ATOM     18  C   UNL     1       8.026   6.360  18.873  0.00  0.00    +0.000 A 
ATOM     19  C   UNL     1       8.649   7.565  19.205  0.00  0.00    +0.000 A 
ENDBRANCH  10  17
ENDBRANCH   8  10
ENDBRANCH   1   8
BRANCH   7  20
ATOM     20  O   UNL     1       3.383   6.311  19.321  0.00  0.00    +0.000 OA
BRANCH  20  21
ATOM     21  C   UNL     1       2.588   7.440  19.220  0.00  0.00    +0.000 A 
ATOM     22  C   UNL     1       1.801   7.906  20.282  0.00  0.00    +0.000 A 
ATOM     23  C   UNL     1       0.891   8.945  20.078  0.00  0.00    +0.000 A 
ATOM     24  C   UNL     1       0.822   9.579  18.836  0.00  0.00    +0.000 A 
ATOM     25  C   UNL     1       1.684   9.187  17.804  0.00  0.00    +0.000 A 
ATOM     26  C   UNL     1       2.564   8.111  17.996  0.00  0.00    +0.000 A 
BRANCH  24  27
ATOM     27  C   UNL     1      -0.197  10.642  18.630  0.00  0.00    +0.000 C 
ATOM     28  N   UNL     1      -1.459  10.466  18.869  0.00  0.00    +0.000 NA
ATOM     29  N   UNL     1       0.177  11.875  18.178  0.00  0.00    +0.000 N 
ATOM     30  H   UNL     1      -1.649   9.503  19.157  0.00  0.00    +0.000 HD
ATOM     31  H   UNL     1       1.043  12.238  18.557  0.00  0.00    +0.000 HD
ATOM     32  H   UNL     1      -0.589  12.538  18.265  0.00  0.00    +0.000 HD
ENDBRANCH  24  27
ENDBRANCH  20  21
ENDBRANCH   7  20
TORSDOF 6
ENDMDL
MODEL 3
REMARK VINA RESULT:      -8.4      0.462      1.025
REMARK  Name = 
REMARK  8 active torsions:
REMARK  status: ('A' for Active; 'I' for Inactive)
REMARK    1  A    between atoms: C_1  and  C_2
REMARK    2  A    between atoms: C_5  and  S_6
REMARK    3  A    between atoms: S_6  and  N_9
REMARK    4  A    between atoms: N_9  and  C_10
REMARK    5  A    between atoms: C_13  and  C_14
REMARK    6  A    between atoms: C_16  and  O_17
REMARK    7  A    between atoms: O_17  and  C_18
REMARK    8  A    between atoms: C_21  and  C_22
REMARK                            x       y       z     vdW  Elec       q    Type
REMARK                         _______ _______ _______ _____ _____    ______ ____
ROOT
ATOM      1  C   UNL     1       3.876   4.764  17.443  0.00  0.00    +0.000 A 
ATOM      2  C   UNL     1       3.603   3.514  16.878  0.00  0.00    +0.000 A 
ATOM      3  C   UNL     1       2.568   2.719  17.377  0.00  0.00    +0.000 A 
ATOM      4  C   UNL     1       1.742   3.201  18.393  0.00  0.00    +0.000 A 
ATOM      5  C   UNL     1       0.678   2.350  19.016  0.00  0.00    +0.000 C 
ATOM      6  C   UNL     1       1.959   4.493  18.886  0.00  0.00    +0.000 A 
ATOM      7  C   UNL     1       3.074   5.245  18.486  0.00  0.00    +0.000 A 
ENDROOT
BRANCH   1   8
ATOM      8  N   UNL     1       4.975   5.508  16.914  0.00  0.00    +0.000 N 
ATOM      9  H   UNL     1       4.950   5.679  15.908  0.00  0.00    +0.000 HD
BRANCH   8  10
ATOM     10  S   UNL     1       6.533   5.097  17.434  0.00  0.00    +0.000 S 
ATOM     11  O   UNL     1       7.289   4.541  16.329  0.00  0.00    +0.000 OA
ATOM     12  O   UNL     1       6.360   4.341  18.666  0.00  0.00    +0.000 OA
BRANCH  10  17
ATOM     13  C   UNL     1       9.252  10.348  18.790  0.00  0.00    +0.000 C 
ATOM     14  C   UNL     1       8.524   9.067  18.501  0.00  0.00    +0.000 A 
ATOM     15  C   UNL     1       8.792   7.914  19.249  0.00  0.00    +0.000 A 
ATOM     16  C   UNL     1       8.160   6.709  18.939  0.00  0.00    +0.000 A 
ATOM     17  C   UNL     1       7.253   6.656  17.874  0.00  0.00    +0.000 A 
ATOM     18  C   UNL     1       6.988   7.795  17.110  0.00  0.00    +0.000 A 
ATOM     19  C   UNL     1       7.620   8.998  17.430  0.00  0.00    +0.000 A 
ENDBRANCH  10  17
ENDBRANCH   8  10
ENDBRANCH   1   8
BRANCH   7  20
ATOM     20  O   UNL     1       3.421   6.438  19.103  0.00  0.00    +0.000 OA
BRANCH  20  21
ATOM     21  C   UNL     1       2.509   7.478  19.040  0.00  0.00    +0.000 A 
ATOM     22  C   UNL     1       2.222   8.159  17.848  0.00  0.00    +0.000 A 
ATOM     23  C   UNL     1       1.427   9.306  17.869  0.00  0.00    +0.000 A 
ATOM     24  C   UNL     1       0.845   9.731  19.065  0.00  0.00    +0.000 A 
ATOM     25  C   UNL     1       1.042   8.991  20.238  0.00  0.00    +0.000 A 
ATOM     26  C   UNL     1       1.881   7.866  20.225  0.00  0.00    +0.000 A 
BRANCH  24  27
ATOM     27  C   UNL     1       0.051  10.988  19.069  0.00  0.00    +0.000 C 
ATOM     28  N   UNL     1      -0.544  11.450  18.014  0.00  0.00    +0.000 NA
ATOM     29  N   UNL     1      -0.087  11.712  20.218  0.00  0.00    +0.000 N 
ATOM     30  H   UNL     1      -0.346  10.869  17.194  0.00  0.00    +0.000 HD
ATOM     31  H   UNL     1      -0.215  11.172  21.065  0.00  0.00    +0.000 HD
ATOM     32  H   UNL     1      -0.797  12.430  20.108  0.00  0.00    +0.000 HD
ENDBRANCH  24  27
ENDBRANCH  20  21
ENDBRANCH   7  20
TORSDOF 6
ENDMDL
MODEL 4
REMARK VINA RESULT:      -8.4      2.402      3.361
REMARK  Name = 
REMARK  8 active torsions:
REMARK  status: ('A' for Active; 'I' for Inactive)
REMARK    1  A    between atoms: C_1  and  C_2
REMARK    2  A    between atoms: C_5  and  S_6
REMARK    3  A    between atoms: S_6  and  N_9
REMARK    4  A    between atoms: N_9  and  C_10
REMARK    5  A    between atoms: C_13  and  C_14
REMARK    6  A    between atoms: C_16  and  O_17
REMARK    7  A    between atoms: O_17  and  C_18
REMARK    8  A    between atoms: C_21  and  C_22
REMARK                            x       y       z     vdW  Elec       q    Type
REMARK                         _______ _______ _______ _____ _____    ______ ____
ROOT
ATOM      1  C   UNL     1       3.055   4.615  18.437  0.00  0.00    +0.000 A 
ATOM      2  C   UNL     1       2.719   3.260  18.343  0.00  0.00    +0.000 A 
ATOM      3  C   UNL     1       2.123   2.599  19.420  0.00  0.00    +0.000 A 
ATOM      4  C   UNL     1       1.780   3.306  20.573  0.00  0.00    +0.000 A 
ATOM      5  C   UNL     1       1.220   2.621  21.782  0.00  0.00    +0.000 C 
ATOM      6  C   UNL     1       2.028   4.683  20.622  0.00  0.00    +0.000 A 
ATOM      7  C   UNL     1       2.745   5.329  19.602  0.00  0.00    +0.000 A 
ENDROOT
BRANCH   1   8
ATOM      8  N   UNL     1       3.701   5.220  17.316  0.00  0.00    +0.000 N 
ATOM      9  H   UNL     1       3.384   4.902  16.399  0.00  0.00    +0.000 HD
BRANCH   8  10
ATOM     10  S   UNL     1       5.385   5.386  17.367  0.00  0.00    +0.000 S 
ATOM     11  O   UNL     1       5.939   4.477  18.352  0.00  0.00    +0.000 OA
ATOM     12  O   UNL     1       5.647   6.815  17.449  0.00  0.00    +0.000 OA
BRANCH  10  17
ATOM     13  C   UNL     1       7.002   3.786  11.742  0.00  0.00    +0.000 C 
ATOM     14  C   UNL     1       6.633   4.119  13.160  0.00  0.00    +0.000 A 
ATOM     15  C   UNL     1       5.399   3.720  13.684  0.00  0.00    +0.000 A 
ATOM     16  C   UNL     1       5.033   4.084  14.981  0.00  0.00    +0.000 A 
ATOM     17  C   UNL     1       5.908   4.851  15.759  0.00  0.00    +0.000 A 
ATOM     18  C   UNL     1       7.136   5.268  15.243  0.00  0.00    +0.000 A 
ATOM     19  C   UNL     1       7.498   4.896  13.946  0.00  0.00    +0.000 A 
ENDBRANCH  10  17
ENDBRANCH   8  10
ENDBRANCH   1   8
BRANCH   7  20
ATOM     20  O   UNL     1       3.176   6.642  19.720  0.00  0.00    +0.000 OA
BRANCH  20  21
ATOM     21  C   UNL     1       2.245   7.642  19.497  0.00  0.00    +0.000 A 
ATOM     22  C   UNL     1       2.036   8.210  18.232  0.00  0.00    +0.000 A 
ATOM     23  C   UNL     1       1.212   9.328  18.092  0.00  0.00    +0.000 A 
ATOM     24  C   UNL     1       0.524   9.831  19.198  0.00  0.00    +0.000 A 
ATOM     25  C   UNL     1       0.646   9.198  20.442  0.00  0.00    +0.000 A 
ATOM     26  C   UNL     1       1.512   8.106  20.591  0.00  0.00    +0.000 A 
BRANCH  24  27
ATOM     27  C   UNL     1      -0.302  11.057  19.032  0.00  0.00    +0.000 C 
ATOM     28  N   UNL     1      -0.674  11.505  17.874  0.00  0.00    +0.000 NA
ATOM     29  N   UNL     1      -0.712  11.763  20.125  0.00  0.00    +0.000 N 
ATOM     30  H   UNL     1      -0.281  10.940  17.116  0.00  0.00    +0.000 HD
ATOM     31  H   UNL     1      -0.998  11.211  20.924  0.00  0.00    +0.000 HD
ATOM     32  H   UNL     1      -1.410  12.455  19.866  0.00  0.00    +0.000 HD
ENDBRANCH  24  27
ENDBRANCH  20  21
ENDBRANCH   7  20
TORSDOF 6
ENDMDL
MODEL 5
REMARK VINA RESULT:      -8.3      1.040      1.144
REMARK  Name = 
REMARK  8 active torsions:
REMARK  status: ('A' for Active; 'I' for Inactive)
REMARK    1  A    between atoms: C_1  and  C_2
REMARK    2  A    between atoms: C_5  and  S_6
REMARK    3  A    between atoms: S_6  and  N_9
REMARK    4  A    between atoms: N_9  and  C_10
REMARK    5  A    between atoms: C_13  and  C_14
REMARK    6  A    between atoms: C_16  and  O_17
REMARK    7  A    between atoms: O_17  and  C_18
REMARK    8  A    between atoms: C_21  and  C_22
REMARK                            x       y       z     vdW  Elec       q    Type
REMARK                         _______ _______ _______ _____ _____    ______ ____
ROOT
ATOM      1  C   UNL     1       4.378   3.659  18.432  0.00  0.00    +0.000 A 
ATOM      2  C   UNL     1       4.020   2.364  18.044  0.00  0.00    +0.000 A 
ATOM      3  C   UNL     1       2.708   1.911  18.205  0.00  0.00    +0.000 A 
ATOM      4  C   UNL     1       1.722   2.776  18.680  0.00  0.00    +0.000 A 
ATOM      5  C   UNL     1       0.324   2.308  18.951  0.00  0.00    +0.000 C 
ATOM      6  C   UNL     1       2.066   4.101  18.974  0.00  0.00    +0.000 A 
ATOM      7  C   UNL     1       3.403   4.527  18.941  0.00  0.00    +0.000 A 
ENDROOT
BRANCH   1   8
ATOM      8  N   UNL     1       5.745   4.045  18.279  0.00  0.00    +0.000 N 
ATOM      9  H   UNL     1       6.189   4.439  19.110  0.00  0.00    +0.000 HD
BRANCH   8  10
ATOM     10  S   UNL     1       6.175   4.900  16.882  0.00  0.00    +0.000 S 
ATOM     11  O   UNL     1       4.983   5.406  16.230  0.00  0.00    +0.000 OA
ATOM     12  O   UNL     1       7.109   4.048  16.160  0.00  0.00    +0.000 OA
BRANCH  10  17
ATOM     13  C   UNL     1       9.080   9.724  19.141  0.00  0.00    +0.000 C 
ATOM     14  C   UNL     1       8.422   8.514  18.542  0.00  0.00    +0.000 A 
ATOM     15  C   UNL     1       7.661   8.627  17.372  0.00  0.00    +0.000 A 
ATOM     16  C   UNL     1       6.999   7.514  16.851  0.00  0.00    +0.000 A 
ATOM     17  C   UNL     1       7.100   6.279  17.504  0.00  0.00    +0.000 A 
ATOM     18  C   UNL     1       7.843   6.156  18.679  0.00  0.00    +0.000 A 
ATOM     19  C   UNL     1       8.507   7.273  19.192  0.00  0.00    +0.000 A 
ENDBRANCH  10  17
ENDBRANCH   8  10
ENDBRANCH   1   8
BRANCH   7  20
ATOM     20  O   UNL     1       3.794   5.770  19.416  0.00  0.00    +0.000 OA
BRANCH  20  21
ATOM     21  C   UNL     1       2.935   6.835  19.202  0.00  0.00    +0.000 A 
ATOM     22  C   UNL     1       2.862   7.510  17.976  0.00  0.00    +0.000 A 
ATOM     23  C   UNL     1       2.107   8.679  17.862  0.00  0.00    +0.000 A 
ATOM     24  C   UNL     1       1.354   9.133  18.947  0.00  0.00    +0.000 A 
ATOM     25  C   UNL     1       1.339   8.399  20.141  0.00  0.00    +0.000 A 
ATOM     26  C   UNL     1       2.136   7.252  20.269  0.00  0.00    +0.000 A 
BRANCH  24  27
ATOM     27  C   UNL     1       0.606  10.411  18.816  0.00  0.00    +0.000 C 
ATOM     28  N   UNL     1       0.736  11.393  19.653  0.00  0.00    +0.000 NA
ATOM     29  N   UNL     1      -0.258  10.600  17.776  0.00  0.00    +0.000 N 
ATOM     30  H   UNL     1       1.365  11.143  20.420  0.00  0.00    +0.000 HD
ATOM     31  H   UNL     1       0.045  10.236  16.881  0.00  0.00    +0.000 HD
ATOM     32  H   UNL     1      -0.546  11.573  17.720  0.00  0.00    +0.000 HD
ENDBRANCH  24  27
ENDBRANCH  20  21
ENDBRANCH   7  20
TORSDOF 6
ENDMDL
MODEL 6
REMARK VINA RESULT:      -8.3      0.378      1.346
REMARK  Name = 
REMARK  8 active torsions:
REMARK  status: ('A' for Active; 'I' for Inactive)
REMARK    1  A    between atoms: C_1  and  C_2
REMARK    2  A    between atoms: C_5  and  S_6
REMARK    3  A    between atoms: S_6  and  N_9
REMARK    4  A    between atoms: N_9  and  C_10
REMARK    5  A    between atoms: C_13  and  C_14
REMARK    6  A    between atoms: C_16  and  O_17
REMARK    7  A    between atoms: O_17  and  C_18
REMARK    8  A    between atoms: C_21  and  C_22
REMARK                            x       y       z     vdW  Elec       q    Type
REMARK                         _______ _______ _______ _____ _____    ______ ____
ROOT
ATOM      1  C   UNL     1       3.719   4.674  17.474  0.00  0.00    +0.000 A 
ATOM      2  C   UNL     1       3.350   3.459  16.886  0.00  0.00    +0.000 A 
ATOM      3  C   UNL     1       2.308   2.698  17.420  0.00  0.00    +0.000 A 
ATOM      4  C   UNL     1       1.568   3.183  18.499  0.00  0.00    +0.000 A 
ATOM      5  C   UNL     1       0.501   2.362  19.158  0.00  0.00    +0.000 C 
ATOM      6  C   UNL     1       1.878   4.445  19.021  0.00  0.00    +0.000 A 
ATOM      7  C   UNL     1       3.004   5.156  18.578  0.00  0.00    +0.000 A 
ENDROOT
BRANCH   1   8
ATOM      8  N   UNL     1       4.820   5.382  16.904  0.00  0.00    +0.000 N 
ATOM      9  H   UNL     1       4.781   5.521  15.893  0.00  0.00    +0.000 HD
BRANCH   8  10
ATOM     10  S   UNL     1       6.380   4.963  17.413  0.00  0.00    +0.000 S 
ATOM     11  O   UNL     1       7.121   4.393  16.305  0.00  0.00    +0.000 OA
ATOM     12  O   UNL     1       6.212   4.218  18.653  0.00  0.00    +0.000 OA
BRANCH  10  17
ATOM     13  C   UNL     1       9.147  10.208  18.695  0.00  0.00    +0.000 C 
ATOM     14  C   UNL     1       8.409   8.928  18.427  0.00  0.00    +0.000 A 
ATOM     15  C   UNL     1       8.709   7.770  19.154  0.00  0.00    +0.000 A 
ATOM     16  C   UNL     1       8.066   6.567  18.861  0.00  0.00    +0.000 A 
ATOM     17  C   UNL     1       7.115   6.521  17.835  0.00  0.00    +0.000 A 
ATOM     18  C   UNL     1       6.817   7.664  17.091  0.00  0.00    +0.000 A 
ATOM     19  C   UNL     1       7.461   8.866  17.393  0.00  0.00    +0.000 A 
ENDBRANCH  10  17
ENDBRANCH   8  10
ENDBRANCH   1   8
BRANCH   7  20
ATOM     20  O   UNL     1       3.445   6.308  19.213  0.00  0.00    +0.000 OA
BRANCH  20  21
ATOM     21  C   UNL     1       2.657   7.441  19.101  0.00  0.00    +0.000 A 
ATOM     22  C   UNL     1       1.941   7.972  20.183  0.00  0.00    +0.000 A 
ATOM     23  C   UNL     1       1.031   9.011  19.981  0.00  0.00    +0.000 A 
ATOM     24  C   UNL     1       0.893   9.581  18.713  0.00  0.00    +0.000 A 
ATOM     25  C   UNL     1       1.686   9.125  17.653  0.00  0.00    +0.000 A 
ATOM     26  C   UNL     1       2.565   8.049  17.847  0.00  0.00    +0.000 A 
BRANCH  24  27
ATOM     27  C   UNL     1      -0.126  10.646  18.514  0.00  0.00    +0.000 C 
ATOM     28  N   UNL     1       0.169  11.908  18.487  0.00  0.00    +0.000 NA
ATOM     29  N   UNL     1      -1.439  10.318  18.339  0.00  0.00    +0.000 N 
ATOM     30  H   UNL     1       1.164  12.059  18.673  0.00  0.00    +0.000 HD
ATOM     31  H   UNL     1      -1.616   9.502  17.766  0.00  0.00    +0.000 HD
ATOM     32  H   UNL     1      -1.975  11.126  18.035  0.00  0.00    +0.000 HD
ENDBRANCH  24  27
ENDBRANCH  20  21
ENDBRANCH   7  20
TORSDOF 6
ENDMDL
MODEL 7
REMARK VINA RESULT:      -8.3      2.424      3.437
REMARK  Name = 
REMARK  8 active torsions:
REMARK  status: ('A' for Active; 'I' for Inactive)
REMARK    1  A    between atoms: C_1  and  C_2
REMARK    2  A    between atoms: C_5  and  S_6
REMARK    3  A    between atoms: S_6  and  N_9
REMARK    4  A    between atoms: N_9  and  C_10
REMARK    5  A    between atoms: C_13  and  C_14
REMARK    6  A    between atoms: C_16  and  O_17
REMARK    7  A    between atoms: O_17  and  C_18
REMARK    8  A    between atoms: C_21  and  C_22
REMARK                            x       y       z     vdW  Elec       q    Type
REMARK                         _______ _______ _______ _____ _____    ______ ____
ROOT
ATOM      1  C   UNL     1       3.061   4.704  18.421  0.00  0.00    +0.000 A 
ATOM      2  C   UNL     1       2.740   3.346  18.315  0.00  0.00    +0.000 A 
ATOM      3  C   UNL     1       2.151   2.670  19.386  0.00  0.00    +0.000 A 
ATOM      4  C   UNL     1       1.800   3.363  20.545  0.00  0.00    +0.000 A 
ATOM      5  C   UNL     1       1.247   2.662  21.749  0.00  0.00    +0.000 C 
ATOM      6  C   UNL     1       2.034   4.742  20.606  0.00  0.00    +0.000 A 
ATOM      7  C   UNL     1       2.744   5.404  19.592  0.00  0.00    +0.000 A 
ENDROOT
BRANCH   1   8
ATOM      8  N   UNL     1       3.701   5.325  17.305  0.00  0.00    +0.000 N 
ATOM      9  H   UNL     1       3.338   5.065  16.386  0.00  0.00    +0.000 HD
BRANCH   8  10
ATOM     10  S   UNL     1       5.392   5.403  17.304  0.00  0.00    +0.000 S 
ATOM     11  O   UNL     1       5.930   4.409  18.212  0.00  0.00    +0.000 OA
ATOM     12  O   UNL     1       5.730   6.811  17.463  0.00  0.00    +0.000 OA
BRANCH  10  17
ATOM     13  C   UNL     1       7.064   3.602  11.757  0.00  0.00    +0.000 C 
ATOM     14  C   UNL     1       6.622   4.109  13.100  0.00  0.00    +0.000 A 
ATOM     15  C   UNL     1       7.481   4.888  13.883  0.00  0.00    +0.000 A 
ATOM     16  C   UNL     1       7.091   5.307  15.156  0.00  0.00    +0.000 A 
ATOM     17  C   UNL     1       5.832   4.945  15.649  0.00  0.00    +0.000 A 
ATOM     18  C   UNL     1       4.970   4.156  14.884  0.00  0.00    +0.000 A 
ATOM     19  C   UNL     1       5.365   3.745  13.609  0.00  0.00    +0.000 A 
ENDBRANCH  10  17
ENDBRANCH   8  10
ENDBRANCH   1   8
BRANCH   7  20
ATOM     20  O   UNL     1       3.160   6.721  19.721  0.00  0.00    +0.000 OA
BRANCH  20  21
ATOM     21  C   UNL     1       2.216   7.712  19.515  0.00  0.00    +0.000 A 
ATOM     22  C   UNL     1       2.003   8.303  18.262  0.00  0.00    +0.000 A 
ATOM     23  C   UNL     1       1.163   9.412  18.142  0.00  0.00    +0.000 A 
ATOM     24  C   UNL     1       0.467   9.884  19.257  0.00  0.00    +0.000 A 
ATOM     25  C   UNL     1       0.594   9.228  20.488  0.00  0.00    +0.000 A 
ATOM     26  C   UNL     1       1.476   8.144  20.617  0.00  0.00    +0.000 A 
BRANCH  24  27
ATOM     27  C   UNL     1      -0.375  11.102  19.113  0.00  0.00    +0.000 C 
ATOM     28  N   UNL     1      -0.767  11.812  20.124  0.00  0.00    +0.000 NA
ATOM     29  N   UNL     1      -0.764  11.526  17.875  0.00  0.00    +0.000 N 
ATOM     30  H   UNL     1      -0.468  11.392  21.008  0.00  0.00    +0.000 HD
ATOM     31  H   UNL     1      -0.068  11.450  17.145  0.00  0.00    +0.000 HD
ATOM     32  H   UNL     1      -1.170  12.457  17.925  0.00  0.00    +0.000 HD
ENDBRANCH  24  27
ENDBRANCH  20  21
ENDBRANCH   7  20
TORSDOF 6
ENDMDL
MODEL 8
REMARK VINA RESULT:      -8.3      1.055      1.762
REMARK  Name = 
REMARK  8 active torsions:
REMARK  status: ('A' for Active; 'I' for Inactive)
REMARK    1  A    between atoms: C_1  and  C_2
REMARK    2  A    between atoms: C_5  and  S_6
REMARK    3  A    between atoms: S_6  and  N_9
REMARK    4  A    between atoms: N_9  and  C_10
REMARK    5  A    between atoms: C_13  and  C_14
REMARK    6  A    between atoms: C_16  and  O_17
REMARK    7  A    between atoms: O_17  and  C_18
REMARK    8  A    between atoms: C_21  and  C_22
REMARK                            x       y       z     vdW  Elec       q    Type
REMARK                         _______ _______ _______ _____ _____    ______ ____
ROOT
ATOM      1  C   UNL     1       4.438   3.658  18.347  0.00  0.00    +0.000 A 
ATOM      2  C   UNL     1       4.038   2.409  17.860  0.00  0.00    +0.000 A 
ATOM      3  C   UNL     1       2.713   1.986  17.992  0.00  0.00    +0.000 A 
ATOM      4  C   UNL     1       1.756   2.842  18.537  0.00  0.00    +0.000 A 
ATOM      5  C   UNL     1       0.344   2.398  18.777  0.00  0.00    +0.000 C 
ATOM      6  C   UNL     1       2.143   4.129  18.932  0.00  0.00    +0.000 A 
ATOM      7  C   UNL     1       3.492   4.514  18.927  0.00  0.00    +0.000 A 
ENDROOT
BRANCH   1   8
ATOM      8  N   UNL     1       5.816   4.011  18.219  0.00  0.00    +0.000 N 
ATOM      9  H   UNL     1       6.263   4.365  19.066  0.00  0.00    +0.000 HD
BRANCH   8  10
ATOM     10  S   UNL     1       6.282   4.900  16.855  0.00  0.00    +0.000 S 
ATOM     11  O   UNL     1       5.108   5.304  16.107  0.00  0.00    +0.000 OA
ATOM     12  O   UNL     1       7.339   4.129  16.214  0.00  0.00    +0.000 OA
BRANCH  10  17
ATOM     13  C   UNL     1       9.125   9.789  19.050  0.00  0.00    +0.000 C 
ATOM     14  C   UNL     1       8.364   8.594  18.553  0.00  0.00    +0.000 A 
ATOM     15  C   UNL     1       8.529   7.344  19.160  0.00  0.00    +0.000 A 
ATOM     16  C   UNL     1       7.869   6.222  18.656  0.00  0.00    +0.000 A 
ATOM     17  C   UNL     1       7.036   6.352  17.539  0.00  0.00    +0.000 A 
ATOM     18  C   UNL     1       6.874   7.590  16.914  0.00  0.00    +0.000 A 
ATOM     19  C   UNL     1       7.534   8.709  17.426  0.00  0.00    +0.000 A 
ENDBRANCH  10  17
ENDBRANCH   8  10
ENDBRANCH   1   8
BRANCH   7  20
ATOM     20  O   UNL     1       3.923   5.703  19.496  0.00  0.00    +0.000 OA
BRANCH  20  21
ATOM     21  C   UNL     1       3.141   6.828  19.294  0.00  0.00    +0.000 A 
ATOM     22  C   UNL     1       2.279   7.333  20.277  0.00  0.00    +0.000 A 
ATOM     23  C   UNL     1       1.389   8.364  19.968  0.00  0.00    +0.000 A 
ATOM     24  C   UNL     1       1.416   8.953  18.701  0.00  0.00    +0.000 A 
ATOM     25  C   UNL     1       2.352   8.522  17.752  0.00  0.00    +0.000 A 
ATOM     26  C   UNL     1       3.211   7.454  18.048  0.00  0.00    +0.000 A 
BRANCH  24  27
ATOM     27  C   UNL     1       0.419  10.008  18.380  0.00  0.00    +0.000 C 
ATOM     28  N   UNL     1       0.388  11.156  18.983  0.00  0.00    +0.000 NA
ATOM     29  N   UNL     1      -0.515   9.799  17.407  0.00  0.00    +0.000 N 
ATOM     30  H   UNL     1       1.091  11.202  19.725  0.00  0.00    +0.000 HD
ATOM     31  H   UNL     1      -0.189   9.313  16.582  0.00  0.00    +0.000 HD
ATOM     32  H   UNL     1      -0.997  10.665  17.180  0.00  0.00    +0.000 HD
ENDBRANCH  24  27
ENDBRANCH  20  21
ENDBRANCH   7  20
TORSDOF 6
ENDMDL
MODEL 9
REMARK VINA RESULT:      -8.3      1.267      1.841
REMARK  Name = 
REMARK  8 active torsions:
REMARK  status: ('A' for Active; 'I' for Inactive)
REMARK    1  A    between atoms: C_1  and  C_2
REMARK    2  A    between atoms: C_5  and  S_6
REMARK    3  A    between atoms: S_6  and  N_9
REMARK    4  A    between atoms: N_9  and  C_10
REMARK    5  A    between atoms: C_13  and  C_14
REMARK    6  A    between atoms: C_16  and  O_17
REMARK    7  A    between atoms: O_17  and  C_18
REMARK    8  A    between atoms: C_21  and  C_22
REMARK                            x       y       z     vdW  Elec       q    Type
REMARK                         _______ _______ _______ _____ _____    ______ ____
ROOT
ATOM      1  C   UNL     1       2.745   4.159  18.373  0.00  0.00    +0.000 A 
ATOM      2  C   UNL     1       2.220   2.862  18.392  0.00  0.00    +0.000 A 
ATOM      3  C   UNL     1       1.713   2.318  19.575  0.00  0.00    +0.000 A 
ATOM      4  C   UNL     1       1.650   3.095  20.732  0.00  0.00    +0.000 A 
ATOM      5  C   UNL     1       1.196   2.525  22.042  0.00  0.00    +0.000 C 
ATOM      6  C   UNL     1       2.085   4.424  20.681  0.00  0.00    +0.000 A 
ATOM      7  C   UNL     1       2.716   4.938  19.537  0.00  0.00    +0.000 A 
ENDROOT
BRANCH   1   8
ATOM      8  N   UNL     1       3.286   4.640  17.141  0.00  0.00    +0.000 N 
ATOM      9  H   UNL     1       2.652   4.615  16.340  0.00  0.00    +0.000 HD
BRANCH   8  10
ATOM     10  S   UNL     1       4.846   4.141  16.713  0.00  0.00    +0.000 S 
ATOM     11  O   UNL     1       4.958   4.062  15.270  0.00  0.00    +0.000 OA
ATOM     12  O   UNL     1       5.139   2.981  17.543  0.00  0.00    +0.000 OA
BRANCH  10  17
ATOM     13  C   UNL     1       8.602   8.572  18.465  0.00  0.00    +0.000 C 
ATOM     14  C   UNL     1       7.627   7.494  18.088  0.00  0.00    +0.000 A 
ATOM     15  C   UNL     1       7.761   6.202  18.609  0.00  0.00    +0.000 A 
ATOM     16  C   UNL     1       6.891   5.186  18.209  0.00  0.00    +0.000 A 
ATOM     17  C   UNL     1       5.879   5.464  17.283  0.00  0.00    +0.000 A 
ATOM     18  C   UNL     1       5.743   6.745  16.744  0.00  0.00    +0.000 A 
ATOM     19  C   UNL     1       6.614   7.758  17.152  0.00  0.00    +0.000 A 
ENDBRANCH  10  17
ENDBRANCH   8  10
ENDBRANCH   1   8
BRANCH   7  20
ATOM     20  O   UNL     1       3.331   6.181  19.529  0.00  0.00    +0.000 OA
BRANCH  20  21
ATOM     21  C   UNL     1       2.535   7.286  19.283  0.00  0.00    +0.000 A 
ATOM     22  C   UNL     1       2.462   7.899  18.024  0.00  0.00    +0.000 A 
ATOM     23  C   UNL     1       1.780   9.107  17.870  0.00  0.00    +0.000 A 
ATOM     24  C   UNL     1       1.096   9.666  18.952  0.00  0.00    +0.000 A 
ATOM     25  C   UNL     1       1.077   9.000  20.184  0.00  0.00    +0.000 A 
ATOM     26  C   UNL     1       1.803   7.811  20.350  0.00  0.00    +0.000 A 
BRANCH  24  27
ATOM     27  C   UNL     1       0.427  10.983  18.774  0.00  0.00    +0.000 C 
ATOM     28  N   UNL     1      -0.821  11.184  19.060  0.00  0.00    +0.000 NA
ATOM     29  N   UNL     1       1.130  12.052  18.300  0.00  0.00    +0.000 N 
ATOM     30  H   UNL     1      -1.275  10.318  19.361  0.00  0.00    +0.000 HD
ATOM     31  H   UNL     1       2.077  12.144  18.644  0.00  0.00    +0.000 HD
ATOM     32  H   UNL     1       0.596  12.910  18.408  0.00  0.00    +0.000 HD
ENDBRANCH  24  27
ENDBRANCH  20  21
ENDBRANCH   7  20
TORSDOF 6
ENDMDL
