MODEL 1
REMARK VINA RESULT:      -7.4      0.000      0.000
REMARK  Name = 
REMARK  5 active torsions:
REMARK  status: ('A' for Active; 'I' for Inactive)
REMARK    1  A    between atoms: C_1  and  O_2
REMARK    2  A    between atoms: O_2  and  C_3
REMARK    3  A    between atoms: C_3  and  C_5
REMARK    4  A    between atoms: C_6  and  N_7
REMARK    5  A    between atoms: N_10  and  C_11
REMARK                            x       y       z     vdW  Elec       q    Type
REMARK                         _______ _______ _______ _____ _____    ______ ____
ROOT
ATOM      1  N   UNL     1       1.935   8.392  20.492  0.00  0.00    +0.000 N 
ATOM      2  C   UNL     1       1.718   7.028  20.345  0.00  0.00    +0.000 C 
ATOM      3  O   UNL     1       0.638   6.462  20.468  0.00  0.00    +0.000 OA
ATOM      4  N   UNL     1       2.865   6.303  20.055  0.00  0.00    +0.000 N 
ATOM      5  H   UNL     1       2.805   8.788  20.157  0.00  0.00    +0.000 HD
ATOM      6  H   UNL     1       3.659   6.804  19.686  0.00  0.00    +0.000 HD
ENDROOT
BRANCH   4   7
ATOM      7  C   UNL     1       2.854   4.819  19.953  0.00  0.00    +0.000 C 
ATOM      8  C   UNL     1       2.333   4.139  21.253  0.00  0.00    +0.000 C 
ATOM      9  C   UNL     1       2.351   2.604  21.124  0.00  0.00    +0.000 C 
ATOM     10  C   UNL     1       1.424   2.194  19.971  0.00  0.00    +0.000 C 
ATOM     11  C   UNL     1       1.916   2.823  18.658  0.00  0.00    +0.000 C 
ATOM     12  C   UNL     1       3.341   2.319  18.375  0.00  0.00    +0.000 C 
ATOM     13  C   UNL     1       4.279   2.747  19.511  0.00  0.00    +0.000 C 
ATOM     14  C   UNL     1       3.787   2.134  20.831  0.00  0.00    +0.000 C 
ATOM     15  C   UNL     1       4.274   4.279  19.630  0.00  0.00    +0.000 C 
ATOM     16  C   UNL     1       1.926   4.364  18.790  0.00  0.00    +0.000 C 
ENDBRANCH   4   7
BRANCH   1  18
ATOM     17  C   UNL     1       0.253  10.236  20.076  0.00  0.00    +0.000 A 
ATOM     18  C   UNL     1       0.946   9.313  20.872  0.00  0.00    +0.000 A 
ATOM     19  S   UNL     1       0.508   9.453  22.513  0.00  0.00    +0.000 S 
ATOM     20  C   UNL     1      -0.644  10.644  22.211  0.00  0.00    +0.000 A 
ATOM     21  C   UNL     1      -0.690  11.014  20.882  0.00  0.00    +0.000 A 
ATOM     22  C   UNL     1      -1.660  12.078  20.432  0.00  0.00    +0.000 C 
ATOM     23  C   UNL     1      -2.149  12.949  21.605  0.00  0.00    +0.000 C 
ATOM     24  C   UNL     1      -2.597  12.094  22.793  0.00  0.00    +0.000 C 
ATOM     25  C   UNL     1      -1.452  11.228  23.329  0.00  0.00    +0.000 C 
BRANCH  17  26
ATOM     26  C   UNL     1       0.469  10.337  18.630  0.00  0.00    +0.000 C 
ATOM     27  O   UNL     1      -0.408  10.100  17.802  0.00  0.00    +0.000 OA
BRANCH  26  29
ATOM     28  C   UNL     1       2.025  12.105  18.425  0.00  0.00    +0.000 C 
ATOM     29  O   UNL     1       1.739  10.712  18.304  0.00  0.00    +0.000 OA
ENDBRANCH  26  29
ENDBRANCH  17  26
ENDBRANCH   1  18
TORSDOF 4
ENDMDL
MODEL 2
REMARK VINA RESULT:      -7.4      0.084      1.454
REMARK  Name = 
REMARK  5 active torsions:
REMARK  status: ('A' for Active; 'I' for Inactive)
REMARK    1  A    between atoms: C_1  and  O_2
REMARK    2  A    between atoms: O_2  and  C_3
REMARK    3  A    between atoms: C_3  and  C_5
REMARK    4  A    between atoms: C_6  and  N_7
REMARK    5  A    between atoms: N_10  and  C_11
REMARK                            x       y       z     vdW  Elec       q    Type
REMARK                         _______ _______ _______ _____ _____    ______ ____
ROOT
ATOM      1  N   UNL     1       1.953   8.361  20.418  0.00  0.00    +0.000 N 
ATOM      2  C   UNL     1       1.744   6.994  20.290  0.00  0.00    +0.000 C 
ATOM      3  O   UNL     1       0.676   6.418  20.461  0.00  0.00    +0.000 OA
ATOM      4  N   UNL     1       2.885   6.278  19.959  0.00  0.00    +0.000 N 
ATOM      5  H   UNL     1       2.805   8.762  20.045  0.00  0.00    +0.000 HD
ATOM      6  H   UNL     1       3.658   6.783  19.553  0.00  0.00    +0.000 HD
ENDROOT
BRANCH   4   7
ATOM      7  C   UNL     1       2.885   4.792  19.867  0.00  0.00    +0.000 C 
ATOM      8  C   UNL     1       1.986   4.271  18.708  0.00  0.00    +0.000 C 
ATOM      9  C   UNL     1       1.990   2.731  18.650  0.00  0.00    +0.000 C 
ATOM     10  C   UNL     1       3.425   2.250  18.391  0.00  0.00    +0.000 C 
ATOM     11  C   UNL     1       4.346   2.721  19.528  0.00  0.00    +0.000 C 
ATOM     12  C   UNL     1       3.836   2.128  20.851  0.00  0.00    +0.000 C 
ATOM     13  C   UNL     1       2.412   2.624  21.130  0.00  0.00    +0.000 C 
ATOM     14  C   UNL     1       1.487   2.169  19.992  0.00  0.00    +0.000 C 
ATOM     15  C   UNL     1       2.410   4.159  21.204  0.00  0.00    +0.000 C 
ATOM     16  C   UNL     1       4.325   4.266  19.608  0.00  0.00    +0.000 C 
ENDBRANCH   4   7
BRANCH   1  18
ATOM     17  C   UNL     1       0.254  10.202  20.062  0.00  0.00    +0.000 A 
ATOM     18  C   UNL     1       0.971   9.275  20.831  0.00  0.00    +0.000 A 
ATOM     19  S   UNL     1       0.577   9.399  22.485  0.00  0.00    +0.000 S 
ATOM     20  C   UNL     1      -0.587  10.589  22.223  0.00  0.00    +0.000 A 
ATOM     21  C   UNL     1      -0.669  10.970  20.899  0.00  0.00    +0.000 A 
ATOM     22  C   UNL     1      -1.655  12.035  20.484  0.00  0.00    +0.000 C 
ATOM     23  C   UNL     1      -2.115  12.893  21.677  0.00  0.00    +0.000 C 
ATOM     24  C   UNL     1      -2.529  12.027  22.869  0.00  0.00    +0.000 C 
ATOM     25  C   UNL     1      -1.367  11.161  23.367  0.00  0.00    +0.000 C 
BRANCH  17  26
ATOM     26  C   UNL     1       0.433  10.315  18.612  0.00  0.00    +0.000 C 
ATOM     27  O   UNL     1      -0.465  10.081  17.805  0.00  0.00    +0.000 OA
BRANCH  26  29
ATOM     28  C   UNL     1       2.019  12.066  18.508  0.00  0.00    +0.000 C 
ATOM     29  O   UNL     1       1.692  10.699  18.256  0.00  0.00    +0.000 OA
ENDBRANCH  26  29
ENDBRANCH  17  26
ENDBRANCH   1  18
TORSDOF 4
ENDMDL
MODEL 3
REMARK VINA RESULT:      -7.4      2.510      8.735
REMARK  Name = 
REMARK  5 active torsions:
REMARK  status: ('A' for Active; 'I' for Inactive)
REMARK    1  A    between atoms: C_1  and  O_2
REMARK    2  A    between atoms: O_2  and  C_3
REMARK    3  A    between atoms: C_3  and  C_5
REMARK    4  A    between atoms: C_6  and  N_7
REMARK    5  A    between atoms: N_10  and  C_11
REMARK                            x       y       z     vdW  Elec       q    Type
REMARK                         _______ _______ _______ _____ _____    ______ ____
ROOT
ATOM      1  N   UNL     1       2.145   7.662  19.482  0.00  0.00    +0.000 N 
ATOM      2  C   UNL     1       1.431   8.787  19.089  0.00  0.00    +0.000 C 
ATOM      3  O   UNL     1       1.302   9.181  17.936  0.00  0.00    +0.000 OA
ATOM      4  N   UNL     1       0.858   9.486  20.141  0.00  0.00    +0.000 N 
ATOM      5  H   UNL     1       2.010   7.300  20.418  0.00  0.00    +0.000 HD
ATOM      6  H   UNL     1       0.736   9.004  21.018  0.00  0.00    +0.000 HD
ENDROOT
BRANCH   4   7
ATOM      7  C   UNL     1       0.131  10.768  19.931  0.00  0.00    +0.000 C 
ATOM      8  C   UNL     1      -1.021  10.633  18.893  0.00  0.00    +0.000 C 
ATOM      9  C   UNL     1      -1.742  11.978  18.683  0.00  0.00    +0.000 C 
ATOM     10  C   UNL     1      -2.357  12.424  20.019  0.00  0.00    +0.000 C 
ATOM     11  C   UNL     1      -1.249  12.596  21.070  0.00  0.00    +0.000 C 
ATOM     12  C   UNL     1      -0.264  13.667  20.575  0.00  0.00    +0.000 C 
ATOM     13  C   UNL     1       0.374  13.218  19.254  0.00  0.00    +0.000 C 
ATOM     14  C   UNL     1      -0.728  13.030  18.200  0.00  0.00    +0.000 C 
ATOM     15  C   UNL     1       1.106  11.884  19.466  0.00  0.00    +0.000 C 
ATOM     16  C   UNL     1      -0.503  11.255  21.266  0.00  0.00    +0.000 C 
ENDBRANCH   4   7
BRANCH   1  18
ATOM     17  C   UNL     1       2.890   5.452  18.502  0.00  0.00    +0.000 A 
ATOM     18  C   UNL     1       2.884   6.850  18.607  0.00  0.00    +0.000 A 
ATOM     19  S   UNL     1       4.003   7.561  17.537  0.00  0.00    +0.000 S 
ATOM     20  C   UNL     1       4.451   6.084  16.861  0.00  0.00    +0.000 A 
ATOM     21  C   UNL     1       3.819   5.012  17.459  0.00  0.00    +0.000 A 
ATOM     22  C   UNL     1       4.109   3.610  16.985  0.00  0.00    +0.000 C 
ATOM     23  C   UNL     1       5.432   3.526  16.202  0.00  0.00    +0.000 C 
ATOM     24  C   UNL     1       5.530   4.625  15.140  0.00  0.00    +0.000 C 
ATOM     25  C   UNL     1       5.473   6.022  15.768  0.00  0.00    +0.000 C 
BRANCH  17  26
ATOM     26  C   UNL     1       2.034   4.603  19.335  0.00  0.00    +0.000 C 
ATOM     27  O   UNL     1       1.210   3.819  18.870  0.00  0.00    +0.000 OA
BRANCH  26  29
ATOM     28  C   UNL     1       2.091   3.614  21.482  0.00  0.00    +0.000 C 
ATOM     29  O   UNL     1       2.244   4.779  20.671  0.00  0.00    +0.000 OA
ENDBRANCH  26  29
ENDBRANCH  17  26
ENDBRANCH   1  18
TORSDOF 4
ENDMDL
MODEL 4
REMARK VINA RESULT:      -7.4      2.529      8.739
REMARK  Name = 
REMARK  5 active torsions:
REMARK  status: ('A' for Active; 'I' for Inactive)
REMARK    1  A    between atoms: C_1  and  O_2
REMARK    2  A    between atoms: O_2  and  C_3
REMARK    3  A    between atoms: C_3  and  C_5
REMARK    4  A    between atoms: C_6  and  N_7
REMARK    5  A    between atoms: N_10  and  C_11
REMARK                            x       y       z     vdW  Elec       q    Type
REMARK                         _______ _______ _______ _____ _____    ______ ____
ROOT
ATOM      1  N   UNL     1       2.174   7.630  19.454  0.00  0.00    +0.000 N 
ATOM      2  C   UNL     1       1.467   8.761  19.067  0.00  0.00    +0.000 C 
ATOM      3  O   UNL     1       1.347   9.166  17.916  0.00  0.00    +0.000 OA
ATOM      4  N   UNL     1       0.890   9.453  20.121  0.00  0.00    +0.000 N 
ATOM      5  H   UNL     1       2.032   7.260  20.386  0.00  0.00    +0.000 HD
ATOM      6  H   UNL     1       0.760   8.963  20.993  0.00  0.00    +0.000 HD
ENDROOT
BRANCH   4   7
ATOM      7  C   UNL     1       0.170  10.740  19.919  0.00  0.00    +0.000 C 
ATOM      8  C   UNL     1       1.112  11.873  19.417  0.00  0.00    +0.000 C 
ATOM      9  C   UNL     1       0.344  13.196  19.235  0.00  0.00    +0.000 C 
ATOM     10  C   UNL     1      -0.753  12.990  18.180  0.00  0.00    +0.000 C 
ATOM     11  C   UNL     1      -1.725  11.894  18.647  0.00  0.00    +0.000 C 
ATOM     12  C   UNL     1      -2.364  12.336  19.973  0.00  0.00    +0.000 C 
ATOM     13  C   UNL     1      -1.277  12.520  21.039  0.00  0.00    +0.000 C 
ATOM     14  C   UNL     1      -0.293  13.604  20.575  0.00  0.00    +0.000 C 
ATOM     15  C   UNL     1      -0.520  11.197  21.233  0.00  0.00    +0.000 C 
ATOM     16  C   UNL     1      -0.954  10.569  18.857  0.00  0.00    +0.000 C 
ENDBRANCH   4   7
BRANCH   1  18
ATOM     17  C   UNL     1       2.942   5.424  18.481  0.00  0.00    +0.000 A 
ATOM     18  C   UNL     1       2.915   6.822  18.577  0.00  0.00    +0.000 A 
ATOM     19  S   UNL     1       4.013   7.542  17.490  0.00  0.00    +0.000 S 
ATOM     20  C   UNL     1       4.475   6.068  16.819  0.00  0.00    +0.000 A 
ATOM     21  C   UNL     1       3.866   4.991  17.431  0.00  0.00    +0.000 A 
ATOM     22  C   UNL     1       4.171   3.589  16.963  0.00  0.00    +0.000 C 
ATOM     23  C   UNL     1       5.487   3.520  16.166  0.00  0.00    +0.000 C 
ATOM     24  C   UNL     1       5.557   4.613  15.096  0.00  0.00    +0.000 C 
ATOM     25  C   UNL     1       5.486   6.013  15.715  0.00  0.00    +0.000 C 
BRANCH  17  26
ATOM     26  C   UNL     1       2.107   4.568  19.329  0.00  0.00    +0.000 C 
ATOM     27  O   UNL     1       1.266   3.793  18.879  0.00  0.00    +0.000 OA
BRANCH  26  29
ATOM     28  C   UNL     1       2.062   3.601  21.486  0.00  0.00    +0.000 C 
ATOM     29  O   UNL     1       2.358   4.727  20.660  0.00  0.00    +0.000 OA
ENDBRANCH  26  29
ENDBRANCH  17  26
ENDBRANCH   1  18
TORSDOF 4
ENDMDL
MODEL 5
REMARK VINA RESULT:      -7.3      2.542      8.723
REMARK  Name = 
REMARK  5 active torsions:
REMARK  status: ('A' for Active; 'I' for Inactive)
REMARK    1  A    between atoms: C_1  and  O_2
REMARK    2  A    between atoms: O_2  and  C_3
REMARK    3  A    between atoms: C_3  and  C_5
REMARK    4  A    between atoms: C_6  and  N_7
REMARK    5  A    between atoms: N_10  and  C_11
REMARK                            x       y       z     vdW  Elec       q    Type
REMARK                         _______ _______ _______ _____ _____    ______ ____
ROOT
ATOM      1  N   UNL     1       2.212   7.613  19.477  0.00  0.00    +0.000 N 
ATOM      2  C   UNL     1       1.501   8.747  19.106  0.00  0.00    +0.000 C 
ATOM      3  O   UNL     1       1.374   9.165  17.961  0.00  0.00    +0.000 OA
ATOM      4  N   UNL     1       0.930   9.428  20.172  0.00  0.00    +0.000 N 
ATOM      5  H   UNL     1       2.075   7.233  20.405  0.00  0.00    +0.000 HD
ATOM      6  H   UNL     1       0.807   8.929  21.039  0.00  0.00    +0.000 HD
ENDROOT
BRANCH   4   7
ATOM      7  C   UNL     1       0.209  10.716  19.988  0.00  0.00    +0.000 C 
ATOM      8  C   UNL     1      -0.346  11.281  21.329  0.00  0.00    +0.000 C 
ATOM      9  C   UNL     1      -1.104  12.604  21.105  0.00  0.00    +0.000 C 
ATOM     10  C   UNL     1      -0.130  13.639  20.521  0.00  0.00    +0.000 C 
ATOM     11  C   UNL     1       0.424  13.133  19.179  0.00  0.00    +0.000 C 
ATOM     12  C   UNL     1      -0.750  12.927  18.209  0.00  0.00    +0.000 C 
ATOM     13  C   UNL     1      -1.715  11.876  18.773  0.00  0.00    +0.000 C 
ATOM     14  C   UNL     1      -2.264  12.367  20.121  0.00  0.00    +0.000 C 
ATOM     15  C   UNL     1      -0.963  10.552  18.982  0.00  0.00    +0.000 C 
ATOM     16  C   UNL     1       1.163  11.791  19.393  0.00  0.00    +0.000 C 
ENDBRANCH   4   7
BRANCH   1  18
ATOM     17  C   UNL     1       2.988   5.417  18.487  0.00  0.00    +0.000 A 
ATOM     18  C   UNL     1       2.947   6.815  18.586  0.00  0.00    +0.000 A 
ATOM     19  S   UNL     1       4.019   7.550  17.483  0.00  0.00    +0.000 S 
ATOM     20  C   UNL     1       4.486   6.082  16.802  0.00  0.00    +0.000 A 
ATOM     21  C   UNL     1       3.900   4.997  17.421  0.00  0.00    +0.000 A 
ATOM     22  C   UNL     1       4.213   3.600  16.946  0.00  0.00    +0.000 C 
ATOM     23  C   UNL     1       5.517   3.547  16.128  0.00  0.00    +0.000 C 
ATOM     24  C   UNL     1       5.557   4.642  15.059  0.00  0.00    +0.000 C 
ATOM     25  C   UNL     1       5.480   6.040  15.681  0.00  0.00    +0.000 C 
BRANCH  17  26
ATOM     26  C   UNL     1       2.177   4.551  19.347  0.00  0.00    +0.000 C 
ATOM     27  O   UNL     1       1.317   3.788  18.912  0.00  0.00    +0.000 OA
BRANCH  26  29
ATOM     28  C   UNL     1       2.057   3.608  21.512  0.00  0.00    +0.000 C 
ATOM     29  O   UNL     1       2.472   4.685  20.672  0.00  0.00    +0.000 OA
ENDBRANCH  26  29
ENDBRANCH  17  26
ENDBRANCH   1  18
TORSDOF 4
ENDMDL
MODEL 6
REMARK VINA RESULT:      -7.3      0.538      1.004
REMARK  Name = 
REMARK  5 active torsions:
REMARK  status: ('A' for Active; 'I' for Inactive)
REMARK    1  A    between atoms: C_1  and  O_2
REMARK    2  A    between atoms: O_2  and  C_3
REMARK    3  A    between atoms: C_3  and  C_5
REMARK    4  A    between atoms: C_6  and  N_7
REMARK    5  A    between atoms: N_10  and  C_11
REMARK                            x       y       z     vdW  Elec       q    Type
REMARK                         _______ _______ _______ _____ _____    ______ ____
ROOT
ATOM      1  N   UNL     1       1.839   8.571  20.379  0.00  0.00    +0.000 N 
ATOM      2  C   UNL     1       1.639   7.200  20.285  0.00  0.00    +0.000 C 
ATOM      3  O   UNL     1       0.590   6.615  20.529  0.00  0.00    +0.000 OA
ATOM      4  N   UNL     1       2.767   6.492  19.897  0.00  0.00    +0.000 N 
ATOM      5  H   UNL     1       2.662   8.976  19.950  0.00  0.00    +0.000 HD
ATOM      6  H   UNL     1       3.508   6.999  19.438  0.00  0.00    +0.000 HD
ENDROOT
BRANCH   4   7
ATOM      7  C   UNL     1       2.779   5.005  19.828  0.00  0.00    +0.000 C 
ATOM      8  C   UNL     1       2.307   4.347  21.158  0.00  0.00    +0.000 C 
ATOM      9  C   UNL     1       2.348   2.810  21.064  0.00  0.00    +0.000 C 
ATOM     10  C   UNL     1       1.396   2.357  19.947  0.00  0.00    +0.000 C 
ATOM     11  C   UNL     1       1.840   2.964  18.607  0.00  0.00    +0.000 C 
ATOM     12  C   UNL     1       3.264   2.478  18.295  0.00  0.00    +0.000 C 
ATOM     13  C   UNL     1       4.227   2.947  19.393  0.00  0.00    +0.000 C 
ATOM     14  C   UNL     1       3.783   2.357  20.740  0.00  0.00    +0.000 C 
ATOM     15  C   UNL     1       4.198   4.482  19.477  0.00  0.00    +0.000 C 
ATOM     16  C   UNL     1       1.827   4.508  18.703  0.00  0.00    +0.000 C 
ENDBRANCH   4   7
BRANCH   1  18
ATOM     17  C   UNL     1       0.272  10.545  20.150  0.00  0.00    +0.000 A 
ATOM     18  C   UNL     1       0.873   9.481  20.837  0.00  0.00    +0.000 A 
ATOM     19  S   UNL     1       0.344   9.408  22.456  0.00  0.00    +0.000 S 
ATOM     20  C   UNL     1      -0.730  10.691  22.271  0.00  0.00    +0.000 A 
ATOM     21  C   UNL     1      -0.680  11.250  21.010  0.00  0.00    +0.000 A 
ATOM     22  C   UNL     1      -1.571  12.419  20.670  0.00  0.00    +0.000 C 
ATOM     23  C   UNL     1      -2.088  13.138  21.930  0.00  0.00    +0.000 C 
ATOM     24  C   UNL     1      -2.646  12.147  22.956  0.00  0.00    +0.000 C 
ATOM     25  C   UNL     1      -1.576  11.152  23.419  0.00  0.00    +0.000 C 
BRANCH  17  26
ATOM     26  C   UNL     1       0.579  10.839  18.748  0.00  0.00    +0.000 C 
ATOM     27  O   UNL     1       1.178  11.852  18.390  0.00  0.00    +0.000 OA
BRANCH  26  29
ATOM     28  C   UNL     1      -1.263   9.932  17.576  0.00  0.00    +0.000 C 
ATOM     29  O   UNL     1       0.129   9.881  17.888  0.00  0.00    +0.000 OA
ENDBRANCH  26  29
ENDBRANCH  17  26
ENDBRANCH   1  18
TORSDOF 4
ENDMDL
MODEL 7
REMARK VINA RESULT:      -7.3      0.123      1.482
REMARK  Name = 
REMARK  5 active torsions:
REMARK  status: ('A' for Active; 'I' for Inactive)
REMARK    1  A    between atoms: C_1  and  O_2
REMARK    2  A    between atoms: O_2  and  C_3
REMARK    3  A    between atoms: C_3  and  C_5
REMARK    4  A    between atoms: C_6  and  N_7
REMARK    5  A    between atoms: N_10  and  C_11
REMARK                            x       y       z     vdW  Elec       q    Type
REMARK                         _______ _______ _______ _____ _____    ______ ____
ROOT
ATOM      1  N   UNL     1       1.907   8.442  20.587  0.00  0.00    +0.000 N 
ATOM      2  C   UNL     1       1.688   7.083  20.405  0.00  0.00    +0.000 C 
ATOM      3  O   UNL     1       0.600   6.522  20.464  0.00  0.00    +0.000 OA
ATOM      4  N   UNL     1       2.842   6.354  20.156  0.00  0.00    +0.000 N 
ATOM      5  H   UNL     1       2.795   8.837  20.303  0.00  0.00    +0.000 HD
ATOM      6  H   UNL     1       3.657   6.855  19.835  0.00  0.00    +0.000 HD
ENDROOT
BRANCH   4   7
ATOM      7  C   UNL     1       2.826   4.872  20.024  0.00  0.00    +0.000 C 
ATOM      8  C   UNL     1       4.222   4.295  19.646  0.00  0.00    +0.000 C 
ATOM      9  C   UNL     1       4.169   2.763  19.498  0.00  0.00    +0.000 C 
ATOM     10  C   UNL     1       3.751   2.150  20.844  0.00  0.00    +0.000 C 
ATOM     11  C   UNL     1       2.363   2.673  21.245  0.00  0.00    +0.000 C 
ATOM     12  C   UNL     1       1.353   2.267  20.160  0.00  0.00    +0.000 C 
ATOM     13  C   UNL     1       1.749   2.896  18.818  0.00  0.00    +0.000 C 
ATOM     14  C   UNL     1       3.142   2.390  18.415  0.00  0.00    +0.000 C 
ATOM     15  C   UNL     1       1.786   4.426  18.960  0.00  0.00    +0.000 C 
ATOM     16  C   UNL     1       2.402   4.214  21.369  0.00  0.00    +0.000 C 
ENDBRANCH   4   7
BRANCH   1  18
ATOM     17  C   UNL     1       0.210  10.258  20.113  0.00  0.00    +0.000 A 
ATOM     18  C   UNL     1       0.907   9.363  20.937  0.00  0.00    +0.000 A 
ATOM     19  S   UNL     1       0.460   9.543  22.572  0.00  0.00    +0.000 S 
ATOM     20  C   UNL     1      -0.701  10.715  22.232  0.00  0.00    +0.000 A 
ATOM     21  C   UNL     1      -0.745  11.048  20.894  0.00  0.00    +0.000 A 
ATOM     22  C   UNL     1      -1.722  12.091  20.410  0.00  0.00    +0.000 C 
ATOM     23  C   UNL     1      -2.225  12.988  21.556  0.00  0.00    +0.000 C 
ATOM     24  C   UNL     1      -2.671  12.161  22.765  0.00  0.00    +0.000 C 
ATOM     25  C   UNL     1      -1.521  11.321  23.330  0.00  0.00    +0.000 C 
BRANCH  17  26
ATOM     26  C   UNL     1       0.433  10.321  18.667  0.00  0.00    +0.000 C 
ATOM     27  O   UNL     1      -0.434  10.041  17.841  0.00  0.00    +0.000 OA
BRANCH  26  29
ATOM     28  C   UNL     1       1.976  12.105  18.502  0.00  0.00    +0.000 C 
ATOM     29  O   UNL     1       1.696  10.714  18.337  0.00  0.00    +0.000 OA
ENDBRANCH  26  29
ENDBRANCH  17  26
ENDBRANCH   1  18
TORSDOF 4
ENDMDL
MODEL 8
REMARK VINA RESULT:      -7.3      0.573      1.781
REMARK  Name = 
REMARK  5 active torsions:
REMARK  status: ('A' for Active; 'I' for Inactive)
REMARK    1  A    between atoms: C_1  and  O_2
REMARK    2  A    between atoms: O_2  and  C_3
REMARK    3  A    between atoms: C_3  and  C_5
REMARK    4  A    between atoms: C_6  and  N_7
REMARK    5  A    between atoms: N_10  and  C_11
REMARK                            x       y       z     vdW  Elec       q    Type
REMARK                         _______ _______ _______ _____ _____    ______ ____
ROOT
ATOM      1  N   UNL     1       1.834   8.651  20.601  0.00  0.00    +0.000 N 
ATOM      2  C   UNL     1       1.601   7.300  20.381  0.00  0.00    +0.000 C 
ATOM      3  O   UNL     1       0.511   6.744  20.450  0.00  0.00    +0.000 OA
ATOM      4  N   UNL     1       2.744   6.573  20.080  0.00  0.00    +0.000 N 
ATOM      5  H   UNL     1       2.717   9.049  20.307  0.00  0.00    +0.000 HD
ATOM      6  H   UNL     1       3.553   7.079  19.755  0.00  0.00    +0.000 HD
ENDROOT
BRANCH   4   7
ATOM      7  C   UNL     1       2.714   5.096  19.902  0.00  0.00    +0.000 C 
ATOM      8  C   UNL     1       1.833   4.663  18.694  0.00  0.00    +0.000 C 
ATOM      9  C   UNL     1       1.806   3.129  18.546  0.00  0.00    +0.000 C 
ATOM     10  C   UNL     1       3.236   2.631  18.292  0.00  0.00    +0.000 C 
ATOM     11  C   UNL     1       4.139   3.015  19.475  0.00  0.00    +0.000 C 
ATOM     12  C   UNL     1       3.585   2.357  20.750  0.00  0.00    +0.000 C 
ATOM     13  C   UNL     1       2.165   2.869  21.024  0.00  0.00    +0.000 C 
ATOM     14  C   UNL     1       1.258   2.502  19.840  0.00  0.00    +0.000 C 
ATOM     15  C   UNL     1       2.193   4.397  21.188  0.00  0.00    +0.000 C 
ATOM     16  C   UNL     1       4.149   4.553  19.646  0.00  0.00    +0.000 C 
ENDBRANCH   4   7
BRANCH   1  18
ATOM     17  C   UNL     1       0.290  10.631  20.284  0.00  0.00    +0.000 A 
ATOM     18  C   UNL     1       0.849   9.567  21.005  0.00  0.00    +0.000 A 
ATOM     19  S   UNL     1       0.236   9.501  22.595  0.00  0.00    +0.000 S 
ATOM     20  C   UNL     1      -0.821  10.789  22.350  0.00  0.00    +0.000 A 
ATOM     21  C   UNL     1      -0.703  11.343  21.091  0.00  0.00    +0.000 A 
ATOM     22  C   UNL     1      -1.569  12.515  20.701  0.00  0.00    +0.000 C 
ATOM     23  C   UNL     1      -2.147  13.240  21.930  0.00  0.00    +0.000 C 
ATOM     24  C   UNL     1      -2.763  12.256  22.928  0.00  0.00    +0.000 C 
ATOM     25  C   UNL     1      -1.724  11.258  23.450  0.00  0.00    +0.000 C 
BRANCH  17  26
ATOM     26  C   UNL     1       0.672  10.919  18.899  0.00  0.00    +0.000 C 
ATOM     27  O   UNL     1       1.316  11.915  18.573  0.00  0.00    +0.000 OA
BRANCH  26  29
ATOM     28  C   UNL     1      -1.162  10.006  17.718  0.00  0.00    +0.000 C 
ATOM     29  O   UNL     1       0.234   9.976  18.016  0.00  0.00    +0.000 OA
ENDBRANCH  26  29
ENDBRANCH  17  26
ENDBRANCH   1  18
TORSDOF 4
ENDMDL
MODEL 9
REMARK VINA RESULT:      -7.1      1.830      2.340
REMARK  Name = 
REMARK  5 active torsions:
REMARK  status: ('A' for Active; 'I' for Inactive)
REMARK    1  A    between atoms: C_1  and  O_2
REMARK    2  A    between atoms: O_2  and  C_3
REMARK    3  A    between atoms: C_3  and  C_5
REMARK    4  A    between atoms: C_6  and  N_7
REMARK    5  A    between atoms: N_10  and  C_11
REMARK                            x       y       z     vdW  Elec       q    Type
REMARK                         _______ _______ _______ _____ _____    ______ ____
ROOT
ATOM      1  N   UNL     1       1.634   9.170  18.767  0.00  0.00    +0.000 N 
ATOM      2  C   UNL     1       2.196   7.913  18.948  0.00  0.00    +0.000 C 
ATOM      3  O   UNL     1       2.084   7.221  19.953  0.00  0.00    +0.000 OA
ATOM      4  N   UNL     1       2.949   7.473  17.869  0.00  0.00    +0.000 N 
ATOM      5  H   UNL     1       1.598   9.560  17.833  0.00  0.00    +0.000 HD
ATOM      6  H   UNL     1       2.795   7.912  16.975  0.00  0.00    +0.000 HD
ENDROOT
BRANCH   4   7
ATOM      7  C   UNL     1       3.706   6.192  17.908  0.00  0.00    +0.000 C 
ATOM      8  C   UNL     1       4.495   6.010  19.238  0.00  0.00    +0.000 C 
ATOM      9  C   UNL     1       5.283   4.687  19.241  0.00  0.00    +0.000 C 
ATOM     10  C   UNL     1       4.292   3.520  19.114  0.00  0.00    +0.000 C 
ATOM     11  C   UNL     1       3.507   3.645  17.799  0.00  0.00    +0.000 C 
ATOM     12  C   UNL     1       4.500   3.603  16.627  0.00  0.00    +0.000 C 
ATOM     13  C   UNL     1       5.479   4.780  16.732  0.00  0.00    +0.000 C 
ATOM     14  C   UNL     1       6.259   4.671  18.051  0.00  0.00    +0.000 C 
ATOM     15  C   UNL     1       4.695   6.101  16.713  0.00  0.00    +0.000 C 
ATOM     16  C   UNL     1       2.734   4.985  17.778  0.00  0.00    +0.000 C 
ENDBRANCH   4   7
BRANCH   1  18
ATOM     17  C   UNL     1       0.533  11.210  19.782  0.00  0.00    +0.000 A 
ATOM     18  C   UNL     1       0.906   9.859  19.751  0.00  0.00    +0.000 A 
ATOM     19  S   UNL     1       0.427   9.046  21.170  0.00  0.00    +0.000 S 
ATOM     20  C   UNL     1      -0.345  10.401  21.808  0.00  0.00    +0.000 A 
ATOM     21  C   UNL     1      -0.213  11.516  21.005  0.00  0.00    +0.000 A 
ATOM     22  C   UNL     1      -0.835  12.824  21.427  0.00  0.00    +0.000 C 
ATOM     23  C   UNL     1      -1.141  12.858  22.936  0.00  0.00    +0.000 C 
ATOM     24  C   UNL     1      -1.870  11.592  23.393  0.00  0.00    +0.000 C 
ATOM     25  C   UNL     1      -1.031  10.335  23.138  0.00  0.00    +0.000 C 
BRANCH  17  26
ATOM     26  C   UNL     1       0.853  12.133  18.690  0.00  0.00    +0.000 C 
ATOM     27  O   UNL     1       0.020  12.875  18.173  0.00  0.00    +0.000 OA
BRANCH  26  29
ATOM     28  C   UNL     1       2.866  13.319  18.327  0.00  0.00    +0.000 C 
ATOM     29  O   UNL     1       2.161  12.078  18.308  0.00  0.00    +0.000 OA
ENDBRANCH  26  29
ENDBRANCH  17  26
ENDBRANCH   1  18
TORSDOF 4
ENDMDL
