MODEL 1
REMARK VINA RESULT:      -7.8      0.000      0.000
REMARK  Name = 
REMARK  4 active torsions:
REMARK  status: ('A' for Active; 'I' for Inactive)
REMARK    1  A    between atoms: C_2  and  C_16
REMARK    2  A    between atoms: N_3  and  C_4
REMARK    3  A    between atoms: C_4  and  C_5
REMARK    4  A    between atoms: C_4  and  C_11
REMARK                            x       y       z     vdW  Elec       q    Type
REMARK                         _______ _______ _______ _____ _____    ______ ____
ROOT
ATOM      1  C   UNL     1       3.146   5.983  19.512  0.00  0.00    +0.000 C 
ENDROOT
BRANCH   1   2
ATOM      2  C   UNL     1       2.353   7.275  19.346  0.00  0.00    +0.000 A 
ATOM      3  C   UNL     1       1.669   7.867  20.423  0.00  0.00    +0.000 A 
ATOM      4  C   UNL     1       0.981   9.070  20.258  0.00  0.00    +0.000 A 
ATOM      5  C   UNL     1       0.961   9.698  19.014  0.00  0.00    +0.000 A 
ATOM      6  C   UNL     1       1.627   9.122  17.935  0.00  0.00    +0.000 A 
ATOM      7  C   UNL     1       2.317   7.918  18.098  0.00  0.00    +0.000 A 
ENDBRANCH   1   2
BRANCH   1   8
ATOM      8  C   UNL     1       2.246   4.778  19.697  0.00  0.00    +0.000 A 
ATOM      9  C   UNL     1       1.789   4.173  20.855  0.00  0.00    +0.000 A 
ATOM     10  C   UNL     1       1.001   3.015  20.594  0.00  0.00    +0.000 A 
ATOM     11  C   UNL     1       0.862   2.776  19.248  0.00  0.00    +0.000 A 
ATOM     12  S   UNL     1       1.677   3.942  18.303  0.00  0.00    +0.000 S 
ENDBRANCH   1   8
BRANCH   1  15
ATOM     13  O   UNL     1       5.955   5.466  19.563  0.00  0.00    +0.000 OA
ATOM     14  C   UNL     1       5.366   5.572  18.490  0.00  0.00    +0.000 C 
ATOM     15  N   UNL     1       4.012   5.767  18.371  0.00  0.00    +0.000 N 
ATOM     16  H   UNL     1       3.664   5.935  17.435  0.00  0.00    +0.000 HD
BRANCH  14  17
ATOM     17  C   UNL     1       6.095   5.499  17.141  0.00  0.00    +0.000 C 
ATOM     18  C   UNL     1       5.177   5.935  16.013  0.00  0.00    +0.000 C 
ATOM     19  C   UNL     1       5.765   5.224  14.825  0.00  0.00    +0.000 C 
ATOM     20  C   UNL     1       6.229   3.917  15.428  0.00  0.00    +0.000 C 
ATOM     21  O   UNL     1       6.546   4.172  16.806  0.00  0.00    +0.000 OA
ENDBRANCH  14  17
ENDBRANCH   1  15
TORSDOF 4
ENDMDL
MODEL 2
REMARK VINA RESULT:      -7.8      0.062      1.081
REMARK  Name = 
REMARK  4 active torsions:
REMARK  status: ('A' for Active; 'I' for Inactive)
REMARK    1  A    between atoms: C_2  and  C_16
REMARK    2  A    between atoms: N_3  and  C_4
REMARK    3  A    between atoms: C_4  and  C_5
REMARK    4  A    between atoms: C_4  and  C_11
REMARK                            x       y       z     vdW  Elec       q    Type
REMARK                         _______ _______ _______ _____ _____    ______ ____
ROOT
ATOM      1  C   UNL     1       3.162   6.001  19.488  0.00  0.00    +0.000 C 
ENDROOT
BRANCH   1   2
ATOM      2  C   UNL     1       2.392   7.307  19.320  0.00  0.00    +0.000 A 
ATOM      3  C   UNL     1       2.310   7.963  18.079  0.00  0.00    +0.000 A 
ATOM      4  C   UNL     1       1.568   9.138  17.939  0.00  0.00    +0.000 A 
ATOM      5  C   UNL     1       0.901   9.677  19.038  0.00  0.00    +0.000 A 
ATOM      6  C   UNL     1       0.979   9.044  20.277  0.00  0.00    +0.000 A 
ATOM      7  C   UNL     1       1.720   7.869  20.418  0.00  0.00    +0.000 A 
ENDBRANCH   1   2
BRANCH   1   8
ATOM      8  C   UNL     1       2.239   4.809  19.651  0.00  0.00    +0.000 A 
ATOM      9  C   UNL     1       1.743   4.214  20.799  0.00  0.00    +0.000 A 
ATOM     10  C   UNL     1       0.945   3.067  20.520  0.00  0.00    +0.000 A 
ATOM     11  C   UNL     1       0.838   2.827  19.170  0.00  0.00    +0.000 A 
ATOM     12  S   UNL     1       1.695   3.978  18.245  0.00  0.00    +0.000 S 
ENDBRANCH   1   8
BRANCH   1  15
ATOM     13  O   UNL     1       5.959   5.434  19.577  0.00  0.00    +0.000 OA
ATOM     14  C   UNL     1       5.389   5.559  18.496  0.00  0.00    +0.000 C 
ATOM     15  N   UNL     1       4.040   5.778  18.359  0.00  0.00    +0.000 N 
ATOM     16  H   UNL     1       3.709   5.959  17.419  0.00  0.00    +0.000 HD
BRANCH  14  17
ATOM     17  C   UNL     1       6.137   5.483  17.158  0.00  0.00    +0.000 C 
ATOM     18  C   UNL     1       5.257   5.983  16.025  0.00  0.00    +0.000 C 
ATOM     19  C   UNL     1       5.834   5.272  14.831  0.00  0.00    +0.000 C 
ATOM     20  C   UNL     1       6.231   3.934  15.412  0.00  0.00    +0.000 C 
ATOM     21  O   UNL     1       6.535   4.145  16.800  0.00  0.00    +0.000 OA
ENDBRANCH  14  17
ENDBRANCH   1  15
TORSDOF 4
ENDMDL
MODEL 3
REMARK VINA RESULT:      -7.7      2.254      4.907
REMARK  Name = 
REMARK  4 active torsions:
REMARK  status: ('A' for Active; 'I' for Inactive)
REMARK    1  A    between atoms: C_2  and  C_16
REMARK    2  A    between atoms: N_3  and  C_4
REMARK    3  A    between atoms: C_4  and  C_5
REMARK    4  A    between atoms: C_4  and  C_11
REMARK                            x       y       z     vdW  Elec       q    Type
REMARK                         _______ _______ _______ _____ _____    ______ ____
ROOT
ATOM      1  C   UNL     1       3.459   5.991  17.875  0.00  0.00    +0.000 C 
ENDROOT
BRANCH   1   2
ATOM      2  C   UNL     1       2.713   7.226  18.369  0.00  0.00    +0.000 A 
ATOM      3  C   UNL     1       2.439   8.313  17.521  0.00  0.00    +0.000 A 
ATOM      4  C   UNL     1       1.721   9.418  17.983  0.00  0.00    +0.000 A 
ATOM      5  C   UNL     1       1.269   9.455  19.301  0.00  0.00    +0.000 A 
ATOM      6  C   UNL     1       1.539   8.390  20.158  0.00  0.00    +0.000 A 
ATOM      7  C   UNL     1       2.257   7.283  19.697  0.00  0.00    +0.000 A 
ENDBRANCH   1   2
BRANCH   1   8
ATOM      8  C   UNL     1       4.961   6.190  17.878  0.00  0.00    +0.000 A 
ATOM      9  C   UNL     1       5.761   6.976  17.066  0.00  0.00    +0.000 A 
ATOM     10  C   UNL     1       7.147   6.837  17.361  0.00  0.00    +0.000 A 
ATOM     11  C   UNL     1       7.370   5.964  18.400  0.00  0.00    +0.000 A 
ATOM     12  S   UNL     1       5.915   5.317  19.017  0.00  0.00    +0.000 S 
ENDBRANCH   1   8
BRANCH   1  15
ATOM     13  O   UNL     1       1.467   4.023  17.314  0.00  0.00    +0.000 OA
ATOM     14  C   UNL     1       2.114   3.966  18.357  0.00  0.00    +0.000 C 
ATOM     15  N   UNL     1       3.124   4.837  18.684  0.00  0.00    +0.000 N 
ATOM     16  H   UNL     1       3.514   4.742  19.614  0.00  0.00    +0.000 HD
BRANCH  14  17
ATOM     17  C   UNL     1       1.855   2.897  19.428  0.00  0.00    +0.000 C 
ATOM     18  C   UNL     1       0.973   3.451  20.533  0.00  0.00    +0.000 C 
ATOM     19  C   UNL     1       1.347   2.588  21.708  0.00  0.00    +0.000 C 
ATOM     20  C   UNL     1       2.825   2.362  21.484  0.00  0.00    +0.000 C 
ATOM     21  O   UNL     1       3.057   2.426  20.068  0.00  0.00    +0.000 OA
ENDBRANCH  14  17
ENDBRANCH   1  15
TORSDOF 4
ENDMDL
MODEL 4
REMARK VINA RESULT:      -7.6      2.258      4.800
REMARK  Name = 
REMARK  4 active torsions:
REMARK  status: ('A' for Active; 'I' for Inactive)
REMARK    1  A    between atoms: C_2  and  C_16
REMARK    2  A    between atoms: N_3  and  C_4
REMARK    3  A    between atoms: C_4  and  C_5
REMARK    4  A    between atoms: C_4  and  C_11
REMARK                            x       y       z     vdW  Elec       q    Type
REMARK                         _______ _______ _______ _____ _____    ______ ____
ROOT
ATOM      1  C   UNL     1       3.435   5.970  17.877  0.00  0.00    +0.000 C 
ENDROOT
BRANCH   1   2
ATOM      2  C   UNL     1       2.675   7.199  18.366  0.00  0.00    +0.000 A 
ATOM      3  C   UNL     1       2.220   7.309  19.691  0.00  0.00    +0.000 A 
ATOM      4  C   UNL     1       1.561   8.460  20.128  0.00  0.00    +0.000 A 
ATOM      5  C   UNL     1       1.342   9.516  19.245  0.00  0.00    +0.000 A 
ATOM      6  C   UNL     1       1.780   9.421  17.926  0.00  0.00    +0.000 A 
ATOM      7  C   UNL     1       2.440   8.270  17.488  0.00  0.00    +0.000 A 
ENDBRANCH   1   2
BRANCH   1   8
ATOM      8  C   UNL     1       4.935   6.182  17.885  0.00  0.00    +0.000 A 
ATOM      9  C   UNL     1       5.730   6.971  17.070  0.00  0.00    +0.000 A 
ATOM     10  C   UNL     1       7.117   6.846  17.372  0.00  0.00    +0.000 A 
ATOM     11  C   UNL     1       7.344   5.981  18.417  0.00  0.00    +0.000 A 
ATOM     12  S   UNL     1       5.892   5.325  19.031  0.00  0.00    +0.000 S 
ENDBRANCH   1   8
BRANCH   1  15
ATOM     13  O   UNL     1       1.449   3.993  17.323  0.00  0.00    +0.000 OA
ATOM     14  C   UNL     1       2.100   3.939  18.363  0.00  0.00    +0.000 C 
ATOM     15  N   UNL     1       3.108   4.814  18.686  0.00  0.00    +0.000 N 
ATOM     16  H   UNL     1       3.502   4.721  19.615  0.00  0.00    +0.000 HD
BRANCH  14  17
ATOM     17  C   UNL     1       1.850   2.869  19.435  0.00  0.00    +0.000 C 
ATOM     18  C   UNL     1       0.962   3.417  20.539  0.00  0.00    +0.000 C 
ATOM     19  C   UNL     1       1.343   2.558  21.714  0.00  0.00    +0.000 C 
ATOM     20  C   UNL     1       2.823   2.344  21.491  0.00  0.00    +0.000 C 
ATOM     21  O   UNL     1       3.055   2.409  20.076  0.00  0.00    +0.000 OA
ENDBRANCH  14  17
ENDBRANCH   1  15
TORSDOF 4
ENDMDL
MODEL 5
REMARK VINA RESULT:      -7.5      0.831      1.466
REMARK  Name = 
REMARK  4 active torsions:
REMARK  status: ('A' for Active; 'I' for Inactive)
REMARK    1  A    between atoms: C_2  and  C_16
REMARK    2  A    between atoms: N_3  and  C_4
REMARK    3  A    between atoms: C_4  and  C_5
REMARK    4  A    between atoms: C_4  and  C_11
REMARK                            x       y       z     vdW  Elec       q    Type
REMARK                         _______ _______ _______ _____ _____    ______ ____
ROOT
ATOM      1  C   UNL     1       3.136   6.179  19.154  0.00  0.00    +0.000 C 
ENDROOT
BRANCH   1   2
ATOM      2  C   UNL     1       2.328   7.473  19.151  0.00  0.00    +0.000 A 
ATOM      3  C   UNL     1       2.135   8.222  17.978  0.00  0.00    +0.000 A 
ATOM      4  C   UNL     1       1.360   9.384  17.991  0.00  0.00    +0.000 A 
ATOM      5  C   UNL     1       0.770   9.816  19.177  0.00  0.00    +0.000 A 
ATOM      6  C   UNL     1       0.958   9.090  20.351  0.00  0.00    +0.000 A 
ATOM      7  C   UNL     1       1.733   7.927  20.340  0.00  0.00    +0.000 A 
ENDBRANCH   1   2
BRANCH   1   8
ATOM      8  C   UNL     1       2.334   5.004  19.677  0.00  0.00    +0.000 A 
ATOM      9  C   UNL     1       2.146   4.557  20.974  0.00  0.00    +0.000 A 
ATOM     10  C   UNL     1       1.361   3.370  21.036  0.00  0.00    +0.000 A 
ATOM     11  C   UNL     1       0.955   2.952  19.791  0.00  0.00    +0.000 A 
ATOM     12  S   UNL     1       1.517   3.986  18.554  0.00  0.00    +0.000 S 
ENDBRANCH   1   8
BRANCH   1  15
ATOM     13  O   UNL     1       5.737   5.238  18.445  0.00  0.00    +0.000 OA
ATOM     14  C   UNL     1       4.907   5.474  17.571  0.00  0.00    +0.000 C 
ATOM     15  N   UNL     1       3.619   5.877  17.823  0.00  0.00    +0.000 N 
ATOM     16  H   UNL     1       3.063   6.132  17.015  0.00  0.00    +0.000 HD
BRANCH  14  17
ATOM     17  C   UNL     1       5.227   5.342  16.076  0.00  0.00    +0.000 C 
ATOM     18  C   UNL     1       5.325   3.879  15.678  0.00  0.00    +0.000 C 
ATOM     19  C   UNL     1       6.223   3.932  14.472  0.00  0.00    +0.000 C 
ATOM     20  C   UNL     1       7.182   5.045  14.833  0.00  0.00    +0.000 C 
ATOM     21  O   UNL     1       6.481   5.947  15.703  0.00  0.00    +0.000 OA
ENDBRANCH  14  17
ENDBRANCH   1  15
TORSDOF 4
ENDMDL
MODEL 6
REMARK VINA RESULT:      -7.3      1.154      1.681
REMARK  Name = 
REMARK  4 active torsions:
REMARK  status: ('A' for Active; 'I' for Inactive)
REMARK    1  A    between atoms: C_2  and  C_16
REMARK    2  A    between atoms: N_3  and  C_4
REMARK    3  A    between atoms: C_4  and  C_5
REMARK    4  A    between atoms: C_4  and  C_11
REMARK                            x       y       z     vdW  Elec       q    Type
REMARK                         _______ _______ _______ _____ _____    ______ ____
ROOT
ATOM      1  C   UNL     1       3.549   5.432  19.485  0.00  0.00    +0.000 C 
ENDROOT
BRANCH   1   2
ATOM      2  C   UNL     1       2.892   6.766  19.144  0.00  0.00    +0.000 A 
ATOM      3  C   UNL     1       3.074   7.383  17.894  0.00  0.00    +0.000 A 
ATOM      4  C   UNL     1       2.433   8.586  17.590  0.00  0.00    +0.000 A 
ATOM      5  C   UNL     1       1.604   9.192  18.532  0.00  0.00    +0.000 A 
ATOM      6  C   UNL     1       1.419   8.599  19.779  0.00  0.00    +0.000 A 
ATOM      7  C   UNL     1       2.059   7.395  20.085  0.00  0.00    +0.000 A 
ENDBRANCH   1   2
BRANCH   1   8
ATOM      8  C   UNL     1       2.531   4.367  19.840  0.00  0.00    +0.000 A 
ATOM      9  C   UNL     1       1.591   3.729  19.047  0.00  0.00    +0.000 A 
ATOM     10  C   UNL     1       0.777   2.822  19.785  0.00  0.00    +0.000 A 
ATOM     11  C   UNL     1       1.127   2.776  21.114  0.00  0.00    +0.000 A 
ATOM     12  S   UNL     1       2.430   3.821  21.470  0.00  0.00    +0.000 S 
ENDBRANCH   1   8
BRANCH   1  15
ATOM     13  O   UNL     1       6.356   4.912  19.528  0.00  0.00    +0.000 OA
ATOM     14  C   UNL     1       5.723   4.792  18.483  0.00  0.00    +0.000 C 
ATOM     15  N   UNL     1       4.365   4.970  18.382  0.00  0.00    +0.000 N 
ATOM     16  H   UNL     1       3.977   4.937  17.446  0.00  0.00    +0.000 HD
BRANCH  14  17
ATOM     17  C   UNL     1       6.394   4.426  17.152  0.00  0.00    +0.000 C 
ATOM     18  C   UNL     1       6.861   5.677  16.428  0.00  0.00    +0.000 C 
ATOM     19  C   UNL     1       6.873   5.232  14.990  0.00  0.00    +0.000 C 
ATOM     20  C   UNL     1       5.682   4.301  14.931  0.00  0.00    +0.000 C 
ATOM     21  O   UNL     1       5.518   3.734  16.241  0.00  0.00    +0.000 OA
ENDBRANCH  14  17
ENDBRANCH   1  15
TORSDOF 4
ENDMDL
MODEL 7
REMARK VINA RESULT:      -7.3      1.244      1.503
REMARK  Name = 
REMARK  4 active torsions:
REMARK  status: ('A' for Active; 'I' for Inactive)
REMARK    1  A    between atoms: C_2  and  C_16
REMARK    2  A    between atoms: N_3  and  C_4
REMARK    3  A    between atoms: C_4  and  C_5
REMARK    4  A    between atoms: C_4  and  C_11
REMARK                            x       y       z     vdW  Elec       q    Type
REMARK                         _______ _______ _______ _____ _____    ______ ____
ROOT
ATOM      1  C   UNL     1       3.437   5.607  18.638  0.00  0.00    +0.000 C 
ENDROOT
BRANCH   1   2
ATOM      2  C   UNL     1       2.663   6.911  18.802  0.00  0.00    +0.000 A 
ATOM      3  C   UNL     1       2.075   7.274  20.026  0.00  0.00    +0.000 A 
ATOM      4  C   UNL     1       1.404   8.490  20.164  0.00  0.00    +0.000 A 
ATOM      5  C   UNL     1       1.306   9.361  19.080  0.00  0.00    +0.000 A 
ATOM      6  C   UNL     1       1.876   9.013  17.857  0.00  0.00    +0.000 A 
ATOM      7  C   UNL     1       2.549   7.797  17.717  0.00  0.00    +0.000 A 
ENDBRANCH   1   2
BRANCH   1   8
ATOM      8  C   UNL     1       2.571   4.390  18.897  0.00  0.00    +0.000 A 
ATOM      9  C   UNL     1       1.467   3.916  18.210  0.00  0.00    +0.000 A 
ATOM     10  C   UNL     1       0.897   2.761  18.819  0.00  0.00    +0.000 A 
ATOM     11  C   UNL     1       1.589   2.373  19.942  0.00  0.00    +0.000 A 
ATOM     12  S   UNL     1       2.919   3.396  20.260  0.00  0.00    +0.000 S 
ENDBRANCH   1   8
BRANCH   1  15
ATOM     13  O   UNL     1       6.211   5.617  17.959  0.00  0.00    +0.000 OA
ATOM     14  C   UNL     1       5.360   5.578  17.075  0.00  0.00    +0.000 C 
ATOM     15  N   UNL     1       4.008   5.517  17.310  0.00  0.00    +0.000 N 
ATOM     16  H   UNL     1       3.408   5.587  16.497  0.00  0.00    +0.000 HD
BRANCH  14  17
ATOM     17  C   UNL     1       5.722   5.596  15.583  0.00  0.00    +0.000 C 
ATOM     18  C   UNL     1       5.354   4.277  14.928  0.00  0.00    +0.000 C 
ATOM     19  C   UNL     1       6.301   4.220  13.760  0.00  0.00    +0.000 C 
ATOM     20  C   UNL     1       7.548   4.863  14.326  0.00  0.00    +0.000 C 
ATOM     21  O   UNL     1       7.129   5.791  15.338  0.00  0.00    +0.000 OA
ENDBRANCH  14  17
ENDBRANCH   1  15
TORSDOF 4
ENDMDL
MODEL 8
REMARK VINA RESULT:      -7.1      2.421      5.591
REMARK  Name = 
REMARK  4 active torsions:
REMARK  status: ('A' for Active; 'I' for Inactive)
REMARK    1  A    between atoms: C_2  and  C_16
REMARK    2  A    between atoms: N_3  and  C_4
REMARK    3  A    between atoms: C_4  and  C_5
REMARK    4  A    between atoms: C_4  and  C_11
REMARK                            x       y       z     vdW  Elec       q    Type
REMARK                         _______ _______ _______ _____ _____    ______ ____
ROOT
ATOM      1  C   UNL     1       3.326   5.988  17.873  0.00  0.00    +0.000 C 
ENDROOT
BRANCH   1   2
ATOM      2  C   UNL     1       4.842   6.053  18.030  0.00  0.00    +0.000 A 
ATOM      3  C   UNL     1       5.647   6.784  17.138  0.00  0.00    +0.000 A 
ATOM      4  C   UNL     1       7.029   6.861  17.323  0.00  0.00    +0.000 A 
ATOM      5  C   UNL     1       7.628   6.207  18.397  0.00  0.00    +0.000 A 
ATOM      6  C   UNL     1       6.846   5.472  19.286  0.00  0.00    +0.000 A 
ATOM      7  C   UNL     1       5.463   5.393  19.103  0.00  0.00    +0.000 A 
ENDBRANCH   1   2
BRANCH   1   8
ATOM      8  C   UNL     1       2.792   4.580  18.046  0.00  0.00    +0.000 A 
ATOM      9  C   UNL     1       3.002   3.445  17.281  0.00  0.00    +0.000 A 
ATOM     10  C   UNL     1       2.263   2.322  17.754  0.00  0.00    +0.000 A 
ATOM     11  C   UNL     1       1.525   2.622  18.874  0.00  0.00    +0.000 A 
ATOM     12  S   UNL     1       1.722   4.249  19.354  0.00  0.00    +0.000 S 
ENDBRANCH   1   8
BRANCH   1  15
ATOM     13  O   UNL     1       2.325   8.615  17.370  0.00  0.00    +0.000 OA
ATOM     14  C   UNL     1       2.270   8.140  18.501  0.00  0.00    +0.000 C 
ATOM     15  N   UNL     1       2.678   6.869  18.822  0.00  0.00    +0.000 N 
ATOM     16  H   UNL     1       2.670   6.631  19.807  0.00  0.00    +0.000 HD
BRANCH  14  17
ATOM     17  C   UNL     1       1.731   8.932  19.700  0.00  0.00    +0.000 C 
ATOM     18  C   UNL     1       1.336   7.993  20.826  0.00  0.00    +0.000 C 
ATOM     19  C   UNL     1       0.302   8.796  21.569  0.00  0.00    +0.000 C 
ATOM     20  C   UNL     1      -0.398   9.534  20.450  0.00  0.00    +0.000 C 
ATOM     21  O   UNL     1       0.558   9.710  19.391  0.00  0.00    +0.000 OA
ENDBRANCH  14  17
ENDBRANCH   1  15
TORSDOF 4
ENDMDL
MODEL 9
REMARK VINA RESULT:      -7.1      2.411      5.512
REMARK  Name = 
REMARK  4 active torsions:
REMARK  status: ('A' for Active; 'I' for Inactive)
REMARK    1  A    between atoms: C_2  and  C_16
REMARK    2  A    between atoms: N_3  and  C_4
REMARK    3  A    between atoms: C_4  and  C_5
REMARK    4  A    between atoms: C_4  and  C_11
REMARK                            x       y       z     vdW  Elec       q    Type
REMARK                         _______ _______ _______ _____ _____    ______ ____
ROOT
ATOM      1  C   UNL     1       3.328   5.968  17.908  0.00  0.00    +0.000 C 
ENDROOT
BRANCH   1   2
ATOM      2  C   UNL     1       4.842   6.036  18.087  0.00  0.00    +0.000 A 
ATOM      3  C   UNL     1       5.489   5.400  19.160  0.00  0.00    +0.000 A 
ATOM      4  C   UNL     1       6.879   5.443  19.284  0.00  0.00    +0.000 A 
ATOM      5  C   UNL     1       7.643   6.126  18.339  0.00  0.00    +0.000 A 
ATOM      6  C   UNL     1       7.017   6.770  17.274  0.00  0.00    +0.000 A 
ATOM      7  C   UNL     1       5.626   6.727  17.148  0.00  0.00    +0.000 A 
ENDBRANCH   1   2
BRANCH   1   8
ATOM      8  C   UNL     1       2.794   4.559  18.075  0.00  0.00    +0.000 A 
ATOM      9  C   UNL     1       3.008   3.426  17.308  0.00  0.00    +0.000 A 
ATOM     10  C   UNL     1       2.268   2.302  17.775  0.00  0.00    +0.000 A 
ATOM     11  C   UNL     1       1.524   2.599  18.893  0.00  0.00    +0.000 A 
ATOM     12  S   UNL     1       1.718   4.225  19.377  0.00  0.00    +0.000 S 
ENDBRANCH   1   8
BRANCH   1  15
ATOM     13  O   UNL     1       2.357   8.604  17.393  0.00  0.00    +0.000 OA
ATOM     14  C   UNL     1       2.273   8.124  18.520  0.00  0.00    +0.000 C 
ATOM     15  N   UNL     1       2.664   6.849  18.846  0.00  0.00    +0.000 N 
ATOM     16  H   UNL     1       2.632   6.607  19.829  0.00  0.00    +0.000 HD
BRANCH  14  17
ATOM     17  C   UNL     1       1.711   8.915  19.710  0.00  0.00    +0.000 C 
ATOM     18  C   UNL     1       1.276   7.974  20.820  0.00  0.00    +0.000 C 
ATOM     19  C   UNL     1       0.233   8.785  21.540  0.00  0.00    +0.000 C 
ATOM     20  C   UNL     1      -0.428   9.538  20.408  0.00  0.00    +0.000 C 
ATOM     21  O   UNL     1       0.556   9.709  19.376  0.00  0.00    +0.000 OA
ENDBRANCH  14  17
ENDBRANCH   1  15
TORSDOF 4
ENDMDL
