MODEL 1
REMARK VINA RESULT:      -8.1      0.000      0.000
REMARK  Name = 
REMARK  10 active torsions:
REMARK  status: ('A' for Active; 'I' for Inactive)
REMARK    1  A    between atoms: C_1  and  C_2
REMARK    2  A    between atoms: N_11  and  C_12
REMARK    3  A    between atoms: C_12  and  C_13
REMARK    4  A    between atoms: C_13  and  O_14
REMARK    5  A    between atoms: C_13  and  C_15
REMARK    6  A    between atoms: C_15  and  O_16
REMARK    7  A    between atoms: O_16  and  C_17
REMARK    8  A    between atoms: C_21  and  C_22
REMARK    9  A    between atoms: C_22  and  N_23
REMARK   10  A    between atoms: N_23  and  C_24
REMARK                            x       y       z     vdW  Elec       q    Type
REMARK                         _______ _______ _______ _____ _____    ______ ____
ROOT
ATOM      1  C   UNL     1       2.447   8.194  18.059  0.00  0.00    +0.000 C 
ENDROOT
BRANCH   1   2
ATOM      2  C   UNL     1       1.507   9.404  17.913  0.00  0.00    +0.000 C 
BRANCH   2   3
ATOM      3  O   UNL     1       2.243  10.459  17.276  0.00  0.00    +0.000 OA
ATOM      4  H   UNL     1       2.367  11.150  17.951  0.00  0.00    +0.000 HD
ENDBRANCH   2   3
BRANCH   2   5
ATOM      5  C   UNL     1       0.910   9.878  19.269  0.00  0.00    +0.000 C 
BRANCH   5  16
ATOM      6  C   UNL     1      -0.027  11.502  21.587  0.00  0.00    +0.000 C 
ATOM      7  C   UNL     1      -0.953  11.036  20.456  0.00  0.00    +0.000 C 
ATOM      8  C   UNL     1      -1.990  12.160  20.227  0.00  0.00    +0.000 C 
ATOM      9  C   UNL     1      -2.987  11.790  19.164  0.00  0.00    +0.000 A 
ATOM     10  C   UNL     1      -4.241  12.411  19.133  0.00  0.00    +0.000 A 
ATOM     11  C   UNL     1      -5.172  12.063  18.152  0.00  0.00    +0.000 A 
ATOM     12  C   UNL     1      -4.842  11.105  17.197  0.00  0.00    +0.000 A 
ATOM     13  C   UNL     1      -3.578  10.505  17.214  0.00  0.00    +0.000 A 
ATOM     14  C   UNL     1      -2.637  10.849  18.191  0.00  0.00    +0.000 A 
ATOM     15  C   UNL     1      -1.287  10.155  18.222  0.00  0.00    +0.000 C 
ATOM     16  N   UNL     1      -0.294  10.737  19.162  0.00  0.00    +0.000 NA
ENDBRANCH   5  16
ENDBRANCH   2   5
ENDBRANCH   1   2
BRANCH   1  17
ATOM     17  O   UNL     1       2.377   7.684  19.399  0.00  0.00    +0.000 OA
BRANCH  17  18
ATOM     18  C   UNL     1       2.152   6.337  19.514  0.00  0.00    +0.000 A 
ATOM     19  C   UNL     1       1.553   5.720  20.612  0.00  0.00    +0.000 A 
ATOM     20  C   UNL     1       1.372   4.337  20.628  0.00  0.00    +0.000 A 
ATOM     21  C   UNL     1       1.788   3.560  19.547  0.00  0.00    +0.000 A 
ATOM     22  C   UNL     1       2.376   4.159  18.425  0.00  0.00    +0.000 A 
ATOM     23  C   UNL     1       2.539   5.557  18.418  0.00  0.00    +0.000 A 
BRANCH  22  24
ATOM     24  C   UNL     1       2.877   3.302  17.283  0.00  0.00    +0.000 C 
BRANCH  24  25
ATOM     25  N   UNL     1       4.324   3.082  17.359  0.00  0.00    +0.000 NA
ATOM     26  H   UNL     1       4.541   2.192  16.912  0.00  0.00    +0.000 HD
BRANCH  25  27
ATOM     27  C   UNL     1       5.094   4.160  16.744  0.00  0.00    +0.000 C 
ATOM     28  C   UNL     1       6.186   4.671  17.688  0.00  0.00    +0.000 C 
ATOM     29  C   UNL     1       7.115   5.466  16.776  0.00  0.00    +0.000 C 
ATOM     30  C   UNL     1       7.001   4.818  15.398  0.00  0.00    +0.000 C 
ATOM     31  C   UNL     1       5.903   3.762  15.508  0.00  0.00    +0.000 C 
ENDBRANCH  25  27
ENDBRANCH  24  25
ENDBRANCH  22  24
ENDBRANCH  17  18
ENDBRANCH   1  17
TORSDOF 9
ENDMDL
MODEL 2
REMARK VINA RESULT:      -8.1      1.779      9.214
REMARK  Name = 
REMARK  10 active torsions:
REMARK  status: ('A' for Active; 'I' for Inactive)
REMARK    1  A    between atoms: C_1  and  C_2
REMARK    2  A    between atoms: N_11  and  C_12
REMARK    3  A    between atoms: C_12  and  C_13
REMARK    4  A    between atoms: C_13  and  O_14
REMARK    5  A    between atoms: C_13  and  C_15
REMARK    6  A    between atoms: C_15  and  O_16
REMARK    7  A    between atoms: O_16  and  C_17
REMARK    8  A    between atoms: C_21  and  C_22
REMARK    9  A    between atoms: C_22  and  N_23
REMARK   10  A    between atoms: N_23  and  C_24
REMARK                            x       y       z     vdW  Elec       q    Type
REMARK                         _______ _______ _______ _____ _____    ______ ____
ROOT
ATOM      1  C   UNL     1       1.263   4.334  20.494  0.00  0.00    +0.000 C 
ENDROOT
BRANCH   1   2
ATOM      2  C   UNL     1       1.888   3.028  21.014  0.00  0.00    +0.000 C 
BRANCH   2   3
ATOM      3  O   UNL     1       1.835   3.056  22.448  0.00  0.00    +0.000 OA
ATOM      4  H   UNL     1       2.499   3.711  22.732  0.00  0.00    +0.000 HD
ENDBRANCH   2   3
BRANCH   2   5
ATOM      5  C   UNL     1       3.343   2.807  20.512  0.00  0.00    +0.000 C 
BRANCH   5  16
ATOM      6  C   UNL     1       2.172   1.791  17.965  0.00  0.00    +0.000 C 
ATOM      7  C   UNL     1       3.494   2.567  18.034  0.00  0.00    +0.000 C 
ATOM      8  C   UNL     1       3.574   3.439  16.758  0.00  0.00    +0.000 C 
ATOM      9  C   UNL     1       4.859   4.214  16.694  0.00  0.00    +0.000 A 
ATOM     10  C   UNL     1       5.343   4.669  15.462  0.00  0.00    +0.000 A 
ATOM     11  C   UNL     1       6.542   5.381  15.399  0.00  0.00    +0.000 A 
ATOM     12  C   UNL     1       7.248   5.650  16.568  0.00  0.00    +0.000 A 
ATOM     13  C   UNL     1       6.748   5.219  17.802  0.00  0.00    +0.000 A 
ATOM     14  C   UNL     1       5.546   4.506  17.877  0.00  0.00    +0.000 A 
ATOM     15  C   UNL     1       5.043   4.006  19.220  0.00  0.00    +0.000 C 
ATOM     16  N   UNL     1       3.666   3.447  19.214  0.00  0.00    +0.000 NA
ENDBRANCH   5  16
ENDBRANCH   2   5
ENDBRANCH   1   2
BRANCH   1  17
ATOM     17  O   UNL     1       2.050   5.455  20.925  0.00  0.00    +0.000 OA
BRANCH  17  18
ATOM     18  C   UNL     1       2.037   6.547  20.098  0.00  0.00    +0.000 A 
ATOM     19  C   UNL     1       2.573   6.579  18.810  0.00  0.00    +0.000 A 
ATOM     20  C   UNL     1       2.509   7.747  18.051  0.00  0.00    +0.000 A 
ATOM     21  C   UNL     1       1.908   8.893  18.573  0.00  0.00    +0.000 A 
ATOM     22  C   UNL     1       1.347   8.880  19.858  0.00  0.00    +0.000 A 
ATOM     23  C   UNL     1       1.408   7.689  20.605  0.00  0.00    +0.000 A 
BRANCH  22  24
ATOM     24  C   UNL     1       0.751  10.144  20.436  0.00  0.00    +0.000 C 
BRANCH  24  25
ATOM     25  N   UNL     1       0.904  11.285  19.530  0.00  0.00    +0.000 NA
ATOM     26  H   UNL     1       1.420  10.979  18.706  0.00  0.00    +0.000 HD
BRANCH  25  27
ATOM     27  C   UNL     1      -0.374  11.874  19.139  0.00  0.00    +0.000 C 
ATOM     28  C   UNL     1      -1.161  10.936  18.220  0.00  0.00    +0.000 C 
ATOM     29  C   UNL     1      -2.577  11.501  18.244  0.00  0.00    +0.000 C 
ATOM     30  C   UNL     1      -2.734  12.170  19.608  0.00  0.00    +0.000 C 
ATOM     31  C   UNL     1      -1.365  12.106  20.281  0.00  0.00    +0.000 C 
ENDBRANCH  25  27
ENDBRANCH  24  25
ENDBRANCH  22  24
ENDBRANCH  17  18
ENDBRANCH   1  17
TORSDOF 9
ENDMDL
MODEL 3
REMARK VINA RESULT:      -8.0      2.951      8.971
REMARK  Name = 
REMARK  10 active torsions:
REMARK  status: ('A' for Active; 'I' for Inactive)
REMARK    1  A    between atoms: C_1  and  C_2
REMARK    2  A    between atoms: N_11  and  C_12
REMARK    3  A    between atoms: C_12  and  C_13
REMARK    4  A    between atoms: C_13  and  O_14
REMARK    5  A    between atoms: C_13  and  C_15
REMARK    6  A    between atoms: C_15  and  O_16
REMARK    7  A    between atoms: O_16  and  C_17
REMARK    8  A    between atoms: C_21  and  C_22
REMARK    9  A    between atoms: C_22  and  N_23
REMARK   10  A    between atoms: N_23  and  C_24
REMARK                            x       y       z     vdW  Elec       q    Type
REMARK                         _______ _______ _______ _____ _____    ______ ____
ROOT
ATOM      1  C   UNL     1       1.484   4.595  20.398  0.00  0.00    +0.000 C 
ENDROOT
BRANCH   1   2
ATOM      2  C   UNL     1       2.080   3.335  21.051  0.00  0.00    +0.000 C 
BRANCH   2   3
ATOM      3  O   UNL     1       2.204   3.585  22.459  0.00  0.00    +0.000 OA
ATOM      4  H   UNL     1       1.542   3.018  22.895  0.00  0.00    +0.000 HD
ENDBRANCH   2   3
BRANCH   2   5
ATOM      5  C   UNL     1       3.446   2.918  20.434  0.00  0.00    +0.000 C 
BRANCH   5  16
ATOM      6  C   UNL     1       1.999   1.963  18.009  0.00  0.00    +0.000 C 
ATOM      7  C   UNL     1       3.392   2.604  17.960  0.00  0.00    +0.000 C 
ATOM      8  C   UNL     1       3.464   3.432  16.656  0.00  0.00    +0.000 C 
ATOM      9  C   UNL     1       4.811   4.073  16.477  0.00  0.00    +0.000 A 
ATOM     10  C   UNL     1       5.246   4.446  15.200  0.00  0.00    +0.000 A 
ATOM     11  C   UNL     1       6.502   5.033  15.031  0.00  0.00    +0.000 A 
ATOM     12  C   UNL     1       7.314   5.259  16.138  0.00  0.00    +0.000 A 
ATOM     13  C   UNL     1       6.865   4.911  17.418  0.00  0.00    +0.000 A 
ATOM     14  C   UNL     1       5.608   4.324  17.599  0.00  0.00    +0.000 A 
ATOM     15  C   UNL     1       5.157   3.910  18.989  0.00  0.00    +0.000 C 
ATOM     16  N   UNL     1       3.735   3.491  19.097  0.00  0.00    +0.000 NA
ENDBRANCH   5  16
ENDBRANCH   2   5
ENDBRANCH   1   2
BRANCH   1  17
ATOM     17  O   UNL     1       2.291   5.737  20.721  0.00  0.00    +0.000 OA
BRANCH  17  18
ATOM     18  C   UNL     1       2.284   6.753  19.802  0.00  0.00    +0.000 A 
ATOM     19  C   UNL     1       2.906   6.704  18.555  0.00  0.00    +0.000 A 
ATOM     20  C   UNL     1       2.838   7.799  17.692  0.00  0.00    +0.000 A 
ATOM     21  C   UNL     1       2.148   8.950  18.070  0.00  0.00    +0.000 A 
ATOM     22  C   UNL     1       1.500   9.017  19.311  0.00  0.00    +0.000 A 
ATOM     23  C   UNL     1       1.566   7.899  20.164  0.00  0.00    +0.000 A 
BRANCH  22  24
ATOM     24  C   UNL     1       0.804  10.291  19.736  0.00  0.00    +0.000 C 
BRANCH  24  25
ATOM     25  N   UNL     1       0.596  11.202  18.608  0.00  0.00    +0.000 NA
ATOM     26  H   UNL     1      -0.405  11.282  18.434  0.00  0.00    +0.000 HD
BRANCH  25  27
ATOM     27  C   UNL     1       1.179  12.523  18.830  0.00  0.00    +0.000 C 
ATOM     28  C   UNL     1       1.604  12.705  20.289  0.00  0.00    +0.000 C 
ATOM     29  C   UNL     1       2.526  13.919  20.254  0.00  0.00    +0.000 C 
ATOM     30  C   UNL     1       3.161  13.918  18.865  0.00  0.00    +0.000 C 
ATOM     31  C   UNL     1       2.486  12.795  18.082  0.00  0.00    +0.000 C 
ENDBRANCH  25  27
ENDBRANCH  24  25
ENDBRANCH  22  24
ENDBRANCH  17  18
ENDBRANCH   1  17
TORSDOF 9
ENDMDL
MODEL 4
REMARK VINA RESULT:      -8.0      5.528      9.623
REMARK  Name = 
REMARK  10 active torsions:
REMARK  status: ('A' for Active; 'I' for Inactive)
REMARK    1  A    between atoms: C_1  and  C_2
REMARK    2  A    between atoms: N_11  and  C_12
REMARK    3  A    between atoms: C_12  and  C_13
REMARK    4  A    between atoms: C_13  and  O_14
REMARK    5  A    between atoms: C_13  and  C_15
REMARK    6  A    between atoms: C_15  and  O_16
REMARK    7  A    between atoms: O_16  and  C_17
REMARK    8  A    between atoms: C_21  and  C_22
REMARK    9  A    between atoms: C_22  and  N_23
REMARK   10  A    between atoms: N_23  and  C_24
REMARK                            x       y       z     vdW  Elec       q    Type
REMARK                         _______ _______ _______ _____ _____    ______ ____
ROOT
ATOM      1  C   UNL     1       7.782   8.149  17.494  0.00  0.00    +0.000 C 
ENDROOT
BRANCH   1   2
ATOM      2  C   UNL     1       7.095   6.820  17.856  0.00  0.00    +0.000 C 
BRANCH   2   3
ATOM      3  O   UNL     1       7.909   5.752  17.349  0.00  0.00    +0.000 OA
ATOM      4  H   UNL     1       7.962   5.088  18.061  0.00  0.00    +0.000 HD
ENDBRANCH   2   3
BRANCH   2   5
ATOM      5  C   UNL     1       5.640   6.719  17.316  0.00  0.00    +0.000 C 
BRANCH   5  16
ATOM      6  C   UNL     1       5.290   4.326  15.573  0.00  0.00    +0.000 C 
ATOM      7  C   UNL     1       4.316   4.698  16.699  0.00  0.00    +0.000 C 
ATOM      8  C   UNL     1       3.813   3.373  17.318  0.00  0.00    +0.000 C 
ATOM      9  C   UNL     1       2.809   3.615  18.410  0.00  0.00    +0.000 A 
ATOM     10  C   UNL     1       1.900   2.610  18.761  0.00  0.00    +0.000 A 
ATOM     11  C   UNL     1       0.960   2.836  19.769  0.00  0.00    +0.000 A 
ATOM     12  C   UNL     1       0.939   4.059  20.432  0.00  0.00    +0.000 A 
ATOM     13  C   UNL     1       1.867   5.053  20.099  0.00  0.00    +0.000 A 
ATOM     14  C   UNL     1       2.815   4.835  19.092  0.00  0.00    +0.000 A 
ATOM     15  C   UNL     1       3.784   5.941  18.711  0.00  0.00    +0.000 C 
ATOM     16  N   UNL     1       4.874   5.540  17.784  0.00  0.00    +0.000 NA
ENDBRANCH   5  16
ENDBRANCH   2   5
ENDBRANCH   1   2
BRANCH   1  17
ATOM     17  O   UNL     1       8.605   8.583  18.587  0.00  0.00    +0.000 OA
BRANCH  17  18
ATOM     18  C   UNL     1       8.821   9.934  18.671  0.00  0.00    +0.000 A 
ATOM     19  C   UNL     1       8.603  10.842  17.635  0.00  0.00    +0.000 A 
ATOM     20  C   UNL     1       8.858  12.200  17.827  0.00  0.00    +0.000 A 
ATOM     21  C   UNL     1       9.333  12.660  19.055  0.00  0.00    +0.000 A 
ATOM     22  C   UNL     1       9.544  11.769  20.116  0.00  0.00    +0.000 A 
ATOM     23  C   UNL     1       9.268  10.404  19.911  0.00  0.00    +0.000 A 
BRANCH  22  24
ATOM     24  C   UNL     1      10.114  12.270  21.424  0.00  0.00    +0.000 C 
BRANCH  24  25
ATOM     25  N   UNL     1       9.465  13.506  21.867  0.00  0.00    +0.000 NA
ATOM     26  H   UNL     1       9.056  13.967  21.054  0.00  0.00    +0.000 HD
BRANCH  25  27
ATOM     27  C   UNL     1       8.445  13.278  22.887  0.00  0.00    +0.000 C 
ATOM     28  C   UNL     1       7.036  13.455  22.314  0.00  0.00    +0.000 C 
ATOM     29  C   UNL     1       6.133  12.803  23.357  0.00  0.00    +0.000 C 
ATOM     30  C   UNL     1       6.976  11.714  24.015  0.00  0.00    +0.000 C 
ATOM     31  C   UNL     1       8.385  11.855  23.445  0.00  0.00    +0.000 C 
ENDBRANCH  25  27
ENDBRANCH  24  25
ENDBRANCH  22  24
ENDBRANCH  17  18
ENDBRANCH   1  17
TORSDOF 9
ENDMDL
MODEL 5
REMARK VINA RESULT:      -7.9      2.498      9.319
REMARK  Name = 
REMARK  10 active torsions:
REMARK  status: ('A' for Active; 'I' for Inactive)
REMARK    1  A    between atoms: C_1  and  C_2
REMARK    2  A    between atoms: N_11  and  C_12
REMARK    3  A    between atoms: C_12  and  C_13
REMARK    4  A    between atoms: C_13  and  O_14
REMARK    5  A    between atoms: C_13  and  C_15
REMARK    6  A    between atoms: C_15  and  O_16
REMARK    7  A    between atoms: O_16  and  C_17
REMARK    8  A    between atoms: C_21  and  C_22
REMARK    9  A    between atoms: C_22  and  N_23
REMARK   10  A    between atoms: N_23  and  C_24
REMARK                            x       y       z     vdW  Elec       q    Type
REMARK                         _______ _______ _______ _____ _____    ______ ____
ROOT
ATOM      1  C   UNL     1       1.401   4.534  20.445  0.00  0.00    +0.000 C 
ENDROOT
BRANCH   1   2
ATOM      2  C   UNL     1       2.002   3.303  21.147  0.00  0.00    +0.000 C 
BRANCH   2   3
ATOM      3  O   UNL     1       2.267   3.661  22.512  0.00  0.00    +0.000 OA
ATOM      4  H   UNL     1       1.468   4.117  22.833  0.00  0.00    +0.000 HD
ENDBRANCH   2   3
BRANCH   2   5
ATOM      5  C   UNL     1       3.285   2.769  20.449  0.00  0.00    +0.000 C 
BRANCH   5  16
ATOM      6  C   UNL     1       2.229   1.884  17.805  0.00  0.00    +0.000 C 
ATOM      7  C   UNL     1       3.544   2.655  17.971  0.00  0.00    +0.000 C 
ATOM      8  C   UNL     1       3.679   3.591  16.746  0.00  0.00    +0.000 C 
ATOM      9  C   UNL     1       4.964   4.368  16.778  0.00  0.00    +0.000 A 
ATOM     10  C   UNL     1       5.500   4.884  15.593  0.00  0.00    +0.000 A 
ATOM     11  C   UNL     1       6.700   5.599  15.618  0.00  0.00    +0.000 A 
ATOM     12  C   UNL     1       7.353   5.808  16.829  0.00  0.00    +0.000 A 
ATOM     13  C   UNL     1       6.801   5.316  18.017  0.00  0.00    +0.000 A 
ATOM     14  C   UNL     1       5.598   4.600  18.002  0.00  0.00    +0.000 A 
ATOM     15  C   UNL     1       5.037   4.033  19.295  0.00  0.00    +0.000 C 
ATOM     16  N   UNL     1       3.663   3.475  19.201  0.00  0.00    +0.000 NA
ENDBRANCH   5  16
ENDBRANCH   2   5
ENDBRANCH   1   2
BRANCH   1  17
ATOM     17  O   UNL     1       2.101   5.717  20.857  0.00  0.00    +0.000 OA
BRANCH  17  18
ATOM     18  C   UNL     1       2.146   6.734  19.939  0.00  0.00    +0.000 A 
ATOM     19  C   UNL     1       2.773   6.658  18.695  0.00  0.00    +0.000 A 
ATOM     20  C   UNL     1       2.762   7.756  17.835  0.00  0.00    +0.000 A 
ATOM     21  C   UNL     1       2.124   8.938  18.211  0.00  0.00    +0.000 A 
ATOM     22  C   UNL     1       1.472   9.032  19.448  0.00  0.00    +0.000 A 
ATOM     23  C   UNL     1       1.481   7.911  20.299  0.00  0.00    +0.000 A 
BRANCH  22  24
ATOM     24  C   UNL     1       0.833  10.337  19.871  0.00  0.00    +0.000 C 
BRANCH  24  25
ATOM     25  N   UNL     1      -0.549  10.150  20.317  0.00  0.00    +0.000 NA
ATOM     26  H   UNL     1      -0.587   9.329  20.922  0.00  0.00    +0.000 HD
BRANCH  25  27
ATOM     27  C   UNL     1      -1.084  11.317  21.014  0.00  0.00    +0.000 C 
ATOM     28  C   UNL     1      -0.992  11.149  22.533  0.00  0.00    +0.000 C 
ATOM     29  C   UNL     1      -1.199  12.561  23.070  0.00  0.00    +0.000 C 
ATOM     30  C   UNL     1      -0.675  13.499  21.986  0.00  0.00    +0.000 C 
ATOM     31  C   UNL     1      -0.314  12.620  20.791  0.00  0.00    +0.000 C 
ENDBRANCH  25  27
ENDBRANCH  24  25
ENDBRANCH  22  24
ENDBRANCH  17  18
ENDBRANCH   1  17
TORSDOF 9
ENDMDL
MODEL 6
REMARK VINA RESULT:      -7.7      5.326      9.491
REMARK  Name = 
REMARK  10 active torsions:
REMARK  status: ('A' for Active; 'I' for Inactive)
REMARK    1  A    between atoms: C_1  and  C_2
REMARK    2  A    between atoms: N_11  and  C_12
REMARK    3  A    between atoms: C_12  and  C_13
REMARK    4  A    between atoms: C_13  and  O_14
REMARK    5  A    between atoms: C_13  and  C_15
REMARK    6  A    between atoms: C_15  and  O_16
REMARK    7  A    between atoms: O_16  and  C_17
REMARK    8  A    between atoms: C_21  and  C_22
REMARK    9  A    between atoms: C_22  and  N_23
REMARK   10  A    between atoms: N_23  and  C_24
REMARK                            x       y       z     vdW  Elec       q    Type
REMARK                         _______ _______ _______ _____ _____    ______ ____
ROOT
ATOM      1  C   UNL     1       8.041   7.568  18.146  0.00  0.00    +0.000 C 
ENDROOT
BRANCH   1   2
ATOM      2  C   UNL     1       7.029   6.682  17.399  0.00  0.00    +0.000 C 
BRANCH   2   3
ATOM      3  O   UNL     1       7.561   6.408  16.095  0.00  0.00    +0.000 OA
ATOM      4  H   UNL     1       7.835   5.473  16.104  0.00  0.00    +0.000 HD
ENDBRANCH   2   3
BRANCH   2   5
ATOM      5  C   UNL     1       5.614   7.322  17.304  0.00  0.00    +0.000 C 
BRANCH   5  16
ATOM      6  C   UNL     1       2.831   8.256  17.823  0.00  0.00    +0.000 C 
ATOM      7  C   UNL     1       3.313   6.832  18.131  0.00  0.00    +0.000 C 
ATOM      8  C   UNL     1       2.126   5.881  17.848  0.00  0.00    +0.000 C 
ATOM      9  C   UNL     1       2.470   4.452  18.162  0.00  0.00    +0.000 A 
ATOM     10  C   UNL     1       1.454   3.530  18.435  0.00  0.00    +0.000 A 
ATOM     11  C   UNL     1       1.772   2.204  18.737  0.00  0.00    +0.000 A 
ATOM     12  C   UNL     1       3.103   1.800  18.750  0.00  0.00    +0.000 A 
ATOM     13  C   UNL     1       4.117   2.717  18.450  0.00  0.00    +0.000 A 
ATOM     14  C   UNL     1       3.809   4.048  18.144  0.00  0.00    +0.000 A 
ATOM     15  C   UNL     1       4.925   5.040  17.866  0.00  0.00    +0.000 C 
ATOM     16  N   UNL     1       4.484   6.363  17.352  0.00  0.00    +0.000 NA
ENDBRANCH   5  16
ENDBRANCH   2   5
ENDBRANCH   1   2
BRANCH   1  17
ATOM     17  O   UNL     1       8.112   8.858  17.519  0.00  0.00    +0.000 OA
BRANCH  17  18
ATOM     18  C   UNL     1       8.619   9.870  18.291  0.00  0.00    +0.000 A 
ATOM     19  C   UNL     1       9.118   9.713  19.584  0.00  0.00    +0.000 A 
ATOM     20  C   UNL     1       9.611  10.814  20.286  0.00  0.00    +0.000 A 
ATOM     21  C   UNL     1       9.607  12.079  19.701  0.00  0.00    +0.000 A 
ATOM     22  C   UNL     1       9.126  12.260  18.396  0.00  0.00    +0.000 A 
ATOM     23  C   UNL     1       8.646  11.137  17.697  0.00  0.00    +0.000 A 
BRANCH  22  24
ATOM     24  C   UNL     1       9.072  13.646  17.793  0.00  0.00    +0.000 C 
BRANCH  24  25
ATOM     25  N   UNL     1       7.745  13.958  17.258  0.00  0.00    +0.000 NA
ATOM     26  H   UNL     1       7.317  13.094  16.925  0.00  0.00    +0.000 HD
BRANCH  25  27
ATOM     27  C   UNL     1       6.878  14.610  18.235  0.00  0.00    +0.000 C 
ATOM     28  C   UNL     1       7.359  16.029  18.547  0.00  0.00    +0.000 C 
ATOM     29  C   UNL     1       6.163  16.680  19.234  0.00  0.00    +0.000 C 
ATOM     30  C   UNL     1       4.928  15.987  18.662  0.00  0.00    +0.000 C 
ATOM     31  C   UNL     1       5.440  14.857  17.772  0.00  0.00    +0.000 C 
ENDBRANCH  25  27
ENDBRANCH  24  25
ENDBRANCH  22  24
ENDBRANCH  17  18
ENDBRANCH   1  17
TORSDOF 9
ENDMDL
MODEL 7
REMARK VINA RESULT:      -7.7      1.736      2.609
REMARK  Name = 
REMARK  10 active torsions:
REMARK  status: ('A' for Active; 'I' for Inactive)
REMARK    1  A    between atoms: C_1  and  C_2
REMARK    2  A    between atoms: N_11  and  C_12
REMARK    3  A    between atoms: C_12  and  C_13
REMARK    4  A    between atoms: C_13  and  O_14
REMARK    5  A    between atoms: C_13  and  C_15
REMARK    6  A    between atoms: C_15  and  O_16
REMARK    7  A    between atoms: O_16  and  C_17
REMARK    8  A    between atoms: C_21  and  C_22
REMARK    9  A    between atoms: C_22  and  N_23
REMARK   10  A    between atoms: N_23  and  C_24
REMARK                            x       y       z     vdW  Elec       q    Type
REMARK                         _______ _______ _______ _____ _____    ______ ____
ROOT
ATOM      1  C   UNL     1       1.773   7.574  20.514  0.00  0.00    +0.000 C 
ENDROOT
BRANCH   1   2
ATOM      2  C   UNL     1       1.194   8.744  21.328  0.00  0.00    +0.000 C 
BRANCH   2   3
ATOM      3  O   UNL     1      -0.020   8.293  21.946  0.00  0.00    +0.000 OA
ATOM      4  H   UNL     1      -0.731   8.454  21.299  0.00  0.00    +0.000 HD
ENDBRANCH   2   3
BRANCH   2   5
ATOM      5  C   UNL     1       0.946  10.018  20.470  0.00  0.00    +0.000 C 
BRANCH   5  16
ATOM      6  C   UNL     1       1.434   9.158  17.657  0.00  0.00    +0.000 C 
ATOM      7  C   UNL     1       0.240  10.025  18.078  0.00  0.00    +0.000 C 
ATOM      8  C   UNL     1      -0.957   9.608  17.191  0.00  0.00    +0.000 C 
ATOM      9  C   UNL     1      -2.180  10.430  17.485  0.00  0.00    +0.000 A 
ATOM     10  C   UNL     1      -3.187  10.557  16.520  0.00  0.00    +0.000 A 
ATOM     11  C   UNL     1      -4.320  11.328  16.787  0.00  0.00    +0.000 A 
ATOM     12  C   UNL     1      -4.452  11.958  18.021  0.00  0.00    +0.000 A 
ATOM     13  C   UNL     1      -3.457  11.806  18.995  0.00  0.00    +0.000 A 
ATOM     14  C   UNL     1      -2.318  11.034  18.738  0.00  0.00    +0.000 A 
ATOM     15  C   UNL     1      -1.228  10.919  19.789  0.00  0.00    +0.000 C 
ATOM     16  N   UNL     1      -0.170   9.916  19.498  0.00  0.00    +0.000 NA
ENDBRANCH   5  16
ENDBRANCH   2   5
ENDBRANCH   1   2
BRANCH   1  17
ATOM     17  O   UNL     1       1.244   6.333  21.004  0.00  0.00    +0.000 OA
BRANCH  17  18
ATOM     18  C   UNL     1       1.931   5.205  20.640  0.00  0.00    +0.000 A 
ATOM     19  C   UNL     1       1.945   4.012  21.363  0.00  0.00    +0.000 A 
ATOM     20  C   UNL     1       2.682   2.921  20.902  0.00  0.00    +0.000 A 
ATOM     21  C   UNL     1       3.411   3.013  19.717  0.00  0.00    +0.000 A 
ATOM     22  C   UNL     1       3.399   4.196  18.965  0.00  0.00    +0.000 A 
ATOM     23  C   UNL     1       2.639   5.283  19.435  0.00  0.00    +0.000 A 
BRANCH  22  24
ATOM     24  C   UNL     1       4.239   4.306  17.712  0.00  0.00    +0.000 C 
BRANCH  24  25
ATOM     25  N   UNL     1       5.673   4.291  18.012  0.00  0.00    +0.000 NA
ATOM     26  H   UNL     1       6.165   3.862  17.228  0.00  0.00    +0.000 HD
BRANCH  25  27
ATOM     27  C   UNL     1       6.211   5.622  18.280  0.00  0.00    +0.000 C 
ATOM     28  C   UNL     1       7.646   5.546  18.808  0.00  0.00    +0.000 C 
ATOM     29  C   UNL     1       8.171   6.969  18.647  0.00  0.00    +0.000 C 
ATOM     30  C   UNL     1       7.415   7.559  17.459  0.00  0.00    +0.000 C 
ATOM     31  C   UNL     1       6.370   6.522  17.054  0.00  0.00    +0.000 C 
ENDBRANCH  25  27
ENDBRANCH  24  25
ENDBRANCH  22  24
ENDBRANCH  17  18
ENDBRANCH   1  17
TORSDOF 9
ENDMDL
MODEL 8
REMARK VINA RESULT:      -7.7      1.765      9.698
REMARK  Name = 
REMARK  10 active torsions:
REMARK  status: ('A' for Active; 'I' for Inactive)
REMARK    1  A    between atoms: C_1  and  C_2
REMARK    2  A    between atoms: N_11  and  C_12
REMARK    3  A    between atoms: C_12  and  C_13
REMARK    4  A    between atoms: C_13  and  O_14
REMARK    5  A    between atoms: C_13  and  C_15
REMARK    6  A    between atoms: C_15  and  O_16
REMARK    7  A    between atoms: O_16  and  C_17
REMARK    8  A    between atoms: C_21  and  C_22
REMARK    9  A    between atoms: C_22  and  N_23
REMARK   10  A    between atoms: N_23  and  C_24
REMARK                            x       y       z     vdW  Elec       q    Type
REMARK                         _______ _______ _______ _____ _____    ______ ____
ROOT
ATOM      1  C   UNL     1       3.739   6.379  18.842  0.00  0.00    +0.000 C 
ENDROOT
BRANCH   1   2
ATOM      2  C   UNL     1       3.760   5.031  18.099  0.00  0.00    +0.000 C 
BRANCH   2   3
ATOM      3  O   UNL     1       2.688   4.228  18.615  0.00  0.00    +0.000 OA
ATOM      4  H   UNL     1       2.551   3.510  17.971  0.00  0.00    +0.000 HD
ENDBRANCH   2   3
BRANCH   2   5
ATOM      5  C   UNL     1       5.122   4.290  18.220  0.00  0.00    +0.000 C 
BRANCH   5  16
ATOM      6  C   UNL     1       7.265   6.335  17.879  0.00  0.00    +0.000 C 
ATOM      7  C   UNL     1       6.574   5.635  16.702  0.00  0.00    +0.000 C 
ATOM      8  C   UNL     1       7.642   5.441  15.600  0.00  0.00    +0.000 C 
ATOM      9  C   UNL     1       7.063   4.802  14.369  0.00  0.00    +0.000 A 
ATOM     10  C   UNL     1       7.693   4.967  13.131  0.00  0.00    +0.000 A 
ATOM     11  C   UNL     1       7.151   4.381  11.984  0.00  0.00    +0.000 A 
ATOM     12  C   UNL     1       5.990   3.621  12.081  0.00  0.00    +0.000 A 
ATOM     13  C   UNL     1       5.376   3.433  13.325  0.00  0.00    +0.000 A 
ATOM     14  C   UNL     1       5.912   4.015  14.480  0.00  0.00    +0.000 A 
ATOM     15  C   UNL     1       5.207   3.839  15.814  0.00  0.00    +0.000 C 
ATOM     16  N   UNL     1       5.965   4.317  17.000  0.00  0.00    +0.000 NA
ENDBRANCH   5  16
ENDBRANCH   2   5
ENDBRANCH   1   2
BRANCH   1  17
ATOM     17  O   UNL     1       2.769   7.249  18.241  0.00  0.00    +0.000 OA
BRANCH  17  18
ATOM     18  C   UNL     1       2.005   7.982  19.111  0.00  0.00    +0.000 A 
ATOM     19  C   UNL     1       1.771   7.647  20.445  0.00  0.00    +0.000 A 
ATOM     20  C   UNL     1       0.974   8.465  21.245  0.00  0.00    +0.000 A 
ATOM     21  C   UNL     1       0.404   9.624  20.719  0.00  0.00    +0.000 A 
ATOM     22  C   UNL     1       0.638   9.991  19.386  0.00  0.00    +0.000 A 
ATOM     23  C   UNL     1       1.456   9.162  18.596  0.00  0.00    +0.000 A 
BRANCH  22  24
ATOM     24  C   UNL     1      -0.033  11.218  18.809  0.00  0.00    +0.000 C 
BRANCH  24  25
ATOM     25  N   UNL     1      -1.490  11.162  18.951  0.00  0.00    +0.000 NA
ATOM     26  H   UNL     1      -1.780  11.883  19.612  0.00  0.00    +0.000 HD
BRANCH  25  27
ATOM     27  C   UNL     1      -2.191  11.328  17.681  0.00  0.00    +0.000 C 
ATOM     28  C   UNL     1      -2.018  10.098  16.786  0.00  0.00    +0.000 C 
ATOM     29  C   UNL     1      -3.104  10.261  15.727  0.00  0.00    +0.000 C 
ATOM     30  C   UNL     1      -4.230  11.040  16.403  0.00  0.00    +0.000 C 
ATOM     31  C   UNL     1      -3.713  11.436  17.784  0.00  0.00    +0.000 C 
ENDBRANCH  25  27
ENDBRANCH  24  25
ENDBRANCH  22  24
ENDBRANCH  17  18
ENDBRANCH   1  17
TORSDOF 9
ENDMDL
MODEL 9
REMARK VINA RESULT:      -7.6      1.276      3.555
REMARK  Name = 
REMARK  10 active torsions:
REMARK  status: ('A' for Active; 'I' for Inactive)
REMARK    1  A    between atoms: C_1  and  C_2
REMARK    2  A    between atoms: N_11  and  C_12
REMARK    3  A    between atoms: C_12  and  C_13
REMARK    4  A    between atoms: C_13  and  O_14
REMARK    5  A    between atoms: C_13  and  C_15
REMARK    6  A    between atoms: C_15  and  O_16
REMARK    7  A    between atoms: O_16  and  C_17
REMARK    8  A    between atoms: C_21  and  C_22
REMARK    9  A    between atoms: C_22  and  N_23
REMARK   10  A    between atoms: N_23  and  C_24
REMARK                            x       y       z     vdW  Elec       q    Type
REMARK                         _______ _______ _______ _____ _____    ______ ____
ROOT
ATOM      1  C   UNL     1       2.513   8.106  18.001  0.00  0.00    +0.000 C 
ENDROOT
BRANCH   1   2
ATOM      2  C   UNL     1       1.542   9.295  17.889  0.00  0.00    +0.000 C 
BRANCH   2   3
ATOM      3  O   UNL     1       2.240  10.375  17.253  0.00  0.00    +0.000 OA
ATOM      4  H   UNL     1       3.188  10.153  17.302  0.00  0.00    +0.000 HD
ENDBRANCH   2   3
BRANCH   2   5
ATOM      5  C   UNL     1       0.960   9.737  19.262  0.00  0.00    +0.000 C 
BRANCH   5  16
ATOM      6  C   UNL     1       0.014  11.241  21.656  0.00  0.00    +0.000 C 
ATOM      7  C   UNL     1      -0.903  10.855  20.488  0.00  0.00    +0.000 C 
ATOM      8  C   UNL     1      -1.920  12.006  20.310  0.00  0.00    +0.000 C 
ATOM      9  C   UNL     1      -2.906  11.713  19.215  0.00  0.00    +0.000 A 
ATOM     10  C   UNL     1      -4.150  12.355  19.202  0.00  0.00    +0.000 A 
ATOM     11  C   UNL     1      -5.072  12.077  18.190  0.00  0.00    +0.000 A 
ATOM     12  C   UNL     1      -4.744  11.170  17.187  0.00  0.00    +0.000 A 
ATOM     13  C   UNL     1      -3.489  10.550  17.186  0.00  0.00    +0.000 A 
ATOM     14  C   UNL     1      -2.557  10.824  18.194  0.00  0.00    +0.000 A 
ATOM     15  C   UNL     1      -1.218  10.107  18.203  0.00  0.00    +0.000 C 
ATOM     16  N   UNL     1      -0.230  10.619  19.188  0.00  0.00    +0.000 NA
ENDBRANCH   5  16
ENDBRANCH   2   5
ENDBRANCH   1   2
BRANCH   1  17
ATOM     17  O   UNL     1       3.327   8.031  16.821  0.00  0.00    +0.000 OA
BRANCH  17  18
ATOM     18  C   UNL     1       4.223   6.996  16.779  0.00  0.00    +0.000 A 
ATOM     19  C   UNL     1       4.983   6.645  15.663  0.00  0.00    +0.000 A 
ATOM     20  C   UNL     1       5.868   5.568  15.727  0.00  0.00    +0.000 A 
ATOM     21  C   UNL     1       6.001   4.835  16.906  0.00  0.00    +0.000 A 
ATOM     22  C   UNL     1       5.261   5.180  18.045  0.00  0.00    +0.000 A 
ATOM     23  C   UNL     1       4.382   6.277  17.969  0.00  0.00    +0.000 A 
BRANCH  22  24
ATOM     24  C   UNL     1       5.368   4.343  19.301  0.00  0.00    +0.000 C 
BRANCH  24  25
ATOM     25  N   UNL     1       4.379   3.263  19.324  0.00  0.00    +0.000 NA
ATOM     26  H   UNL     1       4.810   2.436  19.737  0.00  0.00    +0.000 HD
BRANCH  25  27
ATOM     27  C   UNL     1       3.165   3.620  20.053  0.00  0.00    +0.000 C 
ATOM     28  C   UNL     1       1.925   3.497  19.164  0.00  0.00    +0.000 C 
ATOM     29  C   UNL     1       0.763   3.503  20.153  0.00  0.00    +0.000 C 
ATOM     30  C   UNL     1       1.314   2.904  21.445  0.00  0.00    +0.000 C 
ATOM     31  C   UNL     1       2.811   2.701  21.223  0.00  0.00    +0.000 C 
ENDBRANCH  25  27
ENDBRANCH  24  25
ENDBRANCH  22  24
ENDBRANCH  17  18
ENDBRANCH   1  17
TORSDOF 9
ENDMDL
