MODEL 1
REMARK VINA RESULT:      -8.9      0.000      0.000
REMARK  Name = 
REMARK  5 active torsions:
REMARK  status: ('A' for Active; 'I' for Inactive)
REMARK    1  A    between atoms: N_15  and  C_16
REMARK    2  A    between atoms: C_16  and  C_17
REMARK    3  A    between atoms: C_17  and  C_18
REMARK    4  A    between atoms: C_18  and  N_19
REMARK    5  A    between atoms: N_19  and  C_20
REMARK                            x       y       z     vdW  Elec       q    Type
REMARK                         _______ _______ _______ _____ _____    ______ ____
ROOT
ATOM      1  C   UNL     1       2.856   7.221  18.843  0.00  0.00    +0.000 C 
ENDROOT
BRANCH   1  16
ATOM      2  O   UNL     1       1.644   6.979  21.326  0.00  0.00    +0.000 OA
ATOM      3  C   UNL     1       1.421   7.991  20.669  0.00  0.00    +0.000 C 
ATOM      4  C   UNL     1       0.584   9.068  21.248  0.00  0.00    +0.000 A 
ATOM      5  C   UNL     1       0.186   8.991  22.589  0.00  0.00    +0.000 A 
ATOM      6  C   UNL     1      -0.595  10.003  23.141  0.00  0.00    +0.000 A 
ATOM      7  C   UNL     1      -0.999  11.080  22.353  0.00  0.00    +0.000 A 
ATOM      8  C   UNL     1      -0.617  11.167  21.005  0.00  0.00    +0.000 A 
ATOM      9  C   UNL     1      -1.028  12.240  20.199  0.00  0.00    +0.000 A 
ATOM     10  C   UNL     1      -0.637  12.320  18.863  0.00  0.00    +0.000 A 
ATOM     11  C   UNL     1       0.187  11.335  18.322  0.00  0.00    +0.000 A 
ATOM     12  C   UNL     1       0.610  10.264  19.118  0.00  0.00    +0.000 A 
ATOM     13  C   UNL     1       0.201  10.154  20.452  0.00  0.00    +0.000 A 
ATOM     14  C   UNL     1       1.529   9.254  18.550  0.00  0.00    +0.000 C 
ATOM     15  O   UNL     1       1.904   9.373  17.385  0.00  0.00    +0.000 OA
ATOM     16  N   UNL     1       1.911   8.199  19.379  0.00  0.00    +0.000 N 
ENDBRANCH   1  16
BRANCH   1  17
ATOM     17  C   UNL     1       2.218   5.891  18.432  0.00  0.00    +0.000 C 
BRANCH  17  18
ATOM     18  C   UNL     1       2.820   4.683  19.149  0.00  0.00    +0.000 C 
BRANCH  18  19
ATOM     19  N   UNL     1       3.747   4.005  18.242  0.00  0.00    +0.000 N 
ATOM     20  H   UNL     1       3.288   3.774  17.367  0.00  0.00    +0.000 HD
BRANCH  19  21
ATOM     21  C   UNL     1       5.018   4.585  18.020  0.00  0.00    +0.000 A 
ATOM     22  C   UNL     1       5.817   4.997  19.091  0.00  0.00    +0.000 A 
ATOM     23  C   UNL     1       7.088   5.476  18.842  0.00  0.00    +0.000 A 
ATOM     24  N   UNL     1       7.636   5.551  17.616  0.00  0.00    +0.000 NA
ATOM     25  C   UNL     1       6.906   5.122  16.577  0.00  0.00    +0.000 A 
ATOM     26  C   UNL     1       7.496   5.171  15.325  0.00  0.00    +0.000 A 
ATOM     27  C   UNL     1       6.819   4.750  14.185  0.00  0.00    +0.000 A 
ATOM     28 CL   UNL     1       7.592   4.818  12.650  0.00  0.00    +0.000 Cl
ATOM     29  C   UNL     1       5.522   4.271  14.282  0.00  0.00    +0.000 A 
ATOM     30  C   UNL     1       4.913   4.203  15.533  0.00  0.00    +0.000 A 
ATOM     31  C   UNL     1       5.585   4.622  16.710  0.00  0.00    +0.000 A 
ENDBRANCH  19  21
ENDBRANCH  18  19
ENDBRANCH  17  18
ENDBRANCH   1  17
TORSDOF 5
ENDMDL
MODEL 2
REMARK VINA RESULT:      -8.7      2.581      4.622
REMARK  Name = 
REMARK  5 active torsions:
REMARK  status: ('A' for Active; 'I' for Inactive)
REMARK    1  A    between atoms: N_15  and  C_16
REMARK    2  A    between atoms: C_16  and  C_17
REMARK    3  A    between atoms: C_17  and  C_18
REMARK    4  A    between atoms: C_18  and  N_19
REMARK    5  A    between atoms: N_19  and  C_20
REMARK                            x       y       z     vdW  Elec       q    Type
REMARK                         _______ _______ _______ _____ _____    ______ ____
ROOT
ATOM      1  C   UNL     1       1.067  10.195  20.312  0.00  0.00    +0.000 C 
ENDROOT
BRANCH   1  16
ATOM      2  O   UNL     1       0.330   9.680  17.687  0.00  0.00    +0.000 OA
ATOM      3  C   UNL     1      -0.479  10.246  18.416  0.00  0.00    +0.000 C 
ATOM      4  C   UNL     1      -1.831  10.564  17.898  0.00  0.00    +0.000 A 
ATOM      5  C   UNL     1      -2.222  10.079  16.643  0.00  0.00    +0.000 A 
ATOM      6  C   UNL     1      -3.493  10.368  16.153  0.00  0.00    +0.000 A 
ATOM      7  C   UNL     1      -4.367  11.157  16.901  0.00  0.00    +0.000 A 
ATOM      8  C   UNL     1      -3.985  11.658  18.155  0.00  0.00    +0.000 A 
ATOM      9  C   UNL     1      -4.851  12.464  18.913  0.00  0.00    +0.000 A 
ATOM     10  C   UNL     1      -4.464  12.951  20.161  0.00  0.00    +0.000 A 
ATOM     11  C   UNL     1      -3.212  12.621  20.675  0.00  0.00    +0.000 A 
ATOM     12  C   UNL     1      -2.343  11.811  19.935  0.00  0.00    +0.000 A 
ATOM     13  C   UNL     1      -2.704  11.341  18.667  0.00  0.00    +0.000 A 
ATOM     14  C   UNL     1      -1.040  11.422  20.514  0.00  0.00    +0.000 C 
ATOM     15  O   UNL     1      -0.742  11.818  21.639  0.00  0.00    +0.000 OA
ATOM     16  N   UNL     1      -0.204  10.626  19.731  0.00  0.00    +0.000 N 
ENDBRANCH   1  16
BRANCH   1  17
ATOM     17  C   UNL     1       1.053   8.768  20.864  0.00  0.00    +0.000 C 
BRANCH  17  18
ATOM     18  C   UNL     1       1.858   7.782  20.017  0.00  0.00    +0.000 C 
BRANCH  18  19
ATOM     19  N   UNL     1       2.137   6.587  20.815  0.00  0.00    +0.000 N 
ATOM     20  H   UNL     1       1.596   6.596  21.674  0.00  0.00    +0.000 HD
BRANCH  19  21
ATOM     21  C   UNL     1       2.078   5.324  20.180  0.00  0.00    +0.000 A 
ATOM     22  C   UNL     1       1.059   4.416  20.479  0.00  0.00    +0.000 A 
ATOM     23  C   UNL     1       0.980   3.231  19.775  0.00  0.00    +0.000 A 
ATOM     24  N   UNL     1       1.820   2.891  18.781  0.00  0.00    +0.000 NA
ATOM     25  C   UNL     1       2.779   3.764  18.446  0.00  0.00    +0.000 A 
ATOM     26  C   UNL     1       3.614   3.416  17.396  0.00  0.00    +0.000 A 
ATOM     27  C   UNL     1       4.641   4.255  16.976  0.00  0.00    +0.000 A 
ATOM     28 CL   UNL     1       5.647   3.790  15.661  0.00  0.00    +0.000 Cl
ATOM     29  C   UNL     1       4.855   5.468  17.611  0.00  0.00    +0.000 A 
ATOM     30  C   UNL     1       4.021   5.842  18.663  0.00  0.00    +0.000 A 
ATOM     31  C   UNL     1       2.964   5.005  19.106  0.00  0.00    +0.000 A 
ENDBRANCH  19  21
ENDBRANCH  18  19
ENDBRANCH  17  18
ENDBRANCH   1  17
TORSDOF 5
ENDMDL
MODEL 3
REMARK VINA RESULT:      -8.7      3.715      8.773
REMARK  Name = 
REMARK  5 active torsions:
REMARK  status: ('A' for Active; 'I' for Inactive)
REMARK    1  A    between atoms: N_15  and  C_16
REMARK    2  A    between atoms: C_16  and  C_17
REMARK    3  A    between atoms: C_17  and  C_18
REMARK    4  A    between atoms: C_18  and  N_19
REMARK    5  A    between atoms: N_19  and  C_20
REMARK                            x       y       z     vdW  Elec       q    Type
REMARK                         _______ _______ _______ _____ _____    ______ ____
ROOT
ATOM      1  C   UNL     1       3.175   8.287  18.118  0.00  0.00    +0.000 C 
ENDROOT
BRANCH   1  16
ATOM      2  O   UNL     1       1.863   7.254  20.333  0.00  0.00    +0.000 OA
ATOM      3  C   UNL     1       2.329   6.466  19.516  0.00  0.00    +0.000 C 
ATOM      4  C   UNL     1       2.112   5.011  19.698  0.00  0.00    +0.000 A 
ATOM      5  C   UNL     1       1.252   4.561  20.709  0.00  0.00    +0.000 A 
ATOM      6  C   UNL     1       1.039   3.195  20.881  0.00  0.00    +0.000 A 
ATOM      7  C   UNL     1       1.698   2.277  20.064  0.00  0.00    +0.000 A 
ATOM      8  C   UNL     1       2.571   2.713  19.054  0.00  0.00    +0.000 A 
ATOM      9  C   UNL     1       3.249   1.799  18.232  0.00  0.00    +0.000 A 
ATOM     10  C   UNL     1       4.108   2.242  17.227  0.00  0.00    +0.000 A 
ATOM     11  C   UNL     1       4.283   3.609  17.019  0.00  0.00    +0.000 A 
ATOM     12  C   UNL     1       3.606   4.531  17.826  0.00  0.00    +0.000 A 
ATOM     13  C   UNL     1       2.765   4.101  18.858  0.00  0.00    +0.000 A 
ATOM     14  C   UNL     1       3.756   5.978  17.561  0.00  0.00    +0.000 C 
ATOM     15  O   UNL     1       4.476   6.346  16.635  0.00  0.00    +0.000 OA
ATOM     16  N   UNL     1       3.072   6.856  18.400  0.00  0.00    +0.000 N 
ENDBRANCH   1  16
BRANCH   1  17
ATOM     17  C   UNL     1       1.887   8.916  17.580  0.00  0.00    +0.000 C 
BRANCH  17  18
ATOM     18  C   UNL     1       1.533  10.242  18.252  0.00  0.00    +0.000 C 
BRANCH  18  19
ATOM     19  N   UNL     1       0.818   9.968  19.499  0.00  0.00    +0.000 N 
ATOM     20  H   UNL     1       1.469   9.735  20.242  0.00  0.00    +0.000 HD
BRANCH  19  21
ATOM     21  C   UNL     1      -0.154  10.898  19.938  0.00  0.00    +0.000 A 
ATOM     22  C   UNL     1       0.150  11.848  20.916  0.00  0.00    +0.000 A 
ATOM     23  C   UNL     1      -0.794  12.797  21.254  0.00  0.00    +0.000 A 
ATOM     24  N   UNL     1      -2.005  12.891  20.677  0.00  0.00    +0.000 NA
ATOM     25  C   UNL     1      -2.305  12.018  19.706  0.00  0.00    +0.000 A 
ATOM     26  C   UNL     1      -3.542  12.149  19.095  0.00  0.00    +0.000 A 
ATOM     27  C   UNL     1      -3.944  11.289  18.078  0.00  0.00    +0.000 A 
ATOM     28 CL   UNL     1      -5.484  11.493  17.339  0.00  0.00    +0.000 Cl
ATOM     29  C   UNL     1      -3.107  10.269  17.654  0.00  0.00    +0.000 A 
ATOM     30  C   UNL     1      -1.855  10.125  18.248  0.00  0.00    +0.000 A 
ATOM     31  C   UNL     1      -1.420  10.993  19.283  0.00  0.00    +0.000 A 
ENDBRANCH  19  21
ENDBRANCH  18  19
ENDBRANCH  17  18
ENDBRANCH   1  17
TORSDOF 5
ENDMDL
MODEL 4
REMARK VINA RESULT:      -8.7      2.563      4.326
REMARK  Name = 
REMARK  5 active torsions:
REMARK  status: ('A' for Active; 'I' for Inactive)
REMARK    1  A    between atoms: N_15  and  C_16
REMARK    2  A    between atoms: C_16  and  C_17
REMARK    3  A    between atoms: C_17  and  C_18
REMARK    4  A    between atoms: C_18  and  N_19
REMARK    5  A    between atoms: N_19  and  C_20
REMARK                            x       y       z     vdW  Elec       q    Type
REMARK                         _______ _______ _______ _____ _____    ______ ____
ROOT
ATOM      1  C   UNL     1       1.032  10.650  20.370  0.00  0.00    +0.000 C 
ENDROOT
BRANCH   1  16
ATOM      2  O   UNL     1      -1.077  11.882  21.684  0.00  0.00    +0.000 OA
ATOM      3  C   UNL     1      -1.246  11.530  20.521  0.00  0.00    +0.000 C 
ATOM      4  C   UNL     1      -2.528  11.837  19.843  0.00  0.00    +0.000 A 
ATOM      5  C   UNL     1      -3.468  12.657  20.480  0.00  0.00    +0.000 A 
ATOM      6  C   UNL     1      -4.672  12.955  19.847  0.00  0.00    +0.000 A 
ATOM      7  C   UNL     1      -4.950  12.419  18.589  0.00  0.00    +0.000 A 
ATOM      8  C   UNL     1      -4.022  11.587  17.943  0.00  0.00    +0.000 A 
ATOM      9  C   UNL     1      -4.295  11.031  16.683  0.00  0.00    +0.000 A 
ATOM     10  C   UNL     1      -3.364  10.212  16.046  0.00  0.00    +0.000 A 
ATOM     11  C   UNL     1      -2.138   9.954  16.656  0.00  0.00    +0.000 A 
ATOM     12  C   UNL     1      -1.849  10.509  17.909  0.00  0.00    +0.000 A 
ATOM     13  C   UNL     1      -2.786  11.308  18.574  0.00  0.00    +0.000 A 
ATOM     14  C   UNL     1      -0.525  10.273  18.521  0.00  0.00    +0.000 C 
ATOM     15  O   UNL     1       0.302   9.592  17.918  0.00  0.00    +0.000 OA
ATOM     16  N   UNL     1      -0.291  10.836  19.776  0.00  0.00    +0.000 N 
ENDBRANCH   1  16
BRANCH   1  17
ATOM     17  C   UNL     1       1.053   9.703  21.572  0.00  0.00    +0.000 C 
BRANCH  17  18
ATOM     18  C   UNL     1       0.932   8.229  21.186  0.00  0.00    +0.000 C 
BRANCH  18  19
ATOM     19  N   UNL     1       1.850   7.951  20.079  0.00  0.00    +0.000 N 
ATOM     20  H   UNL     1       2.651   8.574  20.114  0.00  0.00    +0.000 HD
BRANCH  19  21
ATOM     21  C   UNL     1       2.245   6.612  19.852  0.00  0.00    +0.000 A 
ATOM     22  C   UNL     1       1.708   5.566  20.607  0.00  0.00    +0.000 A 
ATOM     23  C   UNL     1       2.048   4.264  20.298  0.00  0.00    +0.000 A 
ATOM     24  N   UNL     1       2.859   3.921  19.281  0.00  0.00    +0.000 NA
ATOM     25  C   UNL     1       3.353   4.904  18.516  0.00  0.00    +0.000 A 
ATOM     26  C   UNL     1       4.158   4.533  17.450  0.00  0.00    +0.000 A 
ATOM     27  C   UNL     1       4.719   5.480  16.600  0.00  0.00    +0.000 A 
ATOM     28 CL   UNL     1       5.703   4.977  15.282  0.00  0.00    +0.000 Cl
ATOM     29  C   UNL     1       4.485   6.830  16.808  0.00  0.00    +0.000 A 
ATOM     30  C   UNL     1       3.670   7.225  17.867  0.00  0.00    +0.000 A 
ATOM     31  C   UNL     1       3.083   6.277  18.745  0.00  0.00    +0.000 A 
ENDBRANCH  19  21
ENDBRANCH  18  19
ENDBRANCH  17  18
ENDBRANCH   1  17
TORSDOF 5
ENDMDL
MODEL 5
REMARK VINA RESULT:      -8.6      4.298      9.533
REMARK  Name = 
REMARK  5 active torsions:
REMARK  status: ('A' for Active; 'I' for Inactive)
REMARK    1  A    between atoms: N_15  and  C_16
REMARK    2  A    between atoms: C_16  and  C_17
REMARK    3  A    between atoms: C_17  and  C_18
REMARK    4  A    between atoms: C_18  and  N_19
REMARK    5  A    between atoms: N_19  and  C_20
REMARK                            x       y       z     vdW  Elec       q    Type
REMARK                         _______ _______ _______ _____ _____    ______ ____
ROOT
ATOM      1  C   UNL     1       2.212   9.062  18.769  0.00  0.00    +0.000 C 
ENDROOT
BRANCH   1  16
ATOM      2  O   UNL     1       1.326   7.446  20.842  0.00  0.00    +0.000 OA
ATOM      3  C   UNL     1       1.902   6.914  19.899  0.00  0.00    +0.000 C 
ATOM      4  C   UNL     1       2.037   5.438  19.863  0.00  0.00    +0.000 A 
ATOM      5  C   UNL     1       1.374   4.660  20.821  0.00  0.00    +0.000 A 
ATOM      6  C   UNL     1       1.491   3.272  20.789  0.00  0.00    +0.000 A 
ATOM      7  C   UNL     1       2.286   2.661  19.819  0.00  0.00    +0.000 A 
ATOM      8  C   UNL     1       2.964   3.429  18.860  0.00  0.00    +0.000 A 
ATOM      9  C   UNL     1       3.777   2.826  17.885  0.00  0.00    +0.000 A 
ATOM     10  C   UNL     1       4.441   3.597  16.932  0.00  0.00    +0.000 A 
ATOM     11  C   UNL     1       4.284   4.982  16.931  0.00  0.00    +0.000 A 
ATOM     12  C   UNL     1       3.470   5.595  17.891  0.00  0.00    +0.000 A 
ATOM     13  C   UNL     1       2.822   4.837  18.873  0.00  0.00    +0.000 A 
ATOM     14  C   UNL     1       3.267   7.058  17.846  0.00  0.00    +0.000 C 
ATOM     15  O   UNL     1       3.819   7.713  16.963  0.00  0.00    +0.000 OA
ATOM     16  N   UNL     1       2.459   7.622  18.832  0.00  0.00    +0.000 N 
ENDBRANCH   1  16
BRANCH   1  17
ATOM     17  C   UNL     1       0.947   9.450  17.999  0.00  0.00    +0.000 C 
BRANCH  17  18
ATOM     18  C   UNL     1      -0.033  10.284  18.823  0.00  0.00    +0.000 C 
BRANCH  18  19
ATOM     19  N   UNL     1      -0.557  11.365  17.986  0.00  0.00    +0.000 N 
ATOM     20  H   UNL     1       0.039  11.514  17.179  0.00  0.00    +0.000 HD
BRANCH  19  21
ATOM     21  C   UNL     1      -1.923  11.332  17.621  0.00  0.00    +0.000 A 
ATOM     22  C   UNL     1      -2.333  10.740  16.423  0.00  0.00    +0.000 A 
ATOM     23  C   UNL     1      -3.682  10.645  16.141  0.00  0.00    +0.000 A 
ATOM     24  N   UNL     1      -4.653  11.069  16.969  0.00  0.00    +0.000 NA
ATOM     25  C   UNL     1      -4.287  11.602  18.143  0.00  0.00    +0.000 A 
ATOM     26  C   UNL     1      -5.300  12.001  19.000  0.00  0.00    +0.000 A 
ATOM     27  C   UNL     1      -5.020  12.566  20.240  0.00  0.00    +0.000 A 
ATOM     28 CL   UNL     1      -6.307  13.039  21.279  0.00  0.00    +0.000 Cl
ATOM     29  C   UNL     1      -3.707  12.749  20.644  0.00  0.00    +0.000 A 
ATOM     30  C   UNL     1      -2.673  12.345  19.801  0.00  0.00    +0.000 A 
ATOM     31  C   UNL     1      -2.934  11.761  18.534  0.00  0.00    +0.000 A 
ENDBRANCH  19  21
ENDBRANCH  18  19
ENDBRANCH  17  18
ENDBRANCH   1  17
TORSDOF 5
ENDMDL
MODEL 6
REMARK VINA RESULT:      -8.6      4.120      9.313
REMARK  Name = 
REMARK  5 active torsions:
REMARK  status: ('A' for Active; 'I' for Inactive)
REMARK    1  A    between atoms: N_15  and  C_16
REMARK    2  A    between atoms: C_16  and  C_17
REMARK    3  A    between atoms: C_17  and  C_18
REMARK    4  A    between atoms: C_18  and  N_19
REMARK    5  A    between atoms: N_19  and  C_20
REMARK                            x       y       z     vdW  Elec       q    Type
REMARK                         _______ _______ _______ _____ _____    ______ ____
ROOT
ATOM      1  C   UNL     1       2.402   8.677  18.924  0.00  0.00    +0.000 C 
ENDROOT
BRANCH   1  16
ATOM      2  O   UNL     1       1.324   7.032  20.881  0.00  0.00    +0.000 OA
ATOM      3  C   UNL     1       1.905   6.506  19.938  0.00  0.00    +0.000 C 
ATOM      4  C   UNL     1       1.947   5.027  19.838  0.00  0.00    +0.000 A 
ATOM      5  C   UNL     1       1.194   4.253  20.730  0.00  0.00    +0.000 A 
ATOM      6  C   UNL     1       1.222   2.864  20.638  0.00  0.00    +0.000 A 
ATOM      7  C   UNL     1       2.017   2.244  19.673  0.00  0.00    +0.000 A 
ATOM      8  C   UNL     1       2.784   3.007  18.779  0.00  0.00    +0.000 A 
ATOM      9  C   UNL     1       3.598   2.396  17.811  0.00  0.00    +0.000 A 
ATOM     10  C   UNL     1       4.351   3.162  16.923  0.00  0.00    +0.000 A 
ATOM     11  C   UNL     1       4.284   4.553  16.980  0.00  0.00    +0.000 A 
ATOM     12  C   UNL     1       3.471   5.176  17.935  0.00  0.00    +0.000 A 
ATOM     13  C   UNL     1       2.733   4.420  18.853  0.00  0.00    +0.000 A 
ATOM     14  C   UNL     1       3.365   6.650  17.950  0.00  0.00    +0.000 C 
ATOM     15  O   UNL     1       3.996   7.305  17.123  0.00  0.00    +0.000 OA
ATOM     16  N   UNL     1       2.552   7.222  18.929  0.00  0.00    +0.000 N 
ENDBRANCH   1  16
BRANCH   1  17
ATOM     17  C   UNL     1       1.430   9.204  17.866  0.00  0.00    +0.000 C 
BRANCH  17  18
ATOM     18  C   UNL     1       0.804  10.549  18.234  0.00  0.00    +0.000 C 
BRANCH  18  19
ATOM     19  N   UNL     1      -0.628  10.506  17.932  0.00  0.00    +0.000 N 
ATOM     20  H   UNL     1      -0.920   9.558  17.721  0.00  0.00    +0.000 HD
BRANCH  19  21
ATOM     21  C   UNL     1      -1.524  11.137  18.827  0.00  0.00    +0.000 A 
ATOM     22  C   UNL     1      -1.085  11.622  20.061  0.00  0.00    +0.000 A 
ATOM     23  C   UNL     1      -1.967  12.312  20.870  0.00  0.00    +0.000 A 
ATOM     24  N   UNL     1      -3.242  12.579  20.534  0.00  0.00    +0.000 NA
ATOM     25  C   UNL     1      -3.674  12.161  19.337  0.00  0.00    +0.000 A 
ATOM     26  C   UNL     1      -4.979  12.474  18.990  0.00  0.00    +0.000 A 
ATOM     27  C   UNL     1      -5.520  12.083  17.770  0.00  0.00    +0.000 A 
ATOM     28 CL   UNL     1      -7.140  12.501  17.374  0.00  0.00    +0.000 Cl
ATOM     29  C   UNL     1      -4.756  11.358  16.869  0.00  0.00    +0.000 A 
ATOM     30  C   UNL     1      -3.439  11.041  17.193  0.00  0.00    +0.000 A 
ATOM     31  C   UNL     1      -2.863  11.434  18.430  0.00  0.00    +0.000 A 
ENDBRANCH  19  21
ENDBRANCH  18  19
ENDBRANCH  17  18
ENDBRANCH   1  17
TORSDOF 5
ENDMDL
MODEL 7
REMARK VINA RESULT:      -8.4      3.918      9.148
REMARK  Name = 
REMARK  5 active torsions:
REMARK  status: ('A' for Active; 'I' for Inactive)
REMARK    1  A    between atoms: N_15  and  C_16
REMARK    2  A    between atoms: C_16  and  C_17
REMARK    3  A    between atoms: C_17  and  C_18
REMARK    4  A    between atoms: C_18  and  N_19
REMARK    5  A    between atoms: N_19  and  C_20
REMARK                            x       y       z     vdW  Elec       q    Type
REMARK                         _______ _______ _______ _____ _____    ______ ____
ROOT
ATOM      1  C   UNL     1       2.527   8.561  18.831  0.00  0.00    +0.000 C 
ENDROOT
BRANCH   1  16
ATOM      2  O   UNL     1       1.433   6.976  20.828  0.00  0.00    +0.000 OA
ATOM      3  C   UNL     1       1.987   6.419  19.885  0.00  0.00    +0.000 C 
ATOM      4  C   UNL     1       1.989   4.939  19.809  0.00  0.00    +0.000 A 
ATOM      5  C   UNL     1       1.228   4.198  20.723  0.00  0.00    +0.000 A 
ATOM      6  C   UNL     1       1.219   2.808  20.652  0.00  0.00    +0.000 A 
ATOM      7  C   UNL     1       1.984   2.153  19.687  0.00  0.00    +0.000 A 
ATOM      8  C   UNL     1       2.760   2.881  18.771  0.00  0.00    +0.000 A 
ATOM      9  C   UNL     1       3.543   2.234  17.802  0.00  0.00    +0.000 A 
ATOM     10  C   UNL     1       4.304   2.967  16.892  0.00  0.00    +0.000 A 
ATOM     11  C   UNL     1       4.275   4.360  16.929  0.00  0.00    +0.000 A 
ATOM     12  C   UNL     1       3.490   5.018  17.883  0.00  0.00    +0.000 A 
ATOM     13  C   UNL     1       2.746   4.296  18.823  0.00  0.00    +0.000 A 
ATOM     14  C   UNL     1       3.423   6.494  17.877  0.00  0.00    +0.000 C 
ATOM     15  O   UNL     1       4.060   7.120  17.031  0.00  0.00    +0.000 OA
ATOM     16  N   UNL     1       2.639   7.103  18.857  0.00  0.00    +0.000 N 
ENDBRANCH   1  16
BRANCH   1  17
ATOM     17  C   UNL     1       1.318   9.083  18.052  0.00  0.00    +0.000 C 
BRANCH  17  18
ATOM     18  C   UNL     1       0.836  10.454  18.527  0.00  0.00    +0.000 C 
BRANCH  18  19
ATOM     19  N   UNL     1      -0.484  10.307  19.143  0.00  0.00    +0.000 N 
ATOM     20  H   UNL     1      -0.919   9.437  18.854  0.00  0.00    +0.000 HD
BRANCH  19  21
ATOM     21  C   UNL     1      -0.603  10.505  20.538  0.00  0.00    +0.000 A 
ATOM     22  C   UNL     1      -0.179   9.527  21.442  0.00  0.00    +0.000 A 
ATOM     23  C   UNL     1      -0.226   9.790  22.797  0.00  0.00    +0.000 A 
ATOM     24  N   UNL     1      -0.636  10.960  23.320  0.00  0.00    +0.000 NA
ATOM     25  C   UNL     1      -1.007  11.929  22.473  0.00  0.00    +0.000 A 
ATOM     26  C   UNL     1      -1.392  13.140  23.025  0.00  0.00    +0.000 A 
ATOM     27  C   UNL     1      -1.795  14.207  22.228  0.00  0.00    +0.000 A 
ATOM     28 CL   UNL     1      -2.255  15.697  22.953  0.00  0.00    +0.000 Cl
ATOM     29  C   UNL     1      -1.824  14.075  20.849  0.00  0.00    +0.000 A 
ATOM     30  C   UNL     1      -1.431  12.869  20.271  0.00  0.00    +0.000 A 
ATOM     31  C   UNL     1      -1.011  11.769  21.064  0.00  0.00    +0.000 A 
ENDBRANCH  19  21
ENDBRANCH  18  19
ENDBRANCH  17  18
ENDBRANCH   1  17
TORSDOF 5
ENDMDL
MODEL 8
REMARK VINA RESULT:      -8.4      4.375      9.872
REMARK  Name = 
REMARK  5 active torsions:
REMARK  status: ('A' for Active; 'I' for Inactive)
REMARK    1  A    between atoms: N_15  and  C_16
REMARK    2  A    between atoms: C_16  and  C_17
REMARK    3  A    between atoms: C_17  and  C_18
REMARK    4  A    between atoms: C_18  and  N_19
REMARK    5  A    between atoms: N_19  and  C_20
REMARK                            x       y       z     vdW  Elec       q    Type
REMARK                         _______ _______ _______ _____ _____    ______ ____
ROOT
ATOM      1  C   UNL     1       2.026   9.194  18.928  0.00  0.00    +0.000 C 
ENDROOT
BRANCH   1  16
ATOM      2  O   UNL     1       3.293   7.918  16.816  0.00  0.00    +0.000 OA
ATOM      3  C   UNL     1       3.062   7.268  17.830  0.00  0.00    +0.000 C 
ATOM      4  C   UNL     1       3.528   5.864  17.921  0.00  0.00    +0.000 A 
ATOM      5  C   UNL     1       4.358   5.345  16.919  0.00  0.00    +0.000 A 
ATOM      6  C   UNL     1       4.805   4.028  17.001  0.00  0.00    +0.000 A 
ATOM      7  C   UNL     1       4.409   3.222  18.068  0.00  0.00    +0.000 A 
ATOM      8  C   UNL     1       3.570   3.726  19.074  0.00  0.00    +0.000 A 
ATOM      9  C   UNL     1       3.154   2.921  20.148  0.00  0.00    +0.000 A 
ATOM     10  C   UNL     1       2.326   3.432  21.146  0.00  0.00    +0.000 A 
ATOM     11  C   UNL     1       1.919   4.764  21.092  0.00  0.00    +0.000 A 
ATOM     12  C   UNL     1       2.333   5.580  20.033  0.00  0.00    +0.000 A 
ATOM     13  C   UNL     1       3.139   5.072  19.007  0.00  0.00    +0.000 A 
ATOM     14  C   UNL     1       1.941   7.005  20.015  0.00  0.00    +0.000 C 
ATOM     15  O   UNL     1       1.256   7.449  20.934  0.00  0.00    +0.000 OA
ATOM     16  N   UNL     1       2.367   7.772  18.932  0.00  0.00    +0.000 N 
ENDBRANCH   1  16
BRANCH   1  17
ATOM     17  C   UNL     1       0.770   9.536  18.122  0.00  0.00    +0.000 C 
BRANCH  17  18
ATOM     18  C   UNL     1      -0.307  10.241  18.947  0.00  0.00    +0.000 C 
BRANCH  18  19
ATOM     19  N   UNL     1      -0.784  11.409  18.205  0.00  0.00    +0.000 N 
ATOM     20  H   UNL     1      -0.125  11.665  17.478  0.00  0.00    +0.000 HD
BRANCH  19  21
ATOM     21  C   UNL     1      -2.113  11.403  17.720  0.00  0.00    +0.000 A 
ATOM     22  C   UNL     1      -2.424  10.833  16.483  0.00  0.00    +0.000 A 
ATOM     23  C   UNL     1      -3.744  10.764  16.082  0.00  0.00    +0.000 A 
ATOM     24  N   UNL     1      -4.778  11.193  16.827  0.00  0.00    +0.000 NA
ATOM     25  C   UNL     1      -4.509  11.705  18.036  0.00  0.00    +0.000 A 
ATOM     26  C   UNL     1      -5.588  12.109  18.807  0.00  0.00    +0.000 A 
ATOM     27  C   UNL     1      -5.410  12.655  20.074  0.00  0.00    +0.000 A 
ATOM     28 CL   UNL     1      -6.776  13.135  21.002  0.00  0.00    +0.000 Cl
ATOM     29  C   UNL     1      -4.136  12.810  20.595  0.00  0.00    +0.000 A 
ATOM     30  C   UNL     1      -3.037  12.401  19.841  0.00  0.00    +0.000 A 
ATOM     31  C   UNL     1      -3.194  11.837  18.547  0.00  0.00    +0.000 A 
ENDBRANCH  19  21
ENDBRANCH  18  19
ENDBRANCH  17  18
ENDBRANCH   1  17
TORSDOF 5
ENDMDL
MODEL 9
REMARK VINA RESULT:      -8.4      6.752      8.534
REMARK  Name = 
REMARK  5 active torsions:
REMARK  status: ('A' for Active; 'I' for Inactive)
REMARK    1  A    between atoms: N_15  and  C_16
REMARK    2  A    between atoms: C_16  and  C_17
REMARK    3  A    between atoms: C_17  and  C_18
REMARK    4  A    between atoms: C_18  and  N_19
REMARK    5  A    between atoms: N_19  and  C_20
REMARK                            x       y       z     vdW  Elec       q    Type
REMARK                         _______ _______ _______ _____ _____    ______ ____
ROOT
ATOM      1  C   UNL     1       9.072   9.572  19.278  0.00  0.00    +0.000 C 
ENDROOT
BRANCH   1  16
ATOM      2  O   UNL     1      10.495  10.843  17.263  0.00  0.00    +0.000 OA
ATOM      3  C   UNL     1      10.191  11.494  18.257  0.00  0.00    +0.000 C 
ATOM      4  C   UNL     1      10.526  12.937  18.315  0.00  0.00    +0.000 A 
ATOM      5  C   UNL     1      11.040  13.574  17.178  0.00  0.00    +0.000 A 
ATOM      6  C   UNL     1      11.350  14.931  17.223  0.00  0.00    +0.000 A 
ATOM      7  C   UNL     1      11.169  15.649  18.405  0.00  0.00    +0.000 A 
ATOM      8  C   UNL     1      10.664  15.022  19.555  0.00  0.00    +0.000 A 
ATOM      9  C   UNL     1      10.488  15.731  20.755  0.00  0.00    +0.000 A 
ATOM     10  C   UNL     1       9.979  15.101  21.889  0.00  0.00    +0.000 A 
ATOM     11  C   UNL     1       9.620  13.756  21.832  0.00  0.00    +0.000 A 
ATOM     12  C   UNL     1       9.782  13.039  20.640  0.00  0.00    +0.000 A 
ATOM     13  C   UNL     1      10.321  13.650  19.502  0.00  0.00    +0.000 A 
ATOM     14  C   UNL     1       9.347  11.628  20.574  0.00  0.00    +0.000 C 
ATOM     15  O   UNL     1       8.850  11.108  21.571  0.00  0.00    +0.000 OA
ATOM     16  N   UNL     1       9.542  10.954  19.369  0.00  0.00    +0.000 N 
ENDBRANCH   1  16
BRANCH   1  17
ATOM     17  C   UNL     1       8.181   9.291  18.065  0.00  0.00    +0.000 C 
BRANCH  17  18
ATOM     18  C   UNL     1       7.879   7.806  17.865  0.00  0.00    +0.000 C 
BRANCH  18  19
ATOM     19  N   UNL     1       6.696   7.672  17.014  0.00  0.00    +0.000 N 
ATOM     20  H   UNL     1       6.749   8.307  16.225  0.00  0.00    +0.000 HD
BRANCH  19  21
ATOM     21  C   UNL     1       6.301   6.375  16.608  0.00  0.00    +0.000 A 
ATOM     22  C   UNL     1       7.174   5.548  15.897  0.00  0.00    +0.000 A 
ATOM     23  C   UNL     1       6.789   4.257  15.596  0.00  0.00    +0.000 A 
ATOM     24  N   UNL     1       5.615   3.717  15.970  0.00  0.00    +0.000 NA
ATOM     25  C   UNL     1       4.779   4.476  16.690  0.00  0.00    +0.000 A 
ATOM     26  C   UNL     1       3.589   3.895  17.099  0.00  0.00    +0.000 A 
ATOM     27  C   UNL     1       2.655   4.603  17.849  0.00  0.00    +0.000 A 
ATOM     28 CL   UNL     1       1.195   3.841  18.346  0.00  0.00    +0.000 Cl
ATOM     29  C   UNL     1       2.897   5.921  18.201  0.00  0.00    +0.000 A 
ATOM     30  C   UNL     1       4.092   6.522  17.808  0.00  0.00    +0.000 A 
ATOM     31  C   UNL     1       5.062   5.819  17.048  0.00  0.00    +0.000 A 
ENDBRANCH  19  21
ENDBRANCH  18  19
ENDBRANCH  17  18
ENDBRANCH   1  17
TORSDOF 5
ENDMDL
