MODEL 1
REMARK VINA RESULT:      -8.0      0.000      0.000
REMARK  Name = 
REMARK  4 active torsions:
REMARK  status: ('A' for Active; 'I' for Inactive)
REMARK    1  A    between atoms: O_1  and  C_2
REMARK    2  A    between atoms: C_7  and  C_8
REMARK    3  A    between atoms: C_10  and  C_11
REMARK    4  A    between atoms: C_21  and  C_22
REMARK                            x       y       z     vdW  Elec       q    Type
REMARK                         _______ _______ _______ _____ _____    ______ ____
ROOT
ATOM      1  C   UNL     1       0.752  12.855  19.686  0.00  0.00    +0.000 C 
ATOM      2  C   UNL     1      -0.688  12.864  19.223  0.00  0.00    +0.000 C 
ATOM      3  C   UNL     1      -1.302  11.746  18.818  0.00  0.00    +0.000 C 
ATOM      4  N   UNL     1      -0.606  10.565  18.763  0.00  0.00    +0.000 N 
ATOM      5  C   UNL     1       0.841  10.636  18.705  0.00  0.00    +0.000 C 
ATOM      6  N   UNL     1       1.508  11.600  19.571  0.00  0.00    +0.000 NA
ATOM      7  H   UNL     1      -1.025   9.847  18.182  0.00  0.00    +0.000 HD
ATOM      8  H   UNL     1       2.418  11.799  19.165  0.00  0.00    +0.000 HD
ENDROOT
BRANCH   3   9
ATOM      9  C   UNL     1      -2.726  11.732  18.468  0.00  0.00    +0.000 A 
ATOM     10  C   UNL     1      -3.124  11.278  17.190  0.00  0.00    +0.000 A 
ATOM     11  C   UNL     1      -4.471  11.280  16.814  0.00  0.00    +0.000 A 
ATOM     12  C   UNL     1      -5.388  11.747  17.729  0.00  0.00    +0.000 A 
ATOM     13  C   UNL     1      -5.007  12.184  18.979  0.00  0.00    +0.000 A 
ATOM     14  C   UNL     1      -3.688  12.183  19.381  0.00  0.00    +0.000 A 
ATOM     15  O   UNL     1      -6.064  12.606  19.723  0.00  0.00    +0.000 OA
ATOM     16  C   UNL     1      -7.145  12.428  18.784  0.00  0.00    +0.000 C 
ATOM     17  O   UNL     1      -6.730  11.843  17.533  0.00  0.00    +0.000 OA
ENDBRANCH   3   9
BRANCH   5  18
ATOM     18  C   UNL     1       1.389   9.237  18.977  0.00  0.00    +0.000 A 
ATOM     19  C   UNL     1       1.289   8.661  20.253  0.00  0.00    +0.000 A 
ATOM     20  C   UNL     1       1.806   7.386  20.501  0.00  0.00    +0.000 A 
ATOM     21  C   UNL     1       2.426   6.676  19.473  0.00  0.00    +0.000 A 
ATOM     22 BR   UNL     1       3.131   4.956  19.816  0.00  0.00    +0.000 Br
ATOM     23  C   UNL     1       2.531   7.225  18.199  0.00  0.00    +0.000 A 
ATOM     24  C   UNL     1       2.011   8.499  17.951  0.00  0.00    +0.000 A 
ENDBRANCH   5  18
BRANCH   1  30
ATOM     25  C   UNL     1       2.375  14.154  18.123  0.00  0.00    +0.000 A 
ATOM     26  C   UNL     1       2.973  15.358  17.731  0.00  0.00    +0.000 A 
ATOM     27  C   UNL     1       2.706  16.535  18.431  0.00  0.00    +0.000 A 
ATOM     28  C   UNL     1       1.849  16.510  19.525  0.00  0.00    +0.000 A 
ATOM     29  C   UNL     1       1.258  15.307  19.914  0.00  0.00    +0.000 A 
ATOM     30  C   UNL     1       1.506  14.102  19.223  0.00  0.00    +0.000 A 
BRANCH  25  31
ATOM     31  O   UNL     1       2.654  13.016  17.419  0.00  0.00    +0.000 OA
ATOM     32  H   UNL     1       1.852  12.749  16.938  0.00  0.00    +0.000 HD
ENDBRANCH  25  31
ENDBRANCH   1  30
TORSDOF 4
ENDMDL
MODEL 2
REMARK VINA RESULT:      -7.9      3.453      7.792
REMARK  Name = 
REMARK  4 active torsions:
REMARK  status: ('A' for Active; 'I' for Inactive)
REMARK    1  A    between atoms: O_1  and  C_2
REMARK    2  A    between atoms: C_7  and  C_8
REMARK    3  A    between atoms: C_10  and  C_11
REMARK    4  A    between atoms: C_21  and  C_22
REMARK                            x       y       z     vdW  Elec       q    Type
REMARK                         _______ _______ _______ _____ _____    ______ ____
ROOT
ATOM      1  C   UNL     1      -0.785  10.742  18.802  0.00  0.00    +0.000 C 
ATOM      2  C   UNL     1       0.035   9.480  18.647  0.00  0.00    +0.000 C 
ATOM      3  C   UNL     1       1.372   9.500  18.704  0.00  0.00    +0.000 C 
ATOM      4  N   UNL     1       2.032  10.693  18.849  0.00  0.00    +0.000 N 
ATOM      5  C   UNL     1       1.322  11.906  18.490  0.00  0.00    +0.000 C 
ATOM      6  N   UNL     1      -0.072  12.023  18.899  0.00  0.00    +0.000 NA
ATOM      7  H   UNL     1       3.012  10.676  18.588  0.00  0.00    +0.000 HD
ATOM      8  H   UNL     1      -0.517  12.696  18.283  0.00  0.00    +0.000 HD
ENDROOT
BRANCH   3   9
ATOM      9  C   UNL     1       2.163   8.267  18.659  0.00  0.00    +0.000 A 
ATOM     10  C   UNL     1       3.052   8.049  17.582  0.00  0.00    +0.000 A 
ATOM     11  C   UNL     1       3.800   6.871  17.493  0.00  0.00    +0.000 A 
ATOM     12  C   UNL     1       3.631   5.933  18.488  0.00  0.00    +0.000 A 
ATOM     13  C   UNL     1       2.772   6.142  19.543  0.00  0.00    +0.000 A 
ATOM     14  C   UNL     1       2.030   7.299  19.663  0.00  0.00    +0.000 A 
ATOM     15  O   UNL     1       2.750   5.092  20.408  0.00  0.00    +0.000 OA
ATOM     16  C   UNL     1       3.657   4.182  19.752  0.00  0.00    +0.000 C 
ATOM     17  O   UNL     1       4.252   4.725  18.556  0.00  0.00    +0.000 OA
ENDBRANCH   3   9
BRANCH   5  18
ATOM     18  C   UNL     1       2.117  13.091  19.033  0.00  0.00    +0.000 A 
ATOM     19  C   UNL     1       2.112  13.394  20.404  0.00  0.00    +0.000 A 
ATOM     20  C   UNL     1       2.829  14.489  20.894  0.00  0.00    +0.000 A 
ATOM     21  C   UNL     1       3.559  15.290  20.016  0.00  0.00    +0.000 A 
ATOM     22 BR   UNL     1       4.520  16.775  20.683  0.00  0.00    +0.000 Br
ATOM     23  C   UNL     1       3.584  15.005  18.654  0.00  0.00    +0.000 A 
ATOM     24  C   UNL     1       2.868  13.908  18.165  0.00  0.00    +0.000 A 
ENDBRANCH   5  18
BRANCH   1  30
ATOM     25  C   UNL     1      -3.112  11.588  18.006  0.00  0.00    +0.000 A 
ATOM     26  C   UNL     1      -4.147  11.576  17.061  0.00  0.00    +0.000 A 
ATOM     27  C   UNL     1      -4.077  10.729  15.955  0.00  0.00    +0.000 A 
ATOM     28  C   UNL     1      -2.980   9.891  15.793  0.00  0.00    +0.000 A 
ATOM     29  C   UNL     1      -1.953   9.904  16.739  0.00  0.00    +0.000 A 
ATOM     30  C   UNL     1      -1.995  10.752  17.866  0.00  0.00    +0.000 A 
BRANCH  25  31
ATOM     31  O   UNL     1      -3.206  12.428  19.080  0.00  0.00    +0.000 OA
ATOM     32  H   UNL     1      -2.911  11.947  19.872  0.00  0.00    +0.000 HD
ENDBRANCH  25  31
ENDBRANCH   1  30
TORSDOF 4
ENDMDL
MODEL 3
REMARK VINA RESULT:      -7.9      3.328      7.939
REMARK  Name = 
REMARK  4 active torsions:
REMARK  status: ('A' for Active; 'I' for Inactive)
REMARK    1  A    between atoms: O_1  and  C_2
REMARK    2  A    between atoms: C_7  and  C_8
REMARK    3  A    between atoms: C_10  and  C_11
REMARK    4  A    between atoms: C_21  and  C_22
REMARK                            x       y       z     vdW  Elec       q    Type
REMARK                         _______ _______ _______ _____ _____    ______ ____
ROOT
ATOM      1  C   UNL     1      -0.803  10.777  18.839  0.00  0.00    +0.000 C 
ATOM      2  C   UNL     1       0.015   9.514  18.677  0.00  0.00    +0.000 C 
ATOM      3  C   UNL     1       1.352   9.535  18.714  0.00  0.00    +0.000 C 
ATOM      4  N   UNL     1       2.014  10.728  18.846  0.00  0.00    +0.000 N 
ATOM      5  C   UNL     1       1.300  11.940  18.493  0.00  0.00    +0.000 C 
ATOM      6  N   UNL     1      -0.088  12.058  18.923  0.00  0.00    +0.000 NA
ATOM      7  H   UNL     1       2.991  10.710  18.571  0.00  0.00    +0.000 HD
ATOM      8  H   UNL     1      -0.542  12.730  18.311  0.00  0.00    +0.000 HD
ENDROOT
BRANCH   3   9
ATOM      9  C   UNL     1       2.143   8.301  18.661  0.00  0.00    +0.000 A 
ATOM     10  C   UNL     1       2.048   7.368  19.719  0.00  0.00    +0.000 A 
ATOM     11  C   UNL     1       2.810   6.196  19.714  0.00  0.00    +0.000 A 
ATOM     12  C   UNL     1       3.659   5.991  18.648  0.00  0.00    +0.000 A 
ATOM     13  C   UNL     1       3.750   6.893  17.611  0.00  0.00    +0.000 A 
ATOM     14  C   UNL     1       3.003   8.052  17.583  0.00  0.00    +0.000 A 
ATOM     15  O   UNL     1       4.648   6.504  16.666  0.00  0.00    +0.000 OA
ATOM     16  C   UNL     1       5.142   5.281  17.248  0.00  0.00    +0.000 C 
ATOM     17  O   UNL     1       4.488   4.927  18.484  0.00  0.00    +0.000 OA
ENDBRANCH   3   9
BRANCH   5  18
ATOM     18  C   UNL     1       2.103  13.127  19.021  0.00  0.00    +0.000 A 
ATOM     19  C   UNL     1       2.246  13.341  20.401  0.00  0.00    +0.000 A 
ATOM     20  C   UNL     1       2.970  14.438  20.879  0.00  0.00    +0.000 A 
ATOM     21  C   UNL     1       3.557  15.328  19.980  0.00  0.00    +0.000 A 
ATOM     22 BR   UNL     1       4.527  16.814  20.632  0.00  0.00    +0.000 Br
ATOM     23  C   UNL     1       3.433  15.131  18.608  0.00  0.00    +0.000 A 
ATOM     24  C   UNL     1       2.711  14.033  18.131  0.00  0.00    +0.000 A 
ENDBRANCH   5  18
BRANCH   1  30
ATOM     25  C   UNL     1      -3.143  11.619  18.077  0.00  0.00    +0.000 A 
ATOM     26  C   UNL     1      -4.191  11.604  17.147  0.00  0.00    +0.000 A 
ATOM     27  C   UNL     1      -4.136  10.757  16.041  0.00  0.00    +0.000 A 
ATOM     28  C   UNL     1      -3.040   9.920  15.864  0.00  0.00    +0.000 A 
ATOM     29  C   UNL     1      -1.999   9.936  16.794  0.00  0.00    +0.000 A 
ATOM     30  C   UNL     1      -2.026  10.785  17.921  0.00  0.00    +0.000 A 
BRANCH  25  31
ATOM     31  O   UNL     1      -3.222  12.459  19.152  0.00  0.00    +0.000 OA
ATOM     32  H   UNL     1      -4.158  12.559  19.394  0.00  0.00    +0.000 HD
ENDBRANCH  25  31
ENDBRANCH   1  30
TORSDOF 4
ENDMDL
MODEL 4
REMARK VINA RESULT:      -7.8      0.802      1.385
REMARK  Name = 
REMARK  4 active torsions:
REMARK  status: ('A' for Active; 'I' for Inactive)
REMARK    1  A    between atoms: O_1  and  C_2
REMARK    2  A    between atoms: C_7  and  C_8
REMARK    3  A    between atoms: C_10  and  C_11
REMARK    4  A    between atoms: C_21  and  C_22
REMARK                            x       y       z     vdW  Elec       q    Type
REMARK                         _______ _______ _______ _____ _____    ______ ____
ROOT
ATOM      1  C   UNL     1       1.072  13.262  19.607  0.00  0.00    +0.000 C 
ATOM      2  C   UNL     1      -0.438  13.313  19.524  0.00  0.00    +0.000 C 
ATOM      3  C   UNL     1      -1.168  12.207  19.337  0.00  0.00    +0.000 C 
ATOM      4  N   UNL     1      -0.545  10.998  19.159  0.00  0.00    +0.000 N 
ATOM      5  C   UNL     1       0.841  11.009  18.732  0.00  0.00    +0.000 C 
ATOM      6  N   UNL     1       1.736  11.975  19.358  0.00  0.00    +0.000 NA
ATOM      7  H   UNL     1      -1.119  10.278  18.734  0.00  0.00    +0.000 HD
ATOM      8  H   UNL     1       2.517  12.123  18.726  0.00  0.00    +0.000 HD
ENDROOT
BRANCH   3   9
ATOM      9  C   UNL     1      -2.633  12.239  19.361  0.00  0.00    +0.000 A 
ATOM     10  C   UNL     1      -3.298  12.862  20.442  0.00  0.00    +0.000 A 
ATOM     11  C   UNL     1      -4.695  12.885  20.510  0.00  0.00    +0.000 A 
ATOM     12  C   UNL     1      -5.393  12.271  19.493  0.00  0.00    +0.000 A 
ATOM     13  C   UNL     1      -4.751  11.668  18.434  0.00  0.00    +0.000 A 
ATOM     14  C   UNL     1      -3.375  11.640  18.335  0.00  0.00    +0.000 A 
ATOM     15  O   UNL     1      -5.622  11.120  17.546  0.00  0.00    +0.000 OA
ATOM     16  C   UNL     1      -6.881  11.406  18.189  0.00  0.00    +0.000 C 
ATOM     17  O   UNL     1      -6.746  12.173  19.402  0.00  0.00    +0.000 OA
ENDBRANCH   3   9
BRANCH   5  18
ATOM     18  C   UNL     1       1.398   9.599  18.916  0.00  0.00    +0.000 A 
ATOM     19  C   UNL     1       1.265   8.928  20.142  0.00  0.00    +0.000 A 
ATOM     20  C   UNL     1       1.790   7.643  20.311  0.00  0.00    +0.000 A 
ATOM     21  C   UNL     1       2.451   7.019  19.254  0.00  0.00    +0.000 A 
ATOM     22 BR   UNL     1       3.167   5.285  19.489  0.00  0.00    +0.000 Br
ATOM     23  C   UNL     1       2.590   7.663  18.028  0.00  0.00    +0.000 A 
ATOM     24  C   UNL     1       2.062   8.947  17.859  0.00  0.00    +0.000 A 
ENDBRANCH   5  18
BRANCH   1  30
ATOM     25  C   UNL     1       2.818  14.390  18.043  0.00  0.00    +0.000 A 
ATOM     26  C   UNL     1       3.305  15.535  17.400  0.00  0.00    +0.000 A 
ATOM     27  C   UNL     1       2.697  16.772  17.613  0.00  0.00    +0.000 A 
ATOM     28  C   UNL     1       1.608  16.869  18.471  0.00  0.00    +0.000 A 
ATOM     29  C   UNL     1       1.128  15.726  19.113  0.00  0.00    +0.000 A 
ATOM     30  C   UNL     1       1.721  14.461  18.914  0.00  0.00    +0.000 A 
BRANCH  25  31
ATOM     31  O   UNL     1       3.432  13.191  17.816  0.00  0.00    +0.000 OA
ATOM     32  H   UNL     1       2.766  12.487  17.885  0.00  0.00    +0.000 HD
ENDBRANCH  25  31
ENDBRANCH   1  30
TORSDOF 4
ENDMDL
MODEL 5
REMARK VINA RESULT:      -7.8      3.493      6.790
REMARK  Name = 
REMARK  4 active torsions:
REMARK  status: ('A' for Active; 'I' for Inactive)
REMARK    1  A    between atoms: O_1  and  C_2
REMARK    2  A    between atoms: C_7  and  C_8
REMARK    3  A    between atoms: C_10  and  C_11
REMARK    4  A    between atoms: C_21  and  C_22
REMARK                            x       y       z     vdW  Elec       q    Type
REMARK                         _______ _______ _______ _____ _____    ______ ____
ROOT
ATOM      1  C   UNL     1       1.614  12.373  18.217  0.00  0.00    +0.000 C 
ATOM      2  C   UNL     1       2.206  10.996  18.418  0.00  0.00    +0.000 C 
ATOM      3  C   UNL     1       1.435   9.928  18.656  0.00  0.00    +0.000 C 
ATOM      4  N   UNL     1       0.078  10.079  18.779  0.00  0.00    +0.000 N 
ATOM      5  C   UNL     1      -0.430  11.400  19.096  0.00  0.00    +0.000 C 
ATOM      6  N   UNL     1       0.166  12.538  18.408  0.00  0.00    +0.000 NA
ATOM      7  H   UNL     1      -0.398   9.313  19.244  0.00  0.00    +0.000 HD
ATOM      8  H   UNL     1      -0.001  13.362  18.977  0.00  0.00    +0.000 HD
ENDROOT
BRANCH   3   9
ATOM      9  C   UNL     1       1.998   8.577  18.746  0.00  0.00    +0.000 A 
ATOM     10  C   UNL     1       2.813   8.091  17.699  0.00  0.00    +0.000 A 
ATOM     11  C   UNL     1       3.341   6.797  17.740  0.00  0.00    +0.000 A 
ATOM     12  C   UNL     1       3.030   6.016  18.831  0.00  0.00    +0.000 A 
ATOM     13  C   UNL     1       2.243   6.486  19.858  0.00  0.00    +0.000 A 
ATOM     14  C   UNL     1       1.717   7.762  19.850  0.00  0.00    +0.000 A 
ATOM     15  O   UNL     1       2.055   5.557  20.833  0.00  0.00    +0.000 OA
ATOM     16  C   UNL     1       2.775   4.435  20.281  0.00  0.00    +0.000 C 
ATOM     17  O   UNL     1       3.432   4.733  19.032  0.00  0.00    +0.000 OA
ENDBRANCH   3   9
BRANCH   5  18
ATOM     18  C   UNL     1      -1.938  11.390  18.863  0.00  0.00    +0.000 A 
ATOM     19  C   UNL     1      -2.513  10.531  17.911  0.00  0.00    +0.000 A 
ATOM     20  C   UNL     1      -3.893  10.537  17.691  0.00  0.00    +0.000 A 
ATOM     21  C   UNL     1      -4.710  11.400  18.420  0.00  0.00    +0.000 A 
ATOM     22 BR   UNL     1      -6.575  11.410  18.111  0.00  0.00    +0.000 Br
ATOM     23  C   UNL     1      -4.163  12.255  19.372  0.00  0.00    +0.000 A 
ATOM     24  C   UNL     1      -2.783  12.247  19.594  0.00  0.00    +0.000 A 
ENDBRANCH   5  18
BRANCH   1  30
ATOM     25  C   UNL     1       2.601  13.670  20.245  0.00  0.00    +0.000 A 
ATOM     26  C   UNL     1       3.463  14.651  20.750  0.00  0.00    +0.000 A 
ATOM     27  C   UNL     1       4.218  15.438  19.880  0.00  0.00    +0.000 A 
ATOM     28  C   UNL     1       4.108  15.251  18.507  0.00  0.00    +0.000 A 
ATOM     29  C   UNL     1       3.245  14.274  18.008  0.00  0.00    +0.000 A 
ATOM     30  C   UNL     1       2.472  13.462  18.864  0.00  0.00    +0.000 A 
BRANCH  25  31
ATOM     31  O   UNL     1       1.873  12.913  21.120  0.00  0.00    +0.000 OA
ATOM     32  H   UNL     1       0.991  12.765  20.738  0.00  0.00    +0.000 HD
ENDBRANCH  25  31
ENDBRANCH   1  30
TORSDOF 4
ENDMDL
MODEL 6
REMARK VINA RESULT:      -7.8      3.487      6.970
REMARK  Name = 
REMARK  4 active torsions:
REMARK  status: ('A' for Active; 'I' for Inactive)
REMARK    1  A    between atoms: O_1  and  C_2
REMARK    2  A    between atoms: C_7  and  C_8
REMARK    3  A    between atoms: C_10  and  C_11
REMARK    4  A    between atoms: C_21  and  C_22
REMARK                            x       y       z     vdW  Elec       q    Type
REMARK                         _______ _______ _______ _____ _____    ______ ____
ROOT
ATOM      1  C   UNL     1       1.629  12.318  18.213  0.00  0.00    +0.000 C 
ATOM      2  C   UNL     1       2.211  10.938  18.422  0.00  0.00    +0.000 C 
ATOM      3  C   UNL     1       1.432   9.877  18.661  0.00  0.00    +0.000 C 
ATOM      4  N   UNL     1       0.075  10.037  18.778  0.00  0.00    +0.000 N 
ATOM      5  C   UNL     1      -0.425  11.362  19.086  0.00  0.00    +0.000 C 
ATOM      6  N   UNL     1       0.181  12.494  18.395  0.00  0.00    +0.000 NA
ATOM      7  H   UNL     1      -0.408   9.276  19.243  0.00  0.00    +0.000 HD
ATOM      8  H   UNL     1       0.017  13.322  18.960  0.00  0.00    +0.000 HD
ENDROOT
BRANCH   3   9
ATOM      9  C   UNL     1       1.986   8.522  18.761  0.00  0.00    +0.000 A 
ATOM     10  C   UNL     1       1.714   7.743  19.908  0.00  0.00    +0.000 A 
ATOM     11  C   UNL     1       2.250   6.459  20.048  0.00  0.00    +0.000 A 
ATOM     12  C   UNL     1       3.055   5.990  19.033  0.00  0.00    +0.000 A 
ATOM     13  C   UNL     1       3.317   6.742  17.910  0.00  0.00    +0.000 A 
ATOM     14  C   UNL     1       2.793   8.007  17.739  0.00  0.00    +0.000 A 
ATOM     15  O   UNL     1       4.136   6.097  17.035  0.00  0.00    +0.000 OA
ATOM     16  C   UNL     1       4.394   4.875  17.757  0.00  0.00    +0.000 C 
ATOM     17  O   UNL     1       3.678   4.782  19.005  0.00  0.00    +0.000 OA
ENDBRANCH   3   9
BRANCH   5  18
ATOM     18  C   UNL     1      -1.932  11.361  18.845  0.00  0.00    +0.000 A 
ATOM     19  C   UNL     1      -2.776  12.227  19.559  0.00  0.00    +0.000 A 
ATOM     20  C   UNL     1      -4.157  12.212  19.346  0.00  0.00    +0.000 A 
ATOM     21  C   UNL     1      -4.706  11.331  18.415  0.00  0.00    +0.000 A 
ATOM     22 BR   UNL     1      -6.576  11.308  18.136  0.00  0.00    +0.000 Br
ATOM     23  C   UNL     1      -3.889  10.468  17.691  0.00  0.00    +0.000 A 
ATOM     24  C   UNL     1      -2.508  10.486  17.903  0.00  0.00    +0.000 A 
ENDBRANCH   5  18
BRANCH   1  30
ATOM     25  C   UNL     1       2.591  13.637  20.237  0.00  0.00    +0.000 A 
ATOM     26  C   UNL     1       3.459  14.613  20.744  0.00  0.00    +0.000 A 
ATOM     27  C   UNL     1       4.248  15.370  19.877  0.00  0.00    +0.000 A 
ATOM     28  C   UNL     1       4.167  15.157  18.505  0.00  0.00    +0.000 A 
ATOM     29  C   UNL     1       3.298  14.186  18.005  0.00  0.00    +0.000 A 
ATOM     30  C   UNL     1       2.491  13.404  18.858  0.00  0.00    +0.000 A 
BRANCH  25  31
ATOM     31  O   UNL     1       1.830  12.911  21.109  0.00  0.00    +0.000 OA
ATOM     32  H   UNL     1       2.309  12.095  21.329  0.00  0.00    +0.000 HD
ENDBRANCH  25  31
ENDBRANCH   1  30
TORSDOF 4
ENDMDL
MODEL 7
REMARK VINA RESULT:      -7.8      1.506      6.497
REMARK  Name = 
REMARK  4 active torsions:
REMARK  status: ('A' for Active; 'I' for Inactive)
REMARK    1  A    between atoms: O_1  and  C_2
REMARK    2  A    between atoms: C_7  and  C_8
REMARK    3  A    between atoms: C_10  and  C_11
REMARK    4  A    between atoms: C_21  and  C_22
REMARK                            x       y       z     vdW  Elec       q    Type
REMARK                         _______ _______ _______ _____ _____    ______ ____
ROOT
ATOM      1  C   UNL     1      -1.444  11.711  18.069  0.00  0.00    +0.000 C 
ATOM      2  C   UNL     1      -0.612  12.957  18.277  0.00  0.00    +0.000 C 
ATOM      3  C   UNL     1       0.667  12.890  18.666  0.00  0.00    +0.000 C 
ATOM      4  N   UNL     1       1.235  11.672  18.942  0.00  0.00    +0.000 N 
ATOM      5  C   UNL     1       0.347  10.565  19.240  0.00  0.00    +0.000 C 
ATOM      6  N   UNL     1      -0.849  10.414  18.421  0.00  0.00    +0.000 NA
ATOM      7  H   UNL     1       2.079  11.710  19.503  0.00  0.00    +0.000 HD
ATOM      8  H   UNL     1      -1.523   9.876  18.958  0.00  0.00    +0.000 HD
ENDROOT
BRANCH   3   9
ATOM      9  C   UNL     1       1.505  14.088  18.767  0.00  0.00    +0.000 A 
ATOM     10  C   UNL     1       0.894  15.355  18.907  0.00  0.00    +0.000 A 
ATOM     11  C   UNL     1       1.663  16.521  18.976  0.00  0.00    +0.000 A 
ATOM     12  C   UNL     1       3.032  16.387  18.895  0.00  0.00    +0.000 A 
ATOM     13  C   UNL     1       3.633  15.156  18.765  0.00  0.00    +0.000 A 
ATOM     14  C   UNL     1       2.901  13.988  18.706  0.00  0.00    +0.000 A 
ATOM     15  O   UNL     1       4.989  15.247  18.698  0.00  0.00    +0.000 OA
ATOM     16  C   UNL     1       5.167  16.677  18.753  0.00  0.00    +0.000 C 
ATOM     17  O   UNL     1       3.933  17.405  18.921  0.00  0.00    +0.000 OA
ENDBRANCH   3   9
BRANCH   5  18
ATOM     18  C   UNL     1       1.170   9.279  19.189  0.00  0.00    +0.000 A 
ATOM     19  C   UNL     1       1.807   8.880  18.003  0.00  0.00    +0.000 A 
ATOM     20  C   UNL     1       2.546   7.695  17.957  0.00  0.00    +0.000 A 
ATOM     21  C   UNL     1       2.655   6.899  19.097  0.00  0.00    +0.000 A 
ATOM     22 BR   UNL     1       3.649   5.293  19.027  0.00  0.00    +0.000 Br
ATOM     23  C   UNL     1       2.037   7.279  20.285  0.00  0.00    +0.000 A 
ATOM     24  C   UNL     1       1.300   8.466  20.331  0.00  0.00    +0.000 A 
ENDBRANCH   5  18
BRANCH   1  30
ATOM     25  C   UNL     1      -4.026  11.492  17.840  0.00  0.00    +0.000 A 
ATOM     26  C   UNL     1      -5.307  11.651  18.384  0.00  0.00    +0.000 A 
ATOM     27  C   UNL     1      -5.468  12.219  19.647  0.00  0.00    +0.000 A 
ATOM     28  C   UNL     1      -4.353  12.635  20.366  0.00  0.00    +0.000 A 
ATOM     29  C   UNL     1      -3.078  12.478  19.819  0.00  0.00    +0.000 A 
ATOM     30  C   UNL     1      -2.885  11.904  18.545  0.00  0.00    +0.000 A 
BRANCH  25  31
ATOM     31  O   UNL     1      -3.897  10.932  16.600  0.00  0.00    +0.000 OA
ATOM     32  H   UNL     1      -3.596  10.014  16.708  0.00  0.00    +0.000 HD
ENDBRANCH  25  31
ENDBRANCH   1  30
TORSDOF 4
ENDMDL
MODEL 8
REMARK VINA RESULT:      -7.8      3.599      7.750
REMARK  Name = 
REMARK  4 active torsions:
REMARK  status: ('A' for Active; 'I' for Inactive)
REMARK    1  A    between atoms: O_1  and  C_2
REMARK    2  A    between atoms: C_7  and  C_8
REMARK    3  A    between atoms: C_10  and  C_11
REMARK    4  A    between atoms: C_21  and  C_22
REMARK                            x       y       z     vdW  Elec       q    Type
REMARK                         _______ _______ _______ _____ _____    ______ ____
ROOT
ATOM      1  C   UNL     1       0.667  10.258  19.688  0.00  0.00    +0.000 C 
ATOM      2  C   UNL     1       1.465  11.532  19.521  0.00  0.00    +0.000 C 
ATOM      3  C   UNL     1       0.903  12.657  19.064  0.00  0.00    +0.000 C 
ATOM      4  N   UNL     1      -0.414  12.657  18.683  0.00  0.00    +0.000 N 
ATOM      5  C   UNL     1      -1.024  11.382  18.358  0.00  0.00    +0.000 C 
ATOM      6  N   UNL     1      -0.727  10.248  19.224  0.00  0.00    +0.000 NA
ATOM      7  H   UNL     1      -0.687  13.429  18.084  0.00  0.00    +0.000 HD
ATOM      8  H   UNL     1      -0.891   9.402  18.688  0.00  0.00    +0.000 HD
ENDROOT
BRANCH   3   9
ATOM      9  C   UNL     1       1.647  13.919  19.000  0.00  0.00    +0.000 A 
ATOM     10  C   UNL     1       0.943  15.136  18.854  0.00  0.00    +0.000 A 
ATOM     11  C   UNL     1       1.624  16.353  18.759  0.00  0.00    +0.000 A 
ATOM     12  C   UNL     1       3.001  16.319  18.806  0.00  0.00    +0.000 A 
ATOM     13  C   UNL     1       3.692  15.138  18.955  0.00  0.00    +0.000 A 
ATOM     14  C   UNL     1       3.047  13.923  19.062  0.00  0.00    +0.000 A 
ATOM     15  O   UNL     1       5.039  15.326  18.972  0.00  0.00    +0.000 OA
ATOM     16  C   UNL     1       5.116  16.752  18.770  0.00  0.00    +0.000 C 
ATOM     17  O   UNL     1       3.827  17.395  18.707  0.00  0.00    +0.000 OA
ENDBRANCH   3   9
BRANCH   5  18
ATOM     18  C   UNL     1      -2.535  11.591  18.285  0.00  0.00    +0.000 A 
ATOM     19  C   UNL     1      -3.249  11.275  17.118  0.00  0.00    +0.000 A 
ATOM     20  C   UNL     1      -4.630  11.482  17.051  0.00  0.00    +0.000 A 
ATOM     21  C   UNL     1      -5.308  12.006  18.151  0.00  0.00    +0.000 A 
ATOM     22 BR   UNL     1      -7.174  12.293  18.053  0.00  0.00    +0.000 Br
ATOM     23  C   UNL     1      -4.621  12.321  19.320  0.00  0.00    +0.000 A 
ATOM     24  C   UNL     1      -3.241  12.111  19.387  0.00  0.00    +0.000 A 
ENDBRANCH   5  18
BRANCH   1  30
ATOM     25  C   UNL     1       1.773   7.950  20.155  0.00  0.00    +0.000 A 
ATOM     26  C   UNL     1       2.469   6.826  19.692  0.00  0.00    +0.000 A 
ATOM     27  C   UNL     1       2.878   6.753  18.360  0.00  0.00    +0.000 A 
ATOM     28  C   UNL     1       2.599   7.802  17.492  0.00  0.00    +0.000 A 
ATOM     29  C   UNL     1       1.908   8.921  17.958  0.00  0.00    +0.000 A 
ATOM     30  C   UNL     1       1.479   9.022  19.299  0.00  0.00    +0.000 A 
BRANCH  25  31
ATOM     31  O   UNL     1       1.385   7.996  21.464  0.00  0.00    +0.000 OA
ATOM     32  H   UNL     1       0.547   7.512  21.552  0.00  0.00    +0.000 HD
ENDBRANCH  25  31
ENDBRANCH   1  30
TORSDOF 4
ENDMDL
MODEL 9
REMARK VINA RESULT:      -7.7      0.879      1.292
REMARK  Name = 
REMARK  4 active torsions:
REMARK  status: ('A' for Active; 'I' for Inactive)
REMARK    1  A    between atoms: O_1  and  C_2
REMARK    2  A    between atoms: C_7  and  C_8
REMARK    3  A    between atoms: C_10  and  C_11
REMARK    4  A    between atoms: C_21  and  C_22
REMARK                            x       y       z     vdW  Elec       q    Type
REMARK                         _______ _______ _______ _____ _____    ______ ____
ROOT
ATOM      1  C   UNL     1       0.334  13.203  19.879  0.00  0.00    +0.000 C 
ATOM      2  C   UNL     1      -1.119  13.121  19.466  0.00  0.00    +0.000 C 
ATOM      3  C   UNL     1      -1.659  11.979  19.023  0.00  0.00    +0.000 C 
ATOM      4  N   UNL     1      -0.876  10.862  18.881  0.00  0.00    +0.000 N 
ATOM      5  C   UNL     1       0.558  11.051  18.779  0.00  0.00    +0.000 C 
ATOM      6  N   UNL     1       1.181  12.020  19.672  0.00  0.00    +0.000 NA
ATOM      7  H   UNL     1      -1.259  10.143  18.277  0.00  0.00    +0.000 HD
ATOM      8  H   UNL     1       2.056  12.311  19.246  0.00  0.00    +0.000 HD
ENDROOT
BRANCH   3   9
ATOM      9  C   UNL     1      -3.089  11.870  18.721  0.00  0.00    +0.000 A 
ATOM     10  C   UNL     1      -3.501  11.287  17.500  0.00  0.00    +0.000 A 
ATOM     11  C   UNL     1      -4.856  11.195  17.169  0.00  0.00    +0.000 A 
ATOM     12  C   UNL     1      -5.769  11.699  18.069  0.00  0.00    +0.000 A 
ATOM     13  C   UNL     1      -5.375  12.261  19.263  0.00  0.00    +0.000 A 
ATOM     14  C   UNL     1      -4.046  12.356  19.622  0.00  0.00    +0.000 A 
ATOM     15  O   UNL     1      -6.430  12.699  20.001  0.00  0.00    +0.000 OA
ATOM     16  C   UNL     1      -7.526  12.390  19.116  0.00  0.00    +0.000 C 
ATOM     17  O   UNL     1      -7.118  11.717  17.908  0.00  0.00    +0.000 OA
ENDBRANCH   3   9
BRANCH   5  18
ATOM     18  C   UNL     1       1.223   9.688  18.957  0.00  0.00    +0.000 A 
ATOM     19  C   UNL     1       1.923   9.085  17.899  0.00  0.00    +0.000 A 
ATOM     20  C   UNL     1       2.517   7.831  18.062  0.00  0.00    +0.000 A 
ATOM     21  C   UNL     1       2.417   7.169  19.285  0.00  0.00    +0.000 A 
ATOM     22 BR   UNL     1       3.216   5.468  19.498  0.00  0.00    +0.000 Br
ATOM     23  C   UNL     1       1.735   7.750  20.350  0.00  0.00    +0.000 A 
ATOM     24  C   UNL     1       1.143   9.006  20.186  0.00  0.00    +0.000 A 
ENDBRANCH   5  18
BRANCH   1  30
ATOM     25  C   UNL     1       2.340  14.823  19.539  0.00  0.00    +0.000 A 
ATOM     26  C   UNL     1       2.845  16.042  19.068  0.00  0.00    +0.000 A 
ATOM     27  C   UNL     1       1.988  16.985  18.500  0.00  0.00    +0.000 A 
ATOM     28  C   UNL     1       0.627  16.716  18.408  0.00  0.00    +0.000 A 
ATOM     29  C   UNL     1       0.128  15.502  18.882  0.00  0.00    +0.000 A 
ATOM     30  C   UNL     1       0.971  14.528  19.458  0.00  0.00    +0.000 A 
BRANCH  25  31
ATOM     31  O   UNL     1       3.202  13.918  20.091  0.00  0.00    +0.000 OA
ATOM     32  H   UNL     1       3.830  13.635  19.405  0.00  0.00    +0.000 HD
ENDBRANCH  25  31
ENDBRANCH   1  30
TORSDOF 4
ENDMDL
