MODEL 1
REMARK VINA RESULT:      -8.2      0.000      0.000
REMARK  Name = 
REMARK  8 active torsions:
REMARK  status: ('A' for Active; 'I' for Inactive)
REMARK    1  A    between atoms: N_1  and  C_2
REMARK    2  A    between atoms: C_2  and  C_3
REMARK    3  A    between atoms: C_3  and  C_4
REMARK    4  A    between atoms: C_4  and  N_5
REMARK    5  A    between atoms: C_11  and  N_12
REMARK    6  A    between atoms: N_12  and  C_13
REMARK    7  A    between atoms: C_13  and  C_14
REMARK    8  A    between atoms: C_14  and  O_16
REMARK                            x       y       z     vdW  Elec       q    Type
REMARK                         _______ _______ _______ _____ _____    ______ ____
ROOT
ATOM      1  N   UNL     1       3.176   4.777  19.668  0.00  0.00    +0.000 N 
ATOM      2  C   UNL     1       2.823   6.076  19.283  0.00  0.00    +0.000 A 
ATOM      3  C   UNL     1       3.330   6.603  18.152  0.00  0.00    +0.000 A 
ATOM      4  C   UNL     1       4.196   5.869  17.247  0.00  0.00    +0.000 A 
ATOM      5  C   UNL     1       4.588   6.385  16.010  0.00  0.00    +0.000 A 
ATOM      6  C   UNL     1       5.418   5.655  15.158  0.00  0.00    +0.000 A 
ATOM      7  C   UNL     1       5.927   4.409  15.528  0.00  0.00    +0.000 A 
ATOM      8  C   UNL     1       5.485   3.863  16.751  0.00  0.00    +0.000 A 
ATOM      9  C   UNL     1       4.612   4.587  17.605  0.00  0.00    +0.000 A 
ATOM     10  C   UNL     1       4.058   3.988  18.866  0.00  0.00    +0.000 A 
ATOM     11  O   UNL     1       4.380   2.836  19.148  0.00  0.00    +0.000 OA
ATOM     12  C   UNL     1       2.872   8.001  18.021  0.00  0.00    +0.000 C 
ATOM     13  O   UNL     1       3.151   8.805  17.158  0.00  0.00    +0.000 OA
ATOM     14  C   UNL     1       2.005   8.253  19.147  0.00  0.00    +0.000 A 
ATOM     15  C   UNL     1       1.333   9.440  19.402  0.00  0.00    +0.000 A 
ATOM     16  C   UNL     1       0.503   9.468  20.507  0.00  0.00    +0.000 A 
ATOM     17  C   UNL     1       0.366   8.324  21.299  0.00  0.00    +0.000 A 
ATOM     18  C   UNL     1       1.075   7.138  21.004  0.00  0.00    +0.000 A 
ATOM     19  C   UNL     1       1.935   7.085  19.913  0.00  0.00    +0.000 A 
ENDROOT
BRANCH   7  20
ATOM     20  N   UNL     1       6.650   3.712  14.534  0.00  0.00    +0.000 N 
ATOM     21  H   UNL     1       7.622   3.681  14.859  0.00  0.00    +0.000 HD
BRANCH  20  22
ATOM     22  C   UNL     1       6.581   4.234  13.149  0.00  0.00    +0.000 C 
BRANCH  22  23
ATOM     23  C   UNL     1       5.817   3.250  12.259  0.00  0.00    +0.000 C 
ATOM     24  O   UNL     1       4.666   3.407  11.879  0.00  0.00    +0.000 OA
BRANCH  23  25
ATOM     25  O   UNL     1       6.547   2.147  11.945  0.00  0.00    +0.000 OA
ATOM     26  H   UNL     1       6.720   2.125  10.979  0.00  0.00    +0.000 HD
ENDBRANCH  23  25
ENDBRANCH  22  23
ENDBRANCH  20  22
ENDBRANCH   7  20
BRANCH   1  27
ATOM     27  C   UNL     1       2.660   4.141  20.884  0.00  0.00    +0.000 C 
BRANCH  27  28
ATOM     28  C   UNL     1       1.230   3.583  20.799  0.00  0.00    +0.000 C 
BRANCH  28  29
ATOM     29  C   UNL     1       0.855   2.973  19.453  0.00  0.00    +0.000 C 
BRANCH  29  30
ATOM     30  N   UNL     1       1.548   1.712  19.205  0.00  0.00    +0.000 NA
ATOM     31  H   UNL     1       1.622   1.571  18.197  0.00  0.00    +0.000 HD
ATOM     32  H   UNL     1       0.980   0.938  19.550  0.00  0.00    +0.000 HD
ENDBRANCH  29  30
ENDBRANCH  28  29
ENDBRANCH  27  28
ENDBRANCH   1  27
TORSDOF 8
ENDMDL
MODEL 2
REMARK VINA RESULT:      -8.0      1.105      1.219
REMARK  Name = 
REMARK  8 active torsions:
REMARK  status: ('A' for Active; 'I' for Inactive)
REMARK    1  A    between atoms: N_1  and  C_2
REMARK    2  A    between atoms: C_2  and  C_3
REMARK    3  A    between atoms: C_3  and  C_4
REMARK    4  A    between atoms: C_4  and  N_5
REMARK    5  A    between atoms: C_11  and  N_12
REMARK    6  A    between atoms: N_12  and  C_13
REMARK    7  A    between atoms: C_13  and  C_14
REMARK    8  A    between atoms: C_14  and  O_16
REMARK                            x       y       z     vdW  Elec       q    Type
REMARK                         _______ _______ _______ _____ _____    ______ ____
ROOT
ATOM      1  N   UNL     1       2.942   5.072  20.121  0.00  0.00    +0.000 N 
ATOM      2  C   UNL     1       2.545   6.339  19.679  0.00  0.00    +0.000 A 
ATOM      3  C   UNL     1       3.084   6.861  18.561  0.00  0.00    +0.000 A 
ATOM      4  C   UNL     1       4.036   6.151  17.727  0.00  0.00    +0.000 A 
ATOM      5  C   UNL     1       4.469   6.654  16.498  0.00  0.00    +0.000 A 
ATOM      6  C   UNL     1       5.381   5.948  15.714  0.00  0.00    +0.000 A 
ATOM      7  C   UNL     1       5.933   4.741  16.147  0.00  0.00    +0.000 A 
ATOM      8  C   UNL     1       5.453   4.205  17.360  0.00  0.00    +0.000 A 
ATOM      9  C   UNL     1       4.498   4.904  18.145  0.00  0.00    +0.000 A 
ATOM     10  C   UNL     1       3.907   4.310  19.391  0.00  0.00    +0.000 A 
ATOM     11  O   UNL     1       4.272   3.184  19.724  0.00  0.00    +0.000 OA
ATOM     12  C   UNL     1       2.563   8.229  18.365  0.00  0.00    +0.000 C 
ATOM     13  O   UNL     1       2.847   9.024  17.494  0.00  0.00    +0.000 OA
ATOM     14  C   UNL     1       1.623   8.464  19.435  0.00  0.00    +0.000 A 
ATOM     15  C   UNL     1       0.877   9.620  19.618  0.00  0.00    +0.000 A 
ATOM     16  C   UNL     1      -0.013   9.633  20.675  0.00  0.00    +0.000 A 
ATOM     17  C   UNL     1      -0.134   8.505  21.493  0.00  0.00    +0.000 A 
ATOM     18  C   UNL     1       0.651   7.352  21.272  0.00  0.00    +0.000 A 
ATOM     19  C   UNL     1       1.571   7.316  20.230  0.00  0.00    +0.000 A 
ENDROOT
BRANCH   7  20
ATOM     20  N   UNL     1       6.745   4.057  15.215  0.00  0.00    +0.000 N 
ATOM     21  H   UNL     1       7.698   4.407  15.357  0.00  0.00    +0.000 HD
BRANCH  20  22
ATOM     22  C   UNL     1       6.366   4.149  13.785  0.00  0.00    +0.000 C 
BRANCH  22  23
ATOM     23  C   UNL     1       7.459   4.883  13.002  0.00  0.00    +0.000 C 
ATOM     24  O   UNL     1       8.225   5.704  13.485  0.00  0.00    +0.000 OA
BRANCH  23  25
ATOM     25  O   UNL     1       7.480   4.547  11.685  0.00  0.00    +0.000 OA
ATOM     26  H   UNL     1       7.773   3.615  11.584  0.00  0.00    +0.000 HD
ENDBRANCH  23  25
ENDBRANCH  22  23
ENDBRANCH  20  22
ENDBRANCH   7  20
BRANCH   1  27
ATOM     27  C   UNL     1       2.394   4.442  21.326  0.00  0.00    +0.000 C 
BRANCH  27  28
ATOM     28  C   UNL     1       1.400   3.292  21.093  0.00  0.00    +0.000 C 
BRANCH  28  29
ATOM     29  C   UNL     1       0.838   3.201  19.678  0.00  0.00    +0.000 C 
BRANCH  29  30
ATOM     30  N   UNL     1       1.322   2.021  18.968  0.00  0.00    +0.000 NA
ATOM     31  H   UNL     1       0.518   1.498  18.616  0.00  0.00    +0.000 HD
ATOM     32  H   UNL     1       1.789   1.396  19.625  0.00  0.00    +0.000 HD
ENDBRANCH  29  30
ENDBRANCH  28  29
ENDBRANCH  27  28
ENDBRANCH   1  27
TORSDOF 8
ENDMDL
MODEL 3
REMARK VINA RESULT:      -8.0      1.124      1.240
REMARK  Name = 
REMARK  8 active torsions:
REMARK  status: ('A' for Active; 'I' for Inactive)
REMARK    1  A    between atoms: N_1  and  C_2
REMARK    2  A    between atoms: C_2  and  C_3
REMARK    3  A    between atoms: C_3  and  C_4
REMARK    4  A    between atoms: C_4  and  N_5
REMARK    5  A    between atoms: C_11  and  N_12
REMARK    6  A    between atoms: N_12  and  C_13
REMARK    7  A    between atoms: C_13  and  C_14
REMARK    8  A    between atoms: C_14  and  O_16
REMARK                            x       y       z     vdW  Elec       q    Type
REMARK                         _______ _______ _______ _____ _____    ______ ____
ROOT
ATOM      1  N   UNL     1       2.944   5.592  19.891  0.00  0.00    +0.000 N 
ATOM      2  C   UNL     1       2.486   6.849  19.481  0.00  0.00    +0.000 A 
ATOM      3  C   UNL     1       2.972   7.409  18.358  0.00  0.00    +0.000 A 
ATOM      4  C   UNL     1       3.925   6.748  17.485  0.00  0.00    +0.000 A 
ATOM      5  C   UNL     1       4.302   7.286  16.252  0.00  0.00    +0.000 A 
ATOM      6  C   UNL     1       5.216   6.627  15.431  0.00  0.00    +0.000 A 
ATOM      7  C   UNL     1       5.827   5.436  15.828  0.00  0.00    +0.000 A 
ATOM      8  C   UNL     1       5.404   4.864  17.046  0.00  0.00    +0.000 A 
ATOM      9  C   UNL     1       4.446   5.514  17.869  0.00  0.00    +0.000 A 
ATOM     10  C   UNL     1       3.915   4.879  19.122  0.00  0.00    +0.000 A 
ATOM     11  O   UNL     1       4.333   3.763  19.426  0.00  0.00    +0.000 OA
ATOM     12  C   UNL     1       2.393   8.758  18.198  0.00  0.00    +0.000 C 
ATOM     13  O   UNL     1       2.621   9.576  17.333  0.00  0.00    +0.000 OA
ATOM     14  C   UNL     1       1.477   8.941  19.298  0.00  0.00    +0.000 A 
ATOM     15  C   UNL     1       0.693  10.064  19.522  0.00  0.00    +0.000 A 
ATOM     16  C   UNL     1      -0.165  10.027  20.605  0.00  0.00    +0.000 A 
ATOM     17  C   UNL     1      -0.219   8.883  21.407  0.00  0.00    +0.000 A 
ATOM     18  C   UNL     1       0.603   7.764  21.145  0.00  0.00    +0.000 A 
ATOM     19  C   UNL     1       1.492   7.779  20.077  0.00  0.00    +0.000 A 
ENDROOT
BRANCH   7  20
ATOM     20  N   UNL     1       6.636   4.798  14.862  0.00  0.00    +0.000 N 
ATOM     21  H   UNL     1       6.904   5.525  14.190  0.00  0.00    +0.000 HD
BRANCH  20  22
ATOM     22  C   UNL     1       6.062   3.627  14.158  0.00  0.00    +0.000 C 
BRANCH  22  23
ATOM     23  C   UNL     1       6.531   3.614  12.700  0.00  0.00    +0.000 C 
ATOM     24  O   UNL     1       7.226   4.479  12.187  0.00  0.00    +0.000 OA
BRANCH  23  25
ATOM     25  O   UNL     1       6.070   2.538  12.008  0.00  0.00    +0.000 OA
ATOM     26  H   UNL     1       5.115   2.655  11.808  0.00  0.00    +0.000 HD
ENDBRANCH  23  25
ENDBRANCH  22  23
ENDBRANCH  20  22
ENDBRANCH   7  20
BRANCH   1  27
ATOM     27  C   UNL     1       2.456   4.923  21.101  0.00  0.00    +0.000 C 
BRANCH  27  28
ATOM     28  C   UNL     1       1.269   3.964  20.910  0.00  0.00    +0.000 C 
BRANCH  28  29
ATOM     29  C   UNL     1       1.486   2.554  21.449  0.00  0.00    +0.000 C 
BRANCH  29  30
ATOM     30  N   UNL     1       2.862   2.334  21.883  0.00  0.00    +0.000 NA
ATOM     31  H   UNL     1       2.853   1.745  22.716  0.00  0.00    +0.000 HD
ATOM     32  H   UNL     1       3.272   3.220  22.178  0.00  0.00    +0.000 HD
ENDBRANCH  29  30
ENDBRANCH  28  29
ENDBRANCH  27  28
ENDBRANCH   1  27
TORSDOF 8
ENDMDL
MODEL 4
REMARK VINA RESULT:      -7.0      2.607      7.382
REMARK  Name = 
REMARK  8 active torsions:
REMARK  status: ('A' for Active; 'I' for Inactive)
REMARK    1  A    between atoms: N_1  and  C_2
REMARK    2  A    between atoms: C_2  and  C_3
REMARK    3  A    between atoms: C_3  and  C_4
REMARK    4  A    between atoms: C_4  and  N_5
REMARK    5  A    between atoms: C_11  and  N_12
REMARK    6  A    between atoms: N_12  and  C_13
REMARK    7  A    between atoms: C_13  and  C_14
REMARK    8  A    between atoms: C_14  and  O_16
REMARK                            x       y       z     vdW  Elec       q    Type
REMARK                         _______ _______ _______ _____ _____    ______ ____
ROOT
ATOM      1  N   UNL     1       3.515   4.309  19.465  0.00  0.00    +0.000 N 
ATOM      2  C   UNL     1       3.911   5.113  18.390  0.00  0.00    +0.000 A 
ATOM      3  C   UNL     1       3.400   6.352  18.253  0.00  0.00    +0.000 A 
ATOM      4  C   UNL     1       2.484   6.948  19.207  0.00  0.00    +0.000 A 
ATOM      5  C   UNL     1       2.085   8.284  19.121  0.00  0.00    +0.000 A 
ATOM      6  C   UNL     1       1.207   8.833  20.056  0.00  0.00    +0.000 A 
ATOM      7  C   UNL     1       0.656   8.060  21.080  0.00  0.00    +0.000 A 
ATOM      8  C   UNL     1       1.103   6.728  21.201  0.00  0.00    +0.000 A 
ATOM      9  C   UNL     1       2.025   6.175  20.273  0.00  0.00    +0.000 A 
ATOM     10  C   UNL     1       2.583   4.791  20.437  0.00  0.00    +0.000 A 
ATOM     11  O   UNL     1       2.221   4.133  21.410  0.00  0.00    +0.000 OA
ATOM     12  C   UNL     1       3.912   6.951  17.003  0.00  0.00    +0.000 C 
ATOM     13  O   UNL     1       3.646   8.033  16.525  0.00  0.00    +0.000 OA
ATOM     14  C   UNL     1       4.814   5.983  16.427  0.00  0.00    +0.000 A 
ATOM     15  C   UNL     1       5.540   6.149  15.255  0.00  0.00    +0.000 A 
ATOM     16  C   UNL     1       6.395   5.125  14.895  0.00  0.00    +0.000 A 
ATOM     17  C   UNL     1       6.503   3.994  15.710  0.00  0.00    +0.000 A 
ATOM     18  C   UNL     1       5.740   3.866  16.892  0.00  0.00    +0.000 A 
ATOM     19  C   UNL     1       4.854   4.868  17.270  0.00  0.00    +0.000 A 
ENDROOT
BRANCH   7  20
ATOM     20  N   UNL     1      -0.117   8.754  22.037  0.00  0.00    +0.000 N 
ATOM     21  H   UNL     1      -1.045   8.875  21.619  0.00  0.00    +0.000 HD
BRANCH  20  22
ATOM     22  C   UNL     1       0.406  10.052  22.524  0.00  0.00    +0.000 C 
BRANCH  22  23
ATOM     23  C   UNL     1      -0.678  11.128  22.405  0.00  0.00    +0.000 C 
ATOM     24  O   UNL     1      -1.149  11.745  23.349  0.00  0.00    +0.000 OA
BRANCH  23  25
ATOM     25  O   UNL     1      -1.095  11.316  21.125  0.00  0.00    +0.000 OA
ATOM     26  H   UNL     1      -0.925  12.245  20.853  0.00  0.00    +0.000 HD
ENDBRANCH  23  25
ENDBRANCH  22  23
ENDBRANCH  20  22
ENDBRANCH   7  20
BRANCH   1  27
ATOM     27  C   UNL     1       4.032   2.954  19.677  0.00  0.00    +0.000 C 
BRANCH  27  28
ATOM     28  C   UNL     1       3.313   1.831  18.912  0.00  0.00    +0.000 C 
BRANCH  28  29
ATOM     29  C   UNL     1       2.246   2.300  17.929  0.00  0.00    +0.000 C 
BRANCH  29  30
ATOM     30  N   UNL     1       0.895   2.012  18.403  0.00  0.00    +0.000 NA
ATOM     31  H   UNL     1       0.954   1.355  19.182  0.00  0.00    +0.000 HD
ATOM     32  H   UNL     1       0.375   1.524  17.673  0.00  0.00    +0.000 HD
ENDBRANCH  29  30
ENDBRANCH  28  29
ENDBRANCH  27  28
ENDBRANCH   1  27
TORSDOF 8
ENDMDL
MODEL 5
REMARK VINA RESULT:      -7.0      3.590      6.984
REMARK  Name = 
REMARK  8 active torsions:
REMARK  status: ('A' for Active; 'I' for Inactive)
REMARK    1  A    between atoms: N_1  and  C_2
REMARK    2  A    between atoms: C_2  and  C_3
REMARK    3  A    between atoms: C_3  and  C_4
REMARK    4  A    between atoms: C_4  and  N_5
REMARK    5  A    between atoms: C_11  and  N_12
REMARK    6  A    between atoms: N_12  and  C_13
REMARK    7  A    between atoms: C_13  and  C_14
REMARK    8  A    between atoms: C_14  and  O_16
REMARK                            x       y       z     vdW  Elec       q    Type
REMARK                         _______ _______ _______ _____ _____    ______ ____
ROOT
ATOM      1  N   UNL     1       1.164  11.247  19.071  0.00  0.00    +0.000 N 
ATOM      2  C   UNL     1       0.490  10.959  20.264  0.00  0.00    +0.000 A 
ATOM      3  C   UNL     1       0.496   9.705  20.754  0.00  0.00    +0.000 A 
ATOM      4  C   UNL     1       1.225   8.611  20.138  0.00  0.00    +0.000 A 
ATOM      5  C   UNL     1       1.336   7.357  20.744  0.00  0.00    +0.000 A 
ATOM      6  C   UNL     1       2.048   6.325  20.133  0.00  0.00    +0.000 A 
ATOM      7  C   UNL     1       2.632   6.488  18.875  0.00  0.00    +0.000 A 
ATOM      8  C   UNL     1       2.570   7.770  18.291  0.00  0.00    +0.000 A 
ATOM      9  C   UNL     1       1.877   8.834  18.926  0.00  0.00    +0.000 A 
ATOM     10  C   UNL     1       1.877  10.227  18.367  0.00  0.00    +0.000 A 
ATOM     11  O   UNL     1       2.502  10.433  17.328  0.00  0.00    +0.000 OA
ATOM     12  C   UNL     1      -0.349   9.653  21.963  0.00  0.00    +0.000 C 
ATOM     13  O   UNL     1      -0.617   8.692  22.652  0.00  0.00    +0.000 OA
ATOM     14  C   UNL     1      -0.823  10.998  22.187  0.00  0.00    +0.000 A 
ATOM     15  C   UNL     1      -1.632  11.408  23.238  0.00  0.00    +0.000 A 
ATOM     16  C   UNL     1      -1.935  12.754  23.311  0.00  0.00    +0.000 A 
ATOM     17  C   UNL     1      -1.419  13.632  22.353  0.00  0.00    +0.000 A 
ATOM     18  C   UNL     1      -0.604  13.169  21.296  0.00  0.00    +0.000 A 
ATOM     19  C   UNL     1      -0.300  11.818  21.183  0.00  0.00    +0.000 A 
ENDROOT
BRANCH   7  20
ATOM     20  N   UNL     1       3.432   5.417  18.416  0.00  0.00    +0.000 N 
ATOM     21  H   UNL     1       3.105   5.204  17.469  0.00  0.00    +0.000 HD
BRANCH  20  22
ATOM     22  C   UNL     1       3.465   4.188  19.244  0.00  0.00    +0.000 C 
BRANCH  22  23
ATOM     23  C   UNL     1       4.889   3.628  19.288  0.00  0.00    +0.000 C 
ATOM     24  O   UNL     1       5.894   4.263  19.005  0.00  0.00    +0.000 OA
BRANCH  23  25
ATOM     25  O   UNL     1       4.929   2.319  19.655  0.00  0.00    +0.000 OA
ATOM     26  H   UNL     1       4.480   1.769  18.976  0.00  0.00    +0.000 HD
ENDBRANCH  23  25
ENDBRANCH  22  23
ENDBRANCH  20  22
ENDBRANCH   7  20
BRANCH   1  27
ATOM     27  C   UNL     1       1.201  12.590  18.483  0.00  0.00    +0.000 C 
BRANCH  27  28
ATOM     28  C   UNL     1       2.286  13.534  19.027  0.00  0.00    +0.000 C 
BRANCH  28  29
ATOM     29  C   UNL     1       2.852  14.520  18.011  0.00  0.00    +0.000 C 
BRANCH  29  30
ATOM     30  N   UNL     1       4.277  14.311  17.772  0.00  0.00    +0.000 NA
ATOM     31  H   UNL     1       4.475  14.494  16.788  0.00  0.00    +0.000 HD
ATOM     32  H   UNL     1       4.506  13.328  17.920  0.00  0.00    +0.000 HD
ENDBRANCH  29  30
ENDBRANCH  28  29
ENDBRANCH  27  28
ENDBRANCH   1  27
TORSDOF 8
ENDMDL
MODEL 6
REMARK VINA RESULT:      -6.9      7.740      9.437
REMARK  Name = 
REMARK  8 active torsions:
REMARK  status: ('A' for Active; 'I' for Inactive)
REMARK    1  A    between atoms: N_1  and  C_2
REMARK    2  A    between atoms: C_2  and  C_3
REMARK    3  A    between atoms: C_3  and  C_4
REMARK    4  A    between atoms: C_4  and  N_5
REMARK    5  A    between atoms: C_11  and  N_12
REMARK    6  A    between atoms: N_12  and  C_13
REMARK    7  A    between atoms: C_13  and  C_14
REMARK    8  A    between atoms: C_14  and  O_16
REMARK                            x       y       z     vdW  Elec       q    Type
REMARK                         _______ _______ _______ _____ _____    ______ ____
ROOT
ATOM      1  N   UNL     1      -1.285  11.765  20.378  0.00  0.00    +0.000 N 
ATOM      2  C   UNL     1      -2.577  12.207  20.687  0.00  0.00    +0.000 A 
ATOM      3  C   UNL     1      -3.537  12.192  19.743  0.00  0.00    +0.000 A 
ATOM      4  C   UNL     1      -3.329  11.678  18.402  0.00  0.00    +0.000 A 
ATOM      5  C   UNL     1      -4.376  11.537  17.488  0.00  0.00    +0.000 A 
ATOM      6  C   UNL     1      -4.149  11.035  16.207  0.00  0.00    +0.000 A 
ATOM      7  C   UNL     1      -2.865  10.701  15.772  0.00  0.00    +0.000 A 
ATOM      8  C   UNL     1      -1.818  10.788  16.712  0.00  0.00    +0.000 A 
ATOM      9  C   UNL     1      -2.050  11.266  18.029  0.00  0.00    +0.000 A 
ATOM     10  C   UNL     1      -0.969  11.279  19.071  0.00  0.00    +0.000 A 
ATOM     11  O   UNL     1       0.143  10.859  18.756  0.00  0.00    +0.000 OA
ATOM     12  C   UNL     1      -4.771  12.783  20.297  0.00  0.00    +0.000 C 
ATOM     13  O   UNL     1      -5.829  12.975  19.737  0.00  0.00    +0.000 OA
ATOM     14  C   UNL     1      -4.485  13.108  21.674  0.00  0.00    +0.000 A 
ATOM     15  C   UNL     1      -5.380  13.661  22.579  0.00  0.00    +0.000 A 
ATOM     16  C   UNL     1      -4.932  13.849  23.873  0.00  0.00    +0.000 A 
ATOM     17  C   UNL     1      -3.629  13.473  24.215  0.00  0.00    +0.000 A 
ATOM     18  C   UNL     1      -2.750  12.918  23.259  0.00  0.00    +0.000 A 
ATOM     19  C   UNL     1      -3.164  12.737  21.944  0.00  0.00    +0.000 A 
ENDROOT
BRANCH   7  20
ATOM     20  N   UNL     1      -2.777  10.085  14.504  0.00  0.00    +0.000 N 
ATOM     21  H   UNL     1      -2.018  10.564  14.007  0.00  0.00    +0.000 HD
BRANCH  20  22
ATOM     22  C   UNL     1      -4.005  10.058  13.673  0.00  0.00    +0.000 C 
BRANCH  22  23
ATOM     23  C   UNL     1      -3.653   9.656  12.238  0.00  0.00    +0.000 C 
ATOM     24  O   UNL     1      -4.473   9.417  11.364  0.00  0.00    +0.000 OA
BRANCH  23  25
ATOM     25  O   UNL     1      -2.313   9.563  12.030  0.00  0.00    +0.000 OA
ATOM     26  H   UNL     1      -2.139   9.133  11.164  0.00  0.00    +0.000 HD
ENDBRANCH  23  25
ENDBRANCH  22  23
ENDBRANCH  20  22
ENDBRANCH   7  20
BRANCH   1  27
ATOM     27  C   UNL     1      -0.194  11.751  21.358  0.00  0.00    +0.000 C 
BRANCH  27  28
ATOM     28  C   UNL     1       0.276  10.363  21.823  0.00  0.00    +0.000 C 
BRANCH  28  29
ATOM     29  C   UNL     1      -0.558   9.738  22.936  0.00  0.00    +0.000 C 
BRANCH  29  30
ATOM     30  N   UNL     1       0.212   9.545  24.161  0.00  0.00    +0.000 NA
ATOM     31  H   UNL     1      -0.197  10.121  24.899  0.00  0.00    +0.000 HD
ATOM     32  H   UNL     1       1.158   9.901  24.028  0.00  0.00    +0.000 HD
ENDBRANCH  29  30
ENDBRANCH  28  29
ENDBRANCH  27  28
ENDBRANCH   1  27
TORSDOF 8
ENDMDL
MODEL 7
REMARK VINA RESULT:      -6.9      1.323      1.511
REMARK  Name = 
REMARK  8 active torsions:
REMARK  status: ('A' for Active; 'I' for Inactive)
REMARK    1  A    between atoms: N_1  and  C_2
REMARK    2  A    between atoms: C_2  and  C_3
REMARK    3  A    between atoms: C_3  and  C_4
REMARK    4  A    between atoms: C_4  and  N_5
REMARK    5  A    between atoms: C_11  and  N_12
REMARK    6  A    between atoms: N_12  and  C_13
REMARK    7  A    between atoms: C_13  and  C_14
REMARK    8  A    between atoms: C_14  and  O_16
REMARK                            x       y       z     vdW  Elec       q    Type
REMARK                         _______ _______ _______ _____ _____    ______ ____
ROOT
ATOM      1  N   UNL     1       3.045   3.735  18.761  0.00  0.00    +0.000 N 
ATOM      2  C   UNL     1       2.935   5.130  18.728  0.00  0.00    +0.000 A 
ATOM      3  C   UNL     1       3.607   5.836  17.800  0.00  0.00    +0.000 A 
ATOM      4  C   UNL     1       4.416   5.224  16.762  0.00  0.00    +0.000 A 
ATOM      5  C   UNL     1       4.983   5.968  15.725  0.00  0.00    +0.000 A 
ATOM      6  C   UNL     1       5.753   5.353  14.737  0.00  0.00    +0.000 A 
ATOM      7  C   UNL     1       6.027   3.985  14.775  0.00  0.00    +0.000 A 
ATOM      8  C   UNL     1       5.408   3.225  15.788  0.00  0.00    +0.000 A 
ATOM      9  C   UNL     1       4.594   3.842  16.775  0.00  0.00    +0.000 A 
ATOM     10  C   UNL     1       3.853   3.041  17.807  0.00  0.00    +0.000 A 
ATOM     11  O   UNL     1       3.965   1.817  17.778  0.00  0.00    +0.000 OA
ATOM     12  C   UNL     1       3.388   7.278  18.036  0.00  0.00    +0.000 C 
ATOM     13  O   UNL     1       3.860   8.218  17.432  0.00  0.00    +0.000 OA
ATOM     14  C   UNL     1       2.484   7.375  19.157  0.00  0.00    +0.000 A 
ATOM     15  C   UNL     1       1.990   8.553  19.699  0.00  0.00    +0.000 A 
ATOM     16  C   UNL     1       1.089   8.436  20.741  0.00  0.00    +0.000 A 
ATOM     17  C   UNL     1       0.710   7.167  21.189  0.00  0.00    +0.000 A 
ATOM     18  C   UNL     1       1.244   5.994  20.610  0.00  0.00    +0.000 A 
ATOM     19  C   UNL     1       2.169   6.079  19.576  0.00  0.00    +0.000 A 
ENDROOT
BRANCH   7  20
ATOM     20  N   UNL     1       6.708   3.455  13.655  0.00  0.00    +0.000 N 
ATOM     21  H   UNL     1       7.697   3.693  13.786  0.00  0.00    +0.000 HD
BRANCH  20  22
ATOM     22  C   UNL     1       6.245   3.880  12.313  0.00  0.00    +0.000 C 
BRANCH  22  23
ATOM     23  C   UNL     1       5.286   2.833  11.738  0.00  0.00    +0.000 C 
ATOM     24  O   UNL     1       4.133   3.059  11.400  0.00  0.00    +0.000 OA
BRANCH  23  25
ATOM     25  O   UNL     1       5.841   1.594  11.664  0.00  0.00    +0.000 OA
ATOM     26  H   UNL     1       5.161   0.939  11.392  0.00  0.00    +0.000 HD
ENDBRANCH  23  25
ENDBRANCH  22  23
ENDBRANCH  20  22
ENDBRANCH   7  20
BRANCH   1  27
ATOM     27  C   UNL     1       2.339   2.904  19.741  0.00  0.00    +0.000 C 
BRANCH  27  28
ATOM     28  C   UNL     1       2.987   2.805  21.131  0.00  0.00    +0.000 C 
BRANCH  28  29
ATOM     29  C   UNL     1       3.927   1.619  21.322  0.00  0.00    +0.000 C 
BRANCH  29  30
ATOM     30  N   UNL     1       5.160   1.763  20.554  0.00  0.00    +0.000 NA
ATOM     31  H   UNL     1       5.284   0.930  19.976  0.00  0.00    +0.000 HD
ATOM     32  H   UNL     1       5.957   1.777  21.190  0.00  0.00    +0.000 HD
ENDBRANCH  29  30
ENDBRANCH  28  29
ENDBRANCH  27  28
ENDBRANCH   1  27
TORSDOF 8
ENDMDL
MODEL 8
REMARK VINA RESULT:      -6.8      6.288      9.089
REMARK  Name = 
REMARK  8 active torsions:
REMARK  status: ('A' for Active; 'I' for Inactive)
REMARK    1  A    between atoms: N_1  and  C_2
REMARK    2  A    between atoms: C_2  and  C_3
REMARK    3  A    between atoms: C_3  and  C_4
REMARK    4  A    between atoms: C_4  and  N_5
REMARK    5  A    between atoms: C_11  and  N_12
REMARK    6  A    between atoms: N_12  and  C_13
REMARK    7  A    between atoms: C_13  and  C_14
REMARK    8  A    between atoms: C_14  and  O_16
REMARK                            x       y       z     vdW  Elec       q    Type
REMARK                         _______ _______ _______ _____ _____    ______ ____
ROOT
ATOM      1  N   UNL     1      -0.731  11.039  19.606  0.00  0.00    +0.000 N 
ATOM      2  C   UNL     1      -1.681  11.888  20.185  0.00  0.00    +0.000 A 
ATOM      3  C   UNL     1      -2.823  12.168  19.527  0.00  0.00    +0.000 A 
ATOM      4  C   UNL     1      -3.170  11.582  18.246  0.00  0.00    +0.000 A 
ATOM      5  C   UNL     1      -4.421  11.773  17.655  0.00  0.00    +0.000 A 
ATOM      6  C   UNL     1      -4.730  11.194  16.424  0.00  0.00    +0.000 A 
ATOM      7  C   UNL     1      -3.788  10.446  15.714  0.00  0.00    +0.000 A 
ATOM      8  C   UNL     1      -2.546  10.206  16.336  0.00  0.00    +0.000 A 
ATOM      9  C   UNL     1      -2.240  10.764  17.606  0.00  0.00    +0.000 A 
ATOM     10  C   UNL     1      -0.961  10.445  18.325  0.00  0.00    +0.000 A 
ATOM     11  O   UNL     1      -0.170   9.676  17.784  0.00  0.00    +0.000 OA
ATOM     12  C   UNL     1      -3.606  13.144  20.311  0.00  0.00    +0.000 C 
ATOM     13  O   UNL     1      -4.665  13.661  20.024  0.00  0.00    +0.000 OA
ATOM     14  C   UNL     1      -2.859  13.389  21.521  0.00  0.00    +0.000 A 
ATOM     15  C   UNL     1      -3.247  14.227  22.557  0.00  0.00    +0.000 A 
ATOM     16  C   UNL     1      -2.418  14.287  23.662  0.00  0.00    +0.000 A 
ATOM     17  C   UNL     1      -1.255  13.512  23.697  0.00  0.00    +0.000 A 
ATOM     18  C   UNL     1      -0.897  12.676  22.616  0.00  0.00    +0.000 A 
ATOM     19  C   UNL     1      -1.698  12.611  21.482  0.00  0.00    +0.000 A 
ENDROOT
BRANCH   7  20
ATOM     20  N   UNL     1      -4.256   9.806  14.544  0.00  0.00    +0.000 N 
ATOM     21  H   UNL     1      -4.308   8.807  14.769  0.00  0.00    +0.000 HD
BRANCH  20  22
ATOM     22  C   UNL     1      -3.483  10.017  13.297  0.00  0.00    +0.000 C 
BRANCH  22  23
ATOM     23  C   UNL     1      -4.378   9.764  12.080  0.00  0.00    +0.000 C 
ATOM     24  O   UNL     1      -5.591   9.622  12.129  0.00  0.00    +0.000 OA
BRANCH  23  25
ATOM     25  O   UNL     1      -3.677   9.684  10.918  0.00  0.00    +0.000 OA
ATOM     26  H   UNL     1      -2.716   9.774  11.102  0.00  0.00    +0.000 HD
ENDBRANCH  23  25
ENDBRANCH  22  23
ENDBRANCH  20  22
ENDBRANCH   7  20
BRANCH   1  27
ATOM     27  C   UNL     1       0.531  10.689  20.266  0.00  0.00    +0.000 C 
BRANCH  27  28
ATOM     28  C   UNL     1       0.466   9.531  21.274  0.00  0.00    +0.000 C 
BRANCH  28  29
ATOM     29  C   UNL     1       1.436   8.386  21.005  0.00  0.00    +0.000 C 
BRANCH  29  30
ATOM     30  N   UNL     1       1.819   8.305  19.598  0.00  0.00    +0.000 NA
ATOM     31  H   UNL     1       2.277   7.408  19.434  0.00  0.00    +0.000 HD
ATOM     32  H   UNL     1       2.524   9.014  19.397  0.00  0.00    +0.000 HD
ENDBRANCH  29  30
ENDBRANCH  28  29
ENDBRANCH  27  28
ENDBRANCH   1  27
TORSDOF 8
ENDMDL
MODEL 9
REMARK VINA RESULT:      -6.8      3.557      6.786
REMARK  Name = 
REMARK  8 active torsions:
REMARK  status: ('A' for Active; 'I' for Inactive)
REMARK    1  A    between atoms: N_1  and  C_2
REMARK    2  A    between atoms: C_2  and  C_3
REMARK    3  A    between atoms: C_3  and  C_4
REMARK    4  A    between atoms: C_4  and  N_5
REMARK    5  A    between atoms: C_11  and  N_12
REMARK    6  A    between atoms: N_12  and  C_13
REMARK    7  A    between atoms: C_13  and  C_14
REMARK    8  A    between atoms: C_14  and  O_16
REMARK                            x       y       z     vdW  Elec       q    Type
REMARK                         _______ _______ _______ _____ _____    ______ ____
ROOT
ATOM      1  N   UNL     1       0.944  11.340  19.096  0.00  0.00    +0.000 N 
ATOM      2  C   UNL     1       0.348  10.995  20.314  0.00  0.00    +0.000 A 
ATOM      3  C   UNL     1       0.460   9.739  20.786  0.00  0.00    +0.000 A 
ATOM      4  C   UNL     1       1.230   8.703  20.123  0.00  0.00    +0.000 A 
ATOM      5  C   UNL     1       1.452   7.452  20.705  0.00  0.00    +0.000 A 
ATOM      6  C   UNL     1       2.200   6.477  20.047  0.00  0.00    +0.000 A 
ATOM      7  C   UNL     1       2.713   6.692  18.767  0.00  0.00    +0.000 A 
ATOM      8  C   UNL     1       2.539   7.973  18.204  0.00  0.00    +0.000 A 
ATOM      9  C   UNL     1       1.808   8.982  18.885  0.00  0.00    +0.000 A 
ATOM     10  C   UNL     1       1.689  10.378  18.345  0.00  0.00    +0.000 A 
ATOM     11  O   UNL     1       2.250  10.636  17.282  0.00  0.00    +0.000 OA
ATOM     12  C   UNL     1      -0.323   9.618  22.032  0.00  0.00    +0.000 C 
ATOM     13  O   UNL     1      -0.494   8.634  22.719  0.00  0.00    +0.000 OA
ATOM     14  C   UNL     1      -0.874  10.925  22.296  0.00  0.00    +0.000 A 
ATOM     15  C   UNL     1      -1.658  11.269  23.389  0.00  0.00    +0.000 A 
ATOM     16  C   UNL     1      -2.046  12.591  23.494  0.00  0.00    +0.000 A 
ATOM     17  C   UNL     1      -1.634  13.512  22.526  0.00  0.00    +0.000 A 
ATOM     18  C   UNL     1      -0.841  13.116  21.426  0.00  0.00    +0.000 A 
ATOM     19  C   UNL     1      -0.453  11.789  21.280  0.00  0.00    +0.000 A 
ENDROOT
BRANCH   7  20
ATOM     20  N   UNL     1       3.560   5.682  18.257  0.00  0.00    +0.000 N 
ATOM     21  H   UNL     1       3.328   5.592  17.262  0.00  0.00    +0.000 HD
BRANCH  20  22
ATOM     22  C   UNL     1       3.518   4.358  18.922  0.00  0.00    +0.000 C 
BRANCH  22  23
ATOM     23  C   UNL     1       4.941   3.892  19.245  0.00  0.00    +0.000 C 
ATOM     24  O   UNL     1       5.936   4.598  19.172  0.00  0.00    +0.000 OA
BRANCH  23  25
ATOM     25  O   UNL     1       4.997   2.582  19.604  0.00  0.00    +0.000 OA
ATOM     26  H   UNL     1       5.902   2.360  19.915  0.00  0.00    +0.000 HD
ENDBRANCH  23  25
ENDBRANCH  22  23
ENDBRANCH  20  22
ENDBRANCH   7  20
BRANCH   1  27
ATOM     27  C   UNL     1       0.865  12.689  18.525  0.00  0.00    +0.000 C 
BRANCH  27  28
ATOM     28  C   UNL     1      -0.500  13.099  17.950  0.00  0.00    +0.000 C 
BRANCH  28  29
ATOM     29  C   UNL     1      -1.495  11.957  17.774  0.00  0.00    +0.000 C 
BRANCH  29  30
ATOM     30  N   UNL     1      -2.771  12.231  18.428  0.00  0.00    +0.000 NA
ATOM     31  H   UNL     1      -2.778  13.203  18.739  0.00  0.00    +0.000 HD
ATOM     32  H   UNL     1      -2.846  11.670  19.277  0.00  0.00    +0.000 HD
ENDBRANCH  29  30
ENDBRANCH  28  29
ENDBRANCH  27  28
ENDBRANCH   1  27
TORSDOF 8
ENDMDL
