MODEL 1
REMARK VINA RESULT:      -7.4      0.000      0.000
REMARK  Name = 
REMARK  2 active torsions:
REMARK  status: ('A' for Active; 'I' for Inactive)
REMARK    1  A    between atoms: N_3  and  C_4
REMARK    2  A    between atoms: N_10  and  C_11
REMARK                            x       y       z     vdW  Elec       q    Type
REMARK                         _______ _______ _______ _____ _____    ______ ____
ROOT
ATOM      1  O   UNL     1       2.640   7.909  18.194  0.00  0.00    +0.000 OA
ATOM      2  C   UNL     1       2.068   7.732  19.264  0.00  0.00    +0.000 C 
ATOM      3  N   UNL     1       1.349   8.714  19.911  0.00  0.00    +0.000 N 
ATOM      4  N   UNL     1       1.996   6.526  19.912  0.00  0.00    +0.000 N 
ATOM      5  H   UNL     1       1.069   8.563  20.866  0.00  0.00    +0.000 HD
ATOM      6  H   UNL     1       1.809   6.575  20.900  0.00  0.00    +0.000 HD
ENDROOT
BRANCH   4   7
ATOM      7  C   UNL     1       2.550   5.260  19.402  0.00  0.00    +0.000 C 
ATOM      8  C   UNL     1       4.099   5.266  19.369  0.00  0.00    +0.000 C 
ATOM      9  C   UNL     1       4.636   3.897  18.901  0.00  0.00    +0.000 C 
ATOM     10  C   UNL     1       4.154   2.789  19.854  0.00  0.00    +0.000 C 
ATOM     11  C   UNL     1       2.619   2.754  19.883  0.00  0.00    +0.000 C 
ATOM     12  C   UNL     1       2.088   2.470  18.469  0.00  0.00    +0.000 C 
ATOM     13  C   UNL     1       2.566   3.563  17.502  0.00  0.00    +0.000 C 
ATOM     14  C   UNL     1       4.103   3.599  17.490  0.00  0.00    +0.000 C 
ATOM     15  C   UNL     1       2.027   4.924  17.979  0.00  0.00    +0.000 C 
ATOM     16  C   UNL     1       2.099   4.120  20.357  0.00  0.00    +0.000 C 
ENDBRANCH   4   7
BRANCH   3  17
ATOM     17  C   UNL     1       1.201  10.045  19.328  0.00  0.00    +0.000 C 
ATOM     18  C   UNL     1       0.125  10.071  18.230  0.00  0.00    +0.000 C 
ATOM     19  C   UNL     1      -1.301  10.230  18.751  0.00  0.00    +0.000 C 
ATOM     20  C   UNL     1      -1.416  11.419  19.695  0.00  0.00    +0.000 C 
ATOM     21  C   UNL     1      -0.463  11.256  20.872  0.00  0.00    +0.000 C 
ATOM     22  C   UNL     1       0.987  11.116  20.408  0.00  0.00    +0.000 C 
ENDBRANCH   3  17
TORSDOF 2
ENDMDL
MODEL 2
REMARK VINA RESULT:      -7.3      0.146      1.691
REMARK  Name = 
REMARK  2 active torsions:
REMARK  status: ('A' for Active; 'I' for Inactive)
REMARK    1  A    between atoms: N_3  and  C_4
REMARK    2  A    between atoms: N_10  and  C_11
REMARK                            x       y       z     vdW  Elec       q    Type
REMARK                         _______ _______ _______ _____ _____    ______ ____
ROOT
ATOM      1  O   UNL     1       2.766   7.862  18.334  0.00  0.00    +0.000 OA
ATOM      2  C   UNL     1       2.115   7.666  19.355  0.00  0.00    +0.000 C 
ATOM      3  N   UNL     1       1.350   8.638  19.963  0.00  0.00    +0.000 N 
ATOM      4  N   UNL     1       1.994   6.449  19.973  0.00  0.00    +0.000 N 
ATOM      5  H   UNL     1       0.998   8.470  20.892  0.00  0.00    +0.000 HD
ATOM      6  H   UNL     1       1.733   6.481  20.946  0.00  0.00    +0.000 HD
ENDROOT
BRANCH   4   7
ATOM      7  C   UNL     1       2.585   5.192  19.483  0.00  0.00    +0.000 C 
ATOM      8  C   UNL     1       2.182   3.974  20.351  0.00  0.00    +0.000 C 
ATOM      9  C   UNL     1       2.760   2.671  19.759  0.00  0.00    +0.000 C 
ATOM     10  C   UNL     1       2.237   2.467  18.327  0.00  0.00    +0.000 C 
ATOM     11  C   UNL     1       2.645   3.656  17.445  0.00  0.00    +0.000 C 
ATOM     12  C   UNL     1       4.178   3.763  17.412  0.00  0.00    +0.000 C 
ATOM     13  C   UNL     1       4.719   3.961  18.835  0.00  0.00    +0.000 C 
ATOM     14  C   UNL     1       4.293   2.772  19.714  0.00  0.00    +0.000 C 
ATOM     15  C   UNL     1       4.135   5.260  19.417  0.00  0.00    +0.000 C 
ATOM     16  C   UNL     1       2.058   4.944  18.043  0.00  0.00    +0.000 C 
ENDBRANCH   4   7
BRANCH   3  17
ATOM     17  C   UNL     1       1.246   9.979  19.395  0.00  0.00    +0.000 C 
ATOM     18  C   UNL     1       0.261  10.025  18.216  0.00  0.00    +0.000 C 
ATOM     19  C   UNL     1      -1.202  10.174  18.624  0.00  0.00    +0.000 C 
ATOM     20  C   UNL     1      -1.394  11.345  19.578  0.00  0.00    +0.000 C 
ATOM     21  C   UNL     1      -0.538  11.160  20.823  0.00  0.00    +0.000 C 
ATOM     22  C   UNL     1       0.944  11.030  20.475  0.00  0.00    +0.000 C 
ENDBRANCH   3  17
TORSDOF 2
ENDMDL
MODEL 3
REMARK VINA RESULT:      -7.3      0.110      1.674
REMARK  Name = 
REMARK  2 active torsions:
REMARK  status: ('A' for Active; 'I' for Inactive)
REMARK    1  A    between atoms: N_3  and  C_4
REMARK    2  A    between atoms: N_10  and  C_11
REMARK                            x       y       z     vdW  Elec       q    Type
REMARK                         _______ _______ _______ _____ _____    ______ ____
ROOT
ATOM      1  O   UNL     1       2.630   7.854  18.192  0.00  0.00    +0.000 OA
ATOM      2  C   UNL     1       2.072   7.685  19.271  0.00  0.00    +0.000 C 
ATOM      3  N   UNL     1       1.376   8.677  19.928  0.00  0.00    +0.000 N 
ATOM      4  N   UNL     1       1.994   6.481  19.921  0.00  0.00    +0.000 N 
ATOM      5  H   UNL     1       1.109   8.531  20.888  0.00  0.00    +0.000 HD
ATOM      6  H   UNL     1       1.822   6.533  20.912  0.00  0.00    +0.000 HD
ENDROOT
BRANCH   4   7
ATOM      7  C   UNL     1       2.523   5.207  19.404  0.00  0.00    +0.000 C 
ATOM      8  C   UNL     1       2.067   4.928  17.949  0.00  0.00    +0.000 C 
ATOM      9  C   UNL     1       2.705   3.624  17.423  0.00  0.00    +0.000 C 
ATOM     10  C   UNL     1       4.238   3.737  17.460  0.00  0.00    +0.000 C 
ATOM     11  C   UNL     1       4.711   3.993  18.899  0.00  0.00    +0.000 C 
ATOM     12  C   UNL     1       4.268   2.827  19.796  0.00  0.00    +0.000 C 
ATOM     13  C   UNL     1       2.739   2.695  19.766  0.00  0.00    +0.000 C 
ATOM     14  C   UNL     1       2.275   2.452  18.320  0.00  0.00    +0.000 C 
ATOM     15  C   UNL     1       2.114   4.000  20.290  0.00  0.00    +0.000 C 
ATOM     16  C   UNL     1       4.074   5.296  19.407  0.00  0.00    +0.000 C 
ENDBRANCH   4   7
BRANCH   3  17
ATOM     17  C   UNL     1       1.237  10.010  19.347  0.00  0.00    +0.000 C 
ATOM     18  C   UNL     1       0.174  10.040  18.236  0.00  0.00    +0.000 C 
ATOM     19  C   UNL     1      -1.258  10.200  18.740  0.00  0.00    +0.000 C 
ATOM     20  C   UNL     1      -1.382  11.387  19.686  0.00  0.00    +0.000 C 
ATOM     21  C   UNL     1      -0.443  11.219  20.873  0.00  0.00    +0.000 C 
ATOM     22  C   UNL     1       1.012  11.079  20.426  0.00  0.00    +0.000 C 
ENDBRANCH   3  17
TORSDOF 2
ENDMDL
MODEL 4
REMARK VINA RESULT:      -7.0      1.233      1.791
REMARK  Name = 
REMARK  2 active torsions:
REMARK  status: ('A' for Active; 'I' for Inactive)
REMARK    1  A    between atoms: N_3  and  C_4
REMARK    2  A    between atoms: N_10  and  C_11
REMARK                            x       y       z     vdW  Elec       q    Type
REMARK                         _______ _______ _______ _____ _____    ______ ____
ROOT
ATOM      1  O   UNL     1       2.474   8.445  17.194  0.00  0.00    +0.000 OA
ATOM      2  C   UNL     1       2.199   8.234  18.370  0.00  0.00    +0.000 C 
ATOM      3  N   UNL     1       1.367   9.046  19.111  0.00  0.00    +0.000 N 
ATOM      4  N   UNL     1       2.610   7.133  19.075  0.00  0.00    +0.000 N 
ATOM      5  H   UNL     1       1.335   8.928  20.111  0.00  0.00    +0.000 HD
ATOM      6  H   UNL     1       2.614   7.235  20.077  0.00  0.00    +0.000 HD
ENDROOT
BRANCH   4   7
ATOM      7  C   UNL     1       3.397   6.020  18.517  0.00  0.00    +0.000 C 
ATOM      8  C   UNL     1       4.501   6.508  17.545  0.00  0.00    +0.000 C 
ATOM      9  C   UNL     1       5.347   5.318  17.045  0.00  0.00    +0.000 C 
ATOM     10  C   UNL     1       6.004   4.602  18.237  0.00  0.00    +0.000 C 
ATOM     11  C   UNL     1       4.923   4.092  19.202  0.00  0.00    +0.000 C 
ATOM     12  C   UNL     1       4.005   3.105  18.463  0.00  0.00    +0.000 C 
ATOM     13  C   UNL     1       3.346   3.802  17.265  0.00  0.00    +0.000 C 
ATOM     14  C   UNL     1       4.435   4.321  16.312  0.00  0.00    +0.000 C 
ATOM     15  C   UNL     1       2.507   4.987  17.774  0.00  0.00    +0.000 C 
ATOM     16  C   UNL     1       4.093   5.286  19.696  0.00  0.00    +0.000 C 
ENDBRANCH   4   7
BRANCH   3  17
ATOM     17  C   UNL     1       0.727  10.214  18.512  0.00  0.00    +0.000 C 
ATOM     18  C   UNL     1      -0.730  10.369  18.978  0.00  0.00    +0.000 C 
ATOM     19  C   UNL     1      -0.888  11.074  20.323  0.00  0.00    +0.000 C 
ATOM     20  C   UNL     1      -0.135  12.397  20.345  0.00  0.00    +0.000 C 
ATOM     21  C   UNL     1       1.344  12.169  20.065  0.00  0.00    +0.000 C 
ATOM     22  C   UNL     1       1.564  11.486  18.715  0.00  0.00    +0.000 C 
ENDBRANCH   3  17
TORSDOF 2
ENDMDL
MODEL 5
REMARK VINA RESULT:      -7.0      7.185      9.672
REMARK  Name = 
REMARK  2 active torsions:
REMARK  status: ('A' for Active; 'I' for Inactive)
REMARK    1  A    between atoms: N_3  and  C_4
REMARK    2  A    between atoms: N_10  and  C_11
REMARK                            x       y       z     vdW  Elec       q    Type
REMARK                         _______ _______ _______ _____ _____    ______ ____
ROOT
ATOM      1  O   UNL     1       8.775   8.177  19.002  0.00  0.00    +0.000 OA
ATOM      2  C   UNL     1       8.200   8.677  18.041  0.00  0.00    +0.000 C 
ATOM      3  N   UNL     1       7.234   8.020  17.310  0.00  0.00    +0.000 N 
ATOM      4  N   UNL     1       8.378   9.969  17.620  0.00  0.00    +0.000 N 
ATOM      5  H   UNL     1       6.942   8.408  16.427  0.00  0.00    +0.000 HD
ATOM      6  H   UNL     1       8.128  10.152  16.662  0.00  0.00    +0.000 HD
ENDROOT
BRANCH   4   7
ATOM      7  C   UNL     1       9.243  10.960  18.283  0.00  0.00    +0.000 C 
ATOM      8  C   UNL     1      10.688  10.948  17.724  0.00  0.00    +0.000 C 
ATOM      9  C   UNL     1      11.537  12.050  18.392  0.00  0.00    +0.000 C 
ATOM     10  C   UNL     1      10.906  13.429  18.132  0.00  0.00    +0.000 C 
ATOM     11  C   UNL     1       9.480  13.467  18.699  0.00  0.00    +0.000 C 
ATOM     12  C   UNL     1       9.525  13.210  20.214  0.00  0.00    +0.000 C 
ATOM     13  C   UNL     1      10.158  11.839  20.491  0.00  0.00    +0.000 C 
ATOM     14  C   UNL     1      11.581  11.806  19.909  0.00  0.00    +0.000 C 
ATOM     15  C   UNL     1       9.306  10.748  19.819  0.00  0.00    +0.000 C 
ATOM     16  C   UNL     1       8.645  12.370  18.021  0.00  0.00    +0.000 C 
ENDBRANCH   4   7
BRANCH   3  17
ATOM     17  C   UNL     1       6.810   6.668  17.667  0.00  0.00    +0.000 C 
ATOM     18  C   UNL     1       5.280   6.522  17.630  0.00  0.00    +0.000 C 
ATOM     19  C   UNL     1       4.708   6.246  16.241  0.00  0.00    +0.000 C 
ATOM     20  C   UNL     1       5.413   5.072  15.576  0.00  0.00    +0.000 C 
ATOM     21  C   UNL     1       6.907   5.346  15.463  0.00  0.00    +0.000 C 
ATOM     22  C   UNL     1       7.538   5.606  16.831  0.00  0.00    +0.000 C 
ENDBRANCH   3  17
TORSDOF 2
ENDMDL
MODEL 6
REMARK VINA RESULT:      -6.9      7.193      9.645
REMARK  Name = 
REMARK  2 active torsions:
REMARK  status: ('A' for Active; 'I' for Inactive)
REMARK    1  A    between atoms: N_3  and  C_4
REMARK    2  A    between atoms: N_10  and  C_11
REMARK                            x       y       z     vdW  Elec       q    Type
REMARK                         _______ _______ _______ _____ _____    ______ ____
ROOT
ATOM      1  O   UNL     1       8.830   8.212  18.987  0.00  0.00    +0.000 OA
ATOM      2  C   UNL     1       8.223   8.700  18.040  0.00  0.00    +0.000 C 
ATOM      3  N   UNL     1       7.277   8.012  17.311  0.00  0.00    +0.000 N 
ATOM      4  N   UNL     1       8.340  10.005  17.636  0.00  0.00    +0.000 N 
ATOM      5  H   UNL     1       6.958   8.399  16.438  0.00  0.00    +0.000 HD
ATOM      6  H   UNL     1       8.070  10.189  16.683  0.00  0.00    +0.000 HD
ENDROOT
BRANCH   4   7
ATOM      7  C   UNL     1       9.170  11.023  18.302  0.00  0.00    +0.000 C 
ATOM      8  C   UNL     1       9.299  10.773  19.826  0.00  0.00    +0.000 C 
ATOM      9  C   UNL     1      10.237  11.817  20.468  0.00  0.00    +0.000 C 
ATOM     10  C   UNL     1      11.631  11.740  19.823  0.00  0.00    +0.000 C 
ATOM     11  C   UNL     1      11.525  12.006  18.314  0.00  0.00    +0.000 C 
ATOM     12  C   UNL     1      10.939  13.408  18.083  0.00  0.00    +0.000 C 
ATOM     13  C   UNL     1       9.549  13.505  18.727  0.00  0.00    +0.000 C 
ATOM     14  C   UNL     1       9.663  13.224  20.235  0.00  0.00    +0.000 C 
ATOM     15  C   UNL     1       8.624  12.459  18.081  0.00  0.00    +0.000 C 
ATOM     16  C   UNL     1      10.595  10.956  17.687  0.00  0.00    +0.000 C 
ENDBRANCH   4   7
BRANCH   3  17
ATOM     17  C   UNL     1       6.915   6.639  17.654  0.00  0.00    +0.000 C 
ATOM     18  C   UNL     1       5.402   6.487  17.882  0.00  0.00    +0.000 C 
ATOM     19  C   UNL     1       4.590   6.294  16.603  0.00  0.00    +0.000 C 
ATOM     20  C   UNL     1       5.159   5.167  15.752  0.00  0.00    +0.000 C 
ATOM     21  C   UNL     1       6.610   5.456  15.391  0.00  0.00    +0.000 C 
ATOM     22  C   UNL     1       7.476   5.634  16.637  0.00  0.00    +0.000 C 
ENDBRANCH   3  17
TORSDOF 2
ENDMDL
MODEL 7
REMARK VINA RESULT:      -6.8      1.166      1.812
REMARK  Name = 
REMARK  2 active torsions:
REMARK  status: ('A' for Active; 'I' for Inactive)
REMARK    1  A    between atoms: N_3  and  C_4
REMARK    2  A    between atoms: N_10  and  C_11
REMARK                            x       y       z     vdW  Elec       q    Type
REMARK                         _______ _______ _______ _____ _____    ______ ____
ROOT
ATOM      1  O   UNL     1       2.738   8.432  17.205  0.00  0.00    +0.000 OA
ATOM      2  C   UNL     1       2.309   8.216  18.333  0.00  0.00    +0.000 C 
ATOM      3  N   UNL     1       1.420   9.048  18.978  0.00  0.00    +0.000 N 
ATOM      4  N   UNL     1       2.588   7.090  19.064  0.00  0.00    +0.000 N 
ATOM      5  H   UNL     1       1.257   8.918  19.963  0.00  0.00    +0.000 HD
ATOM      6  H   UNL     1       2.469   7.180  20.060  0.00  0.00    +0.000 HD
ENDROOT
BRANCH   4   7
ATOM      7  C   UNL     1       3.399   5.956  18.590  0.00  0.00    +0.000 C 
ATOM      8  C   UNL     1       4.039   5.161  19.756  0.00  0.00    +0.000 C 
ATOM      9  C   UNL     1       4.816   3.941  19.217  0.00  0.00    +0.000 C 
ATOM     10  C   UNL     1       3.867   3.017  18.435  0.00  0.00    +0.000 C 
ATOM     11  C   UNL     1       3.239   3.782  17.262  0.00  0.00    +0.000 C 
ATOM     12  C   UNL     1       4.350   4.277  16.322  0.00  0.00    +0.000 C 
ATOM     13  C   UNL     1       5.311   5.196  17.088  0.00  0.00    +0.000 C 
ATOM     14  C   UNL     1       5.925   4.424  18.269  0.00  0.00    +0.000 C 
ATOM     15  C   UNL     1       4.526   6.407  17.622  0.00  0.00    +0.000 C 
ATOM     16  C   UNL     1       2.464   4.989  17.812  0.00  0.00    +0.000 C 
ENDBRANCH   4   7
BRANCH   3  17
ATOM     17  C   UNL     1       0.902  10.247  18.324  0.00  0.00    +0.000 C 
ATOM     18  C   UNL     1      -0.547  10.057  17.846  0.00  0.00    +0.000 C 
ATOM     19  C   UNL     1      -1.601  10.291  18.926  0.00  0.00    +0.000 C 
ATOM     20  C   UNL     1      -1.396  11.632  19.618  0.00  0.00    +0.000 C 
ATOM     21  C   UNL     1      -0.008  11.700  20.242  0.00  0.00    +0.000 C 
ATOM     22  C   UNL     1       1.090  11.496  19.198  0.00  0.00    +0.000 C 
ENDBRANCH   3  17
TORSDOF 2
ENDMDL
MODEL 8
REMARK VINA RESULT:      -6.8      1.018      2.230
REMARK  Name = 
REMARK  2 active torsions:
REMARK  status: ('A' for Active; 'I' for Inactive)
REMARK    1  A    between atoms: N_3  and  C_4
REMARK    2  A    between atoms: N_10  and  C_11
REMARK                            x       y       z     vdW  Elec       q    Type
REMARK                         _______ _______ _______ _____ _____    ______ ____
ROOT
ATOM      1  O   UNL     1       2.625   8.361  17.326  0.00  0.00    +0.000 OA
ATOM      2  C   UNL     1       2.218   8.184  18.469  0.00  0.00    +0.000 C 
ATOM      3  N   UNL     1       1.406   9.080  19.131  0.00  0.00    +0.000 N 
ATOM      4  N   UNL     1       2.444   7.049  19.203  0.00  0.00    +0.000 N 
ATOM      5  H   UNL     1       1.266   8.970  20.122  0.00  0.00    +0.000 HD
ATOM      6  H   UNL     1       2.362   7.155  20.202  0.00  0.00    +0.000 HD
ENDROOT
BRANCH   4   7
ATOM      7  C   UNL     1       3.164   5.859  18.717  0.00  0.00    +0.000 C 
ATOM      8  C   UNL     1       2.284   4.973  17.799  0.00  0.00    +0.000 C 
ATOM      9  C   UNL     1       3.100   3.782  17.254  0.00  0.00    +0.000 C 
ATOM     10  C   UNL     1       4.309   4.295  16.454  0.00  0.00    +0.000 C 
ATOM     11  C   UNL     1       5.205   5.159  17.354  0.00  0.00    +0.000 C 
ATOM     12  C   UNL     1       5.703   4.315  18.538  0.00  0.00    +0.000 C 
ATOM     13  C   UNL     1       4.508   3.789  19.344  0.00  0.00    +0.000 C 
ATOM     14  C   UNL     1       3.611   2.936  18.431  0.00  0.00    +0.000 C 
ATOM     15  C   UNL     1       3.701   4.984  19.881  0.00  0.00    +0.000 C 
ATOM     16  C   UNL     1       4.383   6.344  17.884  0.00  0.00    +0.000 C 
ENDBRANCH   4   7
BRANCH   3  17
ATOM     17  C   UNL     1       0.949  10.305  18.480  0.00  0.00    +0.000 C 
ATOM     18  C   UNL     1      -0.430  10.124  17.825  0.00  0.00    +0.000 C 
ATOM     19  C   UNL     1      -1.607  10.291  18.782  0.00  0.00    +0.000 C 
ATOM     20  C   UNL     1      -1.507  11.597  19.558  0.00  0.00    +0.000 C 
ATOM     21  C   UNL     1      -0.205  11.648  20.345  0.00  0.00    +0.000 C 
ATOM     22  C   UNL     1       1.012  11.510  19.431  0.00  0.00    +0.000 C 
ENDBRANCH   3  17
TORSDOF 2
ENDMDL
MODEL 9
REMARK VINA RESULT:      -6.8      7.205      9.641
REMARK  Name = 
REMARK  2 active torsions:
REMARK  status: ('A' for Active; 'I' for Inactive)
REMARK    1  A    between atoms: N_3  and  C_4
REMARK    2  A    between atoms: N_10  and  C_11
REMARK                            x       y       z     vdW  Elec       q    Type
REMARK                         _______ _______ _______ _____ _____    ______ ____
ROOT
ATOM      1  O   UNL     1       8.807   8.288  18.993  0.00  0.00    +0.000 OA
ATOM      2  C   UNL     1       8.211   8.766  18.033  0.00  0.00    +0.000 C 
ATOM      3  N   UNL     1       7.246   8.084  17.324  0.00  0.00    +0.000 N 
ATOM      4  N   UNL     1       8.361  10.056  17.594  0.00  0.00    +0.000 N 
ATOM      5  H   UNL     1       6.936   8.456  16.441  0.00  0.00    +0.000 HD
ATOM      6  H   UNL     1       8.095  10.222  16.637  0.00  0.00    +0.000 HD
ENDROOT
BRANCH   4   7
ATOM      7  C   UNL     1       9.218  11.070  18.232  0.00  0.00    +0.000 C 
ATOM      8  C   UNL     1       8.657  12.505  18.067  0.00  0.00    +0.000 C 
ATOM      9  C   UNL     1       9.545  13.523  18.814  0.00  0.00    +0.000 C 
ATOM     10  C   UNL     1       9.603  13.172  20.310  0.00  0.00    +0.000 C 
ATOM     11  C   UNL     1      10.177  11.759  20.495  0.00  0.00    +0.000 C 
ATOM     12  C   UNL     1      11.597  11.705  19.908  0.00  0.00    +0.000 C 
ATOM     13  C   UNL     1      11.558  12.059  18.415  0.00  0.00    +0.000 C 
ATOM     14  C   UNL     1      10.970  13.470  18.239  0.00  0.00    +0.000 C 
ATOM     15  C   UNL     1      10.669  11.040  17.681  0.00  0.00    +0.000 C 
ATOM     16  C   UNL     1       9.281  10.756  19.753  0.00  0.00    +0.000 C 
ENDBRANCH   4   7
BRANCH   3  17
ATOM     17  C   UNL     1       6.849   6.730  17.704  0.00  0.00    +0.000 C 
ATOM     18  C   UNL     1       5.321   6.569  17.727  0.00  0.00    +0.000 C 
ATOM     19  C   UNL     1       4.698   6.280  16.363  0.00  0.00    +0.000 C 
ATOM     20  C   UNL     1       5.389   5.109  15.677  0.00  0.00    +0.000 C 
ATOM     21  C   UNL     1       6.875   5.397  15.504  0.00  0.00    +0.000 C 
ATOM     22  C   UNL     1       7.555   5.670  16.845  0.00  0.00    +0.000 C 
ENDBRANCH   3  17
TORSDOF 2
ENDMDL
