MODEL 1
REMARK VINA RESULT:      -8.3      0.000      0.000
REMARK  Name = 
REMARK  4 active torsions:
REMARK  status: ('A' for Active; 'I' for Inactive)
REMARK    1  A    between atoms: C_1  and  N_2
REMARK    2  A    between atoms: C_9  and  S_10
REMARK    3  A    between atoms: S_10  and  N_13
REMARK    4  A    between atoms: N_13  and  C_14
REMARK                            x       y       z     vdW  Elec       q    Type
REMARK                         _______ _______ _______ _____ _____    ______ ____
ROOT
ATOM      1  C   UNL     1       0.802   8.758  21.469  0.00  0.00    +0.000 C 
ATOM      2  N   UNL     1       1.390   8.526  20.160  0.00  0.00    +0.000 N 
ATOM      3  C   UNL     1       1.426   9.585  19.260  0.00  0.00    +0.000 A 
ATOM      4  O   UNL     1       0.987  10.712  19.484  0.00  0.00    +0.000 OA
ATOM      5  C   UNL     1       2.037   9.326  17.933  0.00  0.00    +0.000 A 
ATOM      6  C   UNL     1       2.550   8.136  17.610  0.00  0.00    +0.000 A 
ATOM      7  C   UNL     1       2.510   7.041  18.572  0.00  0.00    +0.000 A 
ATOM      8  C   UNL     1       3.060   5.799  18.229  0.00  0.00    +0.000 A 
ATOM      9  C   UNL     1       3.018   4.742  19.139  0.00  0.00    +0.000 A 
ATOM     10  C   UNL     1       2.450   4.923  20.402  0.00  0.00    +0.000 A 
ATOM     11  C   UNL     1       1.900   6.165  20.742  0.00  0.00    +0.000 A 
ATOM     12  C   UNL     1       1.926   7.240  19.837  0.00  0.00    +0.000 A 
ENDROOT
BRANCH   9  13
ATOM     13  S   UNL     1       3.821   3.206  18.716  0.00  0.00    +0.000 S 
ATOM     14  O   UNL     1       3.404   2.223  19.697  0.00  0.00    +0.000 OA
ATOM     15  O   UNL     1       3.624   2.979  17.300  0.00  0.00    +0.000 OA
BRANCH  13  16
ATOM     16  N   UNL     1       5.443   3.488  19.008  0.00  0.00    +0.000 N 
ATOM     17  H   UNL     1       5.937   2.850  19.632  0.00  0.00    +0.000 HD
BRANCH  16  18
ATOM     18  C   UNL     1       6.127   4.513  18.320  0.00  0.00    +0.000 A 
ATOM     19  C   UNL     1       6.751   5.509  19.069  0.00  0.00    +0.000 A 
ATOM     20  C   UNL     1       7.380   6.575  18.427  0.00  0.00    +0.000 A 
ATOM     21  C   UNL     1       7.410   6.628  17.034  0.00  0.00    +0.000 A 
ATOM     22  C   UNL     1       6.820   5.609  16.285  0.00  0.00    +0.000 A 
ATOM     23  C   UNL     1       6.178   4.545  16.926  0.00  0.00    +0.000 A 
ENDBRANCH  16  18
ENDBRANCH  13  16
ENDBRANCH   9  13
TORSDOF 3
ENDMDL
MODEL 2
REMARK VINA RESULT:      -8.3      0.063      1.033
REMARK  Name = 
REMARK  4 active torsions:
REMARK  status: ('A' for Active; 'I' for Inactive)
REMARK    1  A    between atoms: C_1  and  N_2
REMARK    2  A    between atoms: C_9  and  S_10
REMARK    3  A    between atoms: S_10  and  N_13
REMARK    4  A    between atoms: N_13  and  C_14
REMARK                            x       y       z     vdW  Elec       q    Type
REMARK                         _______ _______ _______ _____ _____    ______ ____
ROOT
ATOM      1  C   UNL     1       0.856   8.721  21.531  0.00  0.00    +0.000 C 
ATOM      2  N   UNL     1       1.406   8.496  20.205  0.00  0.00    +0.000 N 
ATOM      3  C   UNL     1       1.415   9.559  19.309  0.00  0.00    +0.000 A 
ATOM      4  O   UNL     1       0.983  10.684  19.551  0.00  0.00    +0.000 OA
ATOM      5  C   UNL     1       1.988   9.306  17.964  0.00  0.00    +0.000 A 
ATOM      6  C   UNL     1       2.491   8.118  17.621  0.00  0.00    +0.000 A 
ATOM      7  C   UNL     1       2.480   7.019  18.578  0.00  0.00    +0.000 A 
ATOM      8  C   UNL     1       3.020   5.779  18.213  0.00  0.00    +0.000 A 
ATOM      9  C   UNL     1       3.005   4.717  19.119  0.00  0.00    +0.000 A 
ATOM     10  C   UNL     1       2.473   4.892  20.398  0.00  0.00    +0.000 A 
ATOM     11  C   UNL     1       1.932   6.132  20.761  0.00  0.00    +0.000 A 
ATOM     12  C   UNL     1       1.933   7.211  19.861  0.00  0.00    +0.000 A 
ENDROOT
BRANCH   9  13
ATOM     13  S   UNL     1       3.795   3.183  18.666  0.00  0.00    +0.000 S 
ATOM     14  O   UNL     1       3.372   2.185  19.628  0.00  0.00    +0.000 OA
ATOM     15  O   UNL     1       3.594   2.985  17.245  0.00  0.00    +0.000 OA
BRANCH  13  16
ATOM     16  N   UNL     1       5.419   3.447  18.960  0.00  0.00    +0.000 N 
ATOM     17  H   UNL     1       5.924   2.760  19.520  0.00  0.00    +0.000 HD
BRANCH  16  18
ATOM     18  C   UNL     1       6.090   4.532  18.355  0.00  0.00    +0.000 A 
ATOM     19  C   UNL     1       6.131   4.590  16.963  0.00  0.00    +0.000 A 
ATOM     20  C   UNL     1       6.841   5.608  16.327  0.00  0.00    +0.000 A 
ATOM     21  C   UNL     1       7.484   6.585  17.085  0.00  0.00    +0.000 A 
ATOM     22  C   UNL     1       7.408   6.550  18.478  0.00  0.00    +0.000 A 
ATOM     23  C   UNL     1       6.706   5.523  19.118  0.00  0.00    +0.000 A 
ENDBRANCH  16  18
ENDBRANCH  13  16
ENDBRANCH   9  13
TORSDOF 3
ENDMDL
MODEL 3
REMARK VINA RESULT:      -8.2      3.533      4.999
REMARK  Name = 
REMARK  4 active torsions:
REMARK  status: ('A' for Active; 'I' for Inactive)
REMARK    1  A    between atoms: C_1  and  N_2
REMARK    2  A    between atoms: C_9  and  S_10
REMARK    3  A    between atoms: S_10  and  N_13
REMARK    4  A    between atoms: N_13  and  C_14
REMARK                            x       y       z     vdW  Elec       q    Type
REMARK                         _______ _______ _______ _____ _____    ______ ____
ROOT
ATOM      1  C   UNL     1       1.437   4.496  20.795  0.00  0.00    +0.000 C 
ATOM      2  N   UNL     1       1.974   3.776  19.653  0.00  0.00    +0.000 N 
ATOM      3  C   UNL     1       1.225   2.729  19.125  0.00  0.00    +0.000 A 
ATOM      4  O   UNL     1       0.136   2.358  19.558  0.00  0.00    +0.000 OA
ATOM      5  C   UNL     1       1.792   2.014  17.955  0.00  0.00    +0.000 A 
ATOM      6  C   UNL     1       2.962   2.360  17.412  0.00  0.00    +0.000 A 
ATOM      7  C   UNL     1       3.727   3.465  17.976  0.00  0.00    +0.000 A 
ATOM      8  C   UNL     1       4.949   3.828  17.394  0.00  0.00    +0.000 A 
ATOM      9  C   UNL     1       5.694   4.878  17.932  0.00  0.00    +0.000 A 
ATOM     10  C   UNL     1       5.215   5.586  19.037  0.00  0.00    +0.000 A 
ATOM     11  C   UNL     1       3.994   5.221  19.618  0.00  0.00    +0.000 A 
ATOM     12  C   UNL     1       3.233   4.162  19.095  0.00  0.00    +0.000 A 
ENDROOT
BRANCH   9  13
ATOM     13  S   UNL     1       7.191   5.388  17.106  0.00  0.00    +0.000 S 
ATOM     14  O   UNL     1       7.720   6.519  17.842  0.00  0.00    +0.000 OA
ATOM     15  O   UNL     1       7.992   4.204  16.874  0.00  0.00    +0.000 OA
BRANCH  13  16
ATOM     16  N   UNL     1       6.672   5.996  15.638  0.00  0.00    +0.000 N 
ATOM     17  H   UNL     1       6.453   6.991  15.580  0.00  0.00    +0.000 HD
BRANCH  16  18
ATOM     18  C   UNL     1       6.646   5.175  14.490  0.00  0.00    +0.000 A 
ATOM     19  C   UNL     1       7.666   5.320  13.552  0.00  0.00    +0.000 A 
ATOM     20  C   UNL     1       7.641   4.576  12.372  0.00  0.00    +0.000 A 
ATOM     21  C   UNL     1       6.610   3.665  12.148  0.00  0.00    +0.000 A 
ATOM     22  C   UNL     1       5.611   3.491  13.106  0.00  0.00    +0.000 A 
ATOM     23  C   UNL     1       5.627   4.245  14.284  0.00  0.00    +0.000 A 
ENDBRANCH  16  18
ENDBRANCH  13  16
ENDBRANCH   9  13
TORSDOF 3
ENDMDL
MODEL 4
REMARK VINA RESULT:      -8.2      3.181      5.016
REMARK  Name = 
REMARK  4 active torsions:
REMARK  status: ('A' for Active; 'I' for Inactive)
REMARK    1  A    between atoms: C_1  and  N_2
REMARK    2  A    between atoms: C_9  and  S_10
REMARK    3  A    between atoms: S_10  and  N_13
REMARK    4  A    between atoms: N_13  and  C_14
REMARK                            x       y       z     vdW  Elec       q    Type
REMARK                         _______ _______ _______ _____ _____    ______ ____
ROOT
ATOM      1  C   UNL     1       3.741   2.045  20.959  0.00  0.00    +0.000 C 
ATOM      2  N   UNL     1       3.196   3.302  20.474  0.00  0.00    +0.000 N 
ATOM      3  C   UNL     1       1.995   3.749  21.016  0.00  0.00    +0.000 A 
ATOM      4  O   UNL     1       1.349   3.153  21.876  0.00  0.00    +0.000 OA
ATOM      5  C   UNL     1       1.462   5.038  20.510  0.00  0.00    +0.000 A 
ATOM      6  C   UNL     1       2.105   5.756  19.587  0.00  0.00    +0.000 A 
ATOM      7  C   UNL     1       3.367   5.274  19.038  0.00  0.00    +0.000 A 
ATOM      8  C   UNL     1       4.040   6.039  18.077  0.00  0.00    +0.000 A 
ATOM      9  C   UNL     1       5.244   5.582  17.538  0.00  0.00    +0.000 A 
ATOM     10  C   UNL     1       5.793   4.372  17.970  0.00  0.00    +0.000 A 
ATOM     11  C   UNL     1       5.117   3.608  18.930  0.00  0.00    +0.000 A 
ATOM     12  C   UNL     1       3.901   4.048  19.479  0.00  0.00    +0.000 A 
ENDROOT
BRANCH   9  13
ATOM     13  S   UNL     1       6.132   6.626  16.397  0.00  0.00    +0.000 S 
ATOM     14  O   UNL     1       5.209   6.985  15.339  0.00  0.00    +0.000 OA
ATOM     15  O   UNL     1       6.817   7.642  17.169  0.00  0.00    +0.000 OA
BRANCH  13  16
ATOM     16  N   UNL     1       7.263   5.613  15.697  0.00  0.00    +0.000 N 
ATOM     17  H   UNL     1       8.106   5.393  16.229  0.00  0.00    +0.000 HD
BRANCH  16  18
ATOM     18  C   UNL     1       7.001   4.995  14.456  0.00  0.00    +0.000 A 
ATOM     19  C   UNL     1       5.985   4.043  14.393  0.00  0.00    +0.000 A 
ATOM     20  C   UNL     1       5.740   3.361  13.201  0.00  0.00    +0.000 A 
ATOM     21  C   UNL     1       6.492   3.655  12.065  0.00  0.00    +0.000 A 
ATOM     22  C   UNL     1       7.481   4.637  12.118  0.00  0.00    +0.000 A 
ATOM     23  C   UNL     1       7.737   5.314  13.315  0.00  0.00    +0.000 A 
ENDBRANCH  16  18
ENDBRANCH  13  16
ENDBRANCH   9  13
TORSDOF 3
ENDMDL
MODEL 5
REMARK VINA RESULT:      -8.1      3.012      4.464
REMARK  Name = 
REMARK  4 active torsions:
REMARK  status: ('A' for Active; 'I' for Inactive)
REMARK    1  A    between atoms: C_1  and  N_2
REMARK    2  A    between atoms: C_9  and  S_10
REMARK    3  A    between atoms: S_10  and  N_13
REMARK    4  A    between atoms: N_13  and  C_14
REMARK                            x       y       z     vdW  Elec       q    Type
REMARK                         _______ _______ _______ _____ _____    ______ ____
ROOT
ATOM      1  C   UNL     1       1.654   5.261  20.853  0.00  0.00    +0.000 C 
ATOM      2  N   UNL     1       2.116   4.217  19.954  0.00  0.00    +0.000 N 
ATOM      3  C   UNL     1       1.729   2.906  20.216  0.00  0.00    +0.000 A 
ATOM      4  O   UNL     1       1.026   2.559  21.163  0.00  0.00    +0.000 OA
ATOM      5  C   UNL     1       2.207   1.860  19.280  0.00  0.00    +0.000 A 
ATOM      6  C   UNL     1       2.964   2.150  18.219  0.00  0.00    +0.000 A 
ATOM      7  C   UNL     1       3.352   3.531  17.958  0.00  0.00    +0.000 A 
ATOM      8  C   UNL     1       4.137   3.829  16.836  0.00  0.00    +0.000 A 
ATOM      9  C   UNL     1       4.521   5.146  16.583  0.00  0.00    +0.000 A 
ATOM     10  C   UNL     1       4.107   6.175  17.432  0.00  0.00    +0.000 A 
ATOM     11  C   UNL     1       3.323   5.875  18.553  0.00  0.00    +0.000 A 
ATOM     12  C   UNL     1       2.932   4.554  18.829  0.00  0.00    +0.000 A 
ENDROOT
BRANCH   9  13
ATOM     13  S   UNL     1       5.429   5.509  15.091  0.00  0.00    +0.000 S 
ATOM     14  O   UNL     1       5.178   4.424  14.164  0.00  0.00    +0.000 OA
ATOM     15  O   UNL     1       5.151   6.883  14.728  0.00  0.00    +0.000 OA
BRANCH  13  16
ATOM     16  N   UNL     1       7.035   5.372  15.536  0.00  0.00    +0.000 N 
ATOM     17  H   UNL     1       7.711   5.106  14.819  0.00  0.00    +0.000 HD
BRANCH  16  18
ATOM     18  C   UNL     1       7.451   5.724  16.838  0.00  0.00    +0.000 A 
ATOM     19  C   UNL     1       7.652   4.703  17.765  0.00  0.00    +0.000 A 
ATOM     20  C   UNL     1       7.997   5.012  19.081  0.00  0.00    +0.000 A 
ATOM     21  C   UNL     1       8.171   6.343  19.458  0.00  0.00    +0.000 A 
ATOM     22  C   UNL     1       8.011   7.362  18.519  0.00  0.00    +0.000 A 
ATOM     23  C   UNL     1       7.652   7.055  17.202  0.00  0.00    +0.000 A 
ENDBRANCH  16  18
ENDBRANCH  13  16
ENDBRANCH   9  13
TORSDOF 3
ENDMDL
MODEL 6
REMARK VINA RESULT:      -8.1      3.177      5.024
REMARK  Name = 
REMARK  4 active torsions:
REMARK  status: ('A' for Active; 'I' for Inactive)
REMARK    1  A    between atoms: C_1  and  N_2
REMARK    2  A    between atoms: C_9  and  S_10
REMARK    3  A    between atoms: S_10  and  N_13
REMARK    4  A    between atoms: N_13  and  C_14
REMARK                            x       y       z     vdW  Elec       q    Type
REMARK                         _______ _______ _______ _____ _____    ______ ____
ROOT
ATOM      1  C   UNL     1       3.565   1.945  20.758  0.00  0.00    +0.000 C 
ATOM      2  N   UNL     1       3.159   3.302  20.434  0.00  0.00    +0.000 N 
ATOM      3  C   UNL     1       2.094   3.854  21.139  0.00  0.00    +0.000 A 
ATOM      4  O   UNL     1       1.460   3.275  22.019  0.00  0.00    +0.000 OA
ATOM      5  C   UNL     1       1.703   5.243  20.794  0.00  0.00    +0.000 A 
ATOM      6  C   UNL     1       2.345   5.949  19.861  0.00  0.00    +0.000 A 
ATOM      7  C   UNL     1       3.463   5.354  19.139  0.00  0.00    +0.000 A 
ATOM      8  C   UNL     1       4.139   6.106  18.169  0.00  0.00    +0.000 A 
ATOM      9  C   UNL     1       5.204   5.542  17.466  0.00  0.00    +0.000 A 
ATOM     10  C   UNL     1       5.616   4.236  17.742  0.00  0.00    +0.000 A 
ATOM     11  C   UNL     1       4.939   3.486  18.711  0.00  0.00    +0.000 A 
ATOM     12  C   UNL     1       3.859   4.034  19.425  0.00  0.00    +0.000 A 
ENDROOT
BRANCH   9  13
ATOM     13  S   UNL     1       6.113   6.557  16.314  0.00  0.00    +0.000 S 
ATOM     14  O   UNL     1       5.210   6.883  15.228  0.00  0.00    +0.000 OA
ATOM     15  O   UNL     1       6.779   7.596  17.071  0.00  0.00    +0.000 OA
BRANCH  13  16
ATOM     16  N   UNL     1       7.261   5.528  15.666  0.00  0.00    +0.000 N 
ATOM     17  H   UNL     1       8.070   5.288  16.239  0.00  0.00    +0.000 HD
BRANCH  16  18
ATOM     18  C   UNL     1       7.053   4.925  14.407  0.00  0.00    +0.000 A 
ATOM     19  C   UNL     1       7.807   5.379  13.326  0.00  0.00    +0.000 A 
ATOM     20  C   UNL     1       7.586   4.857  12.051  0.00  0.00    +0.000 A 
ATOM     21  C   UNL     1       6.630   3.860  11.866  0.00  0.00    +0.000 A 
ATOM     22  C   UNL     1       5.904   3.377  12.956  0.00  0.00    +0.000 A 
ATOM     23  C   UNL     1       6.116   3.907  14.233  0.00  0.00    +0.000 A 
ENDBRANCH  16  18
ENDBRANCH  13  16
ENDBRANCH   9  13
TORSDOF 3
ENDMDL
MODEL 7
REMARK VINA RESULT:      -8.1      3.009      4.415
REMARK  Name = 
REMARK  4 active torsions:
REMARK  status: ('A' for Active; 'I' for Inactive)
REMARK    1  A    between atoms: C_1  and  N_2
REMARK    2  A    between atoms: C_9  and  S_10
REMARK    3  A    between atoms: S_10  and  N_13
REMARK    4  A    between atoms: N_13  and  C_14
REMARK                            x       y       z     vdW  Elec       q    Type
REMARK                         _______ _______ _______ _____ _____    ______ ____
ROOT
ATOM      1  C   UNL     1       1.685   5.352  20.851  0.00  0.00    +0.000 C 
ATOM      2  N   UNL     1       2.121   4.296  19.954  0.00  0.00    +0.000 N 
ATOM      3  C   UNL     1       1.702   2.996  20.217  0.00  0.00    +0.000 A 
ATOM      4  O   UNL     1       0.989   2.668  21.164  0.00  0.00    +0.000 OA
ATOM      5  C   UNL     1       2.155   1.936  19.283  0.00  0.00    +0.000 A 
ATOM      6  C   UNL     1       2.920   2.206  18.223  0.00  0.00    +0.000 A 
ATOM      7  C   UNL     1       3.341   3.577  17.960  0.00  0.00    +0.000 A 
ATOM      8  C   UNL     1       4.135   3.853  16.839  0.00  0.00    +0.000 A 
ATOM      9  C   UNL     1       4.552   5.160  16.583  0.00  0.00    +0.000 A 
ATOM     10  C   UNL     1       4.163   6.200  17.431  0.00  0.00    +0.000 A 
ATOM     11  C   UNL     1       3.371   5.922  18.551  0.00  0.00    +0.000 A 
ATOM     12  C   UNL     1       2.946   4.612  18.829  0.00  0.00    +0.000 A 
ENDROOT
BRANCH   9  13
ATOM     13  S   UNL     1       5.470   5.498  15.092  0.00  0.00    +0.000 S 
ATOM     14  O   UNL     1       5.279   4.367  14.207  0.00  0.00    +0.000 OA
ATOM     15  O   UNL     1       5.144   6.844  14.668  0.00  0.00    +0.000 OA
BRANCH  13  16
ATOM     16  N   UNL     1       7.073   5.446  15.567  0.00  0.00    +0.000 N 
ATOM     17  H   UNL     1       7.776   5.225  14.862  0.00  0.00    +0.000 HD
BRANCH  16  18
ATOM     18  C   UNL     1       7.444   5.806  16.880  0.00  0.00    +0.000 A 
ATOM     19  C   UNL     1       7.646   7.156  17.162  0.00  0.00    +0.000 A 
ATOM     20  C   UNL     1       8.079   7.547  18.429  0.00  0.00    +0.000 A 
ATOM     21  C   UNL     1       8.279   6.589  19.422  0.00  0.00    +0.000 A 
ATOM     22  C   UNL     1       8.036   5.242  19.151  0.00  0.00    +0.000 A 
ATOM     23  C   UNL     1       7.614   4.846  17.877  0.00  0.00    +0.000 A 
ENDBRANCH  16  18
ENDBRANCH  13  16
ENDBRANCH   9  13
TORSDOF 3
ENDMDL
MODEL 8
REMARK VINA RESULT:      -8.0      3.270      5.176
REMARK  Name = 
REMARK  4 active torsions:
REMARK  status: ('A' for Active; 'I' for Inactive)
REMARK    1  A    between atoms: C_1  and  N_2
REMARK    2  A    between atoms: C_9  and  S_10
REMARK    3  A    between atoms: S_10  and  N_13
REMARK    4  A    between atoms: N_13  and  C_14
REMARK                            x       y       z     vdW  Elec       q    Type
REMARK                         _______ _______ _______ _____ _____    ______ ____
ROOT
ATOM      1  C   UNL     1       1.547   5.468  20.788  0.00  0.00    +0.000 C 
ATOM      2  N   UNL     1       2.566   4.473  20.499  0.00  0.00    +0.000 N 
ATOM      3  C   UNL     1       2.473   3.237  21.130  0.00  0.00    +0.000 A 
ATOM      4  O   UNL     1       1.591   2.920  21.925  0.00  0.00    +0.000 OA
ATOM      5  C   UNL     1       3.521   2.236  20.814  0.00  0.00    +0.000 A 
ATOM      6  C   UNL     1       4.508   2.491  19.952  0.00  0.00    +0.000 A 
ATOM      7  C   UNL     1       4.582   3.791  19.296  0.00  0.00    +0.000 A 
ATOM      8  C   UNL     1       5.615   4.048  18.384  0.00  0.00    +0.000 A 
ATOM      9  C   UNL     1       5.701   5.292  17.758  0.00  0.00    +0.000 A 
ATOM     10  C   UNL     1       4.746   6.278  18.020  0.00  0.00    +0.000 A 
ATOM     11  C   UNL     1       3.715   6.020  18.932  0.00  0.00    +0.000 A 
ATOM     12  C   UNL     1       3.616   4.776  19.577  0.00  0.00    +0.000 A 
ENDROOT
BRANCH   9  13
ATOM     13  S   UNL     1       6.961   5.553  16.523  0.00  0.00    +0.000 S 
ATOM     14  O   UNL     1       7.629   6.797  16.852  0.00  0.00    +0.000 OA
ATOM     15  O   UNL     1       7.705   4.319  16.383  0.00  0.00    +0.000 OA
BRANCH  13  16
ATOM     16  N   UNL     1       6.111   5.846  15.114  0.00  0.00    +0.000 N 
ATOM     17  H   UNL     1       5.520   6.677  15.072  0.00  0.00    +0.000 HD
BRANCH  16  18
ATOM     18  C   UNL     1       6.296   5.025  13.981  0.00  0.00    +0.000 A 
ATOM     19  C   UNL     1       5.352   4.031  13.724  0.00  0.00    +0.000 A 
ATOM     20  C   UNL     1       5.534   3.155  12.654  0.00  0.00    +0.000 A 
ATOM     21  C   UNL     1       6.645   3.294  11.824  0.00  0.00    +0.000 A 
ATOM     22  C   UNL     1       7.568   4.314  12.057  0.00  0.00    +0.000 A 
ATOM     23  C   UNL     1       7.394   5.186  13.137  0.00  0.00    +0.000 A 
ENDBRANCH  16  18
ENDBRANCH  13  16
ENDBRANCH   9  13
TORSDOF 3
ENDMDL
MODEL 9
REMARK VINA RESULT:      -7.9      2.044      4.085
REMARK  Name = 
REMARK  4 active torsions:
REMARK  status: ('A' for Active; 'I' for Inactive)
REMARK    1  A    between atoms: C_1  and  N_2
REMARK    2  A    between atoms: C_9  and  S_10
REMARK    3  A    between atoms: S_10  and  N_13
REMARK    4  A    between atoms: N_13  and  C_14
REMARK                            x       y       z     vdW  Elec       q    Type
REMARK                         _______ _______ _______ _____ _____    ______ ____
ROOT
ATOM      1  C   UNL     1       1.280   9.967  17.865  0.00  0.00    +0.000 C 
ATOM      2  N   UNL     1       1.472   8.970  18.905  0.00  0.00    +0.000 N 
ATOM      3  C   UNL     1       0.731   9.092  20.075  0.00  0.00    +0.000 A 
ATOM      4  O   UNL     1      -0.077   9.990  20.304  0.00  0.00    +0.000 OA
ATOM      5  C   UNL     1       0.940   8.058  21.119  0.00  0.00    +0.000 A 
ATOM      6  C   UNL     1       1.787   7.041  20.949  0.00  0.00    +0.000 A 
ATOM      7  C   UNL     1       2.549   6.928  19.711  0.00  0.00    +0.000 A 
ATOM      8  C   UNL     1       3.428   5.851  19.536  0.00  0.00    +0.000 A 
ATOM      9  C   UNL     1       4.169   5.739  18.359  0.00  0.00    +0.000 A 
ATOM     10  C   UNL     1       4.021   6.685  17.342  0.00  0.00    +0.000 A 
ATOM     11  C   UNL     1       3.141   7.760  17.519  0.00  0.00    +0.000 A 
ATOM     12  C   UNL     1       2.392   7.894  18.700  0.00  0.00    +0.000 A 
ENDROOT
BRANCH   9  13
ATOM     13  S   UNL     1       5.199   4.302  18.120  0.00  0.00    +0.000 S 
ATOM     14  O   UNL     1       5.718   4.370  16.768  0.00  0.00    +0.000 OA
ATOM     15  O   UNL     1       6.089   4.202  19.258  0.00  0.00    +0.000 OA
BRANCH  13  16
ATOM     16  N   UNL     1       4.132   3.015  18.141  0.00  0.00    +0.000 N 
ATOM     17  H   UNL     1       4.264   2.270  17.456  0.00  0.00    +0.000 HD
BRANCH  16  18
ATOM     18  C   UNL     1       3.150   2.914  19.149  0.00  0.00    +0.000 A 
ATOM     19  C   UNL     1       1.813   3.068  18.786  0.00  0.00    +0.000 A 
ATOM     20  C   UNL     1       0.817   3.043  19.762  0.00  0.00    +0.000 A 
ATOM     21  C   UNL     1       1.158   2.833  21.097  0.00  0.00    +0.000 A 
ATOM     22  C   UNL     1       2.493   2.638  21.454  0.00  0.00    +0.000 A 
ATOM     23  C   UNL     1       3.495   2.675  20.479  0.00  0.00    +0.000 A 
ENDBRANCH  16  18
ENDBRANCH  13  16
ENDBRANCH   9  13
TORSDOF 3
ENDMDL
