MODEL 1
REMARK VINA RESULT:      -9.3      0.000      0.000
REMARK  Name = 
REMARK  5 active torsions:
REMARK  status: ('A' for Active; 'I' for Inactive)
REMARK    1  A    between atoms: C_1  and  N_2
REMARK    2  A    between atoms: C_6  and  C_7
REMARK    3  A    between atoms: C_7  and  C_8
REMARK    4  A    between atoms: N_10  and  S_11
REMARK    5  A    between atoms: S_11  and  C_14
REMARK                            x       y       z     vdW  Elec       q    Type
REMARK                         _______ _______ _______ _____ _____    ______ ____
ROOT
ATOM      1  C   UNL     1       3.513   3.584  17.465  0.00  0.00    +0.000 A 
ATOM      2  C   UNL     1       4.765   3.549  16.882  0.00  0.00    +0.000 A 
ATOM      3  N   UNL     1       5.264   4.823  16.845  0.00  0.00    +0.000 N 
ATOM      4  C   UNL     1       4.317   5.734  17.254  0.00  0.00    +0.000 A 
ATOM      5  C   UNL     1       4.319   7.139  17.325  0.00  0.00    +0.000 A 
ATOM      6  C   UNL     1       3.186   7.781  17.830  0.00  0.00    +0.000 A 
ATOM      7  C   UNL     1       2.078   7.055  18.245  0.00  0.00    +0.000 A 
ATOM      8  C   UNL     1       2.076   5.657  18.170  0.00  0.00    +0.000 A 
ATOM      9  C   UNL     1       3.209   4.975  17.671  0.00  0.00    +0.000 A 
ENDROOT
BRANCH   3  10
ATOM     10  S   UNL     1       6.794   5.178  16.193  0.00  0.00    +0.000 S 
ATOM     11  O   UNL     1       6.924   6.623  16.200  0.00  0.00    +0.000 OA
ATOM     12  O   UNL     1       7.747   4.323  16.872  0.00  0.00    +0.000 OA
BRANCH  10  13
ATOM     13  C   UNL     1       6.852   4.716  14.482  0.00  0.00    +0.000 A 
ATOM     14  C   UNL     1       7.688   5.107  13.450  0.00  0.00    +0.000 A 
ATOM     15  C   UNL     1       7.376   4.454  12.221  0.00  0.00    +0.000 A 
ATOM     16  C   UNL     1       6.330   3.583  12.381  0.00  0.00    +0.000 A 
ATOM     17 CL   UNL     1       5.633   2.590  11.166  0.00  0.00    +0.000 Cl
ATOM     18  S   UNL     1       5.718   3.543  13.958  0.00  0.00    +0.000 S 
ENDBRANCH  10  13
ENDBRANCH   3  10
BRANCH   1  19
ATOM     19  C   UNL     1       2.632   2.394  17.750  0.00  0.00    +0.000 C 
BRANCH  19  25
ATOM     20  C   UNL     1       4.545   2.041  20.265  0.00  0.00    +0.000 C 
ATOM     21  N   UNL     1       3.303   2.793  20.145  0.00  0.00    +0.000 NA
ATOM     22  C   UNL     1       2.637   2.928  21.444  0.00  0.00    +0.000 C 
ATOM     23  C   UNL     1       1.257   3.421  21.066  0.00  0.00    +0.000 C 
ATOM     24  C   UNL     1       0.994   2.815  19.697  0.00  0.00    +0.000 C 
ATOM     25  C   UNL     1       2.312   2.163  19.247  0.00  0.00    +0.000 C 
ENDBRANCH  19  25
ENDBRANCH   1  19
TORSDOF 4
ENDMDL
MODEL 2
REMARK VINA RESULT:      -8.8      2.081      3.985
REMARK  Name = 
REMARK  5 active torsions:
REMARK  status: ('A' for Active; 'I' for Inactive)
REMARK    1  A    between atoms: C_1  and  N_2
REMARK    2  A    between atoms: C_6  and  C_7
REMARK    3  A    between atoms: C_7  and  C_8
REMARK    4  A    between atoms: N_10  and  S_11
REMARK    5  A    between atoms: S_11  and  C_14
REMARK                            x       y       z     vdW  Elec       q    Type
REMARK                         _______ _______ _______ _____ _____    ______ ____
ROOT
ATOM      1  C   UNL     1       3.049   6.793  17.607  0.00  0.00    +0.000 A 
ATOM      2  C   UNL     1       4.374   6.956  17.252  0.00  0.00    +0.000 A 
ATOM      3  N   UNL     1       4.945   5.721  17.117  0.00  0.00    +0.000 N 
ATOM      4  C   UNL     1       4.076   4.731  17.519  0.00  0.00    +0.000 A 
ATOM      5  C   UNL     1       4.213   3.336  17.635  0.00  0.00    +0.000 A 
ATOM      6  C   UNL     1       3.107   2.591  18.049  0.00  0.00    +0.000 A 
ATOM      7  C   UNL     1       1.900   3.209  18.348  0.00  0.00    +0.000 A 
ATOM      8  C   UNL     1       1.767   4.598  18.236  0.00  0.00    +0.000 A 
ATOM      9  C   UNL     1       2.864   5.381  17.813  0.00  0.00    +0.000 A 
ENDROOT
BRANCH   3  10
ATOM     10  S   UNL     1       6.578   5.518  16.685  0.00  0.00    +0.000 S 
ATOM     11  O   UNL     1       7.181   6.837  16.703  0.00  0.00    +0.000 OA
ATOM     12  O   UNL     1       7.093   4.432  17.495  0.00  0.00    +0.000 OA
BRANCH  10  13
ATOM     13  C   UNL     1       6.701   4.975  15.001  0.00  0.00    +0.000 A 
ATOM     14  C   UNL     1       7.554   5.342  13.974  0.00  0.00    +0.000 A 
ATOM     15  C   UNL     1       7.299   4.620  12.772  0.00  0.00    +0.000 A 
ATOM     16  C   UNL     1       6.277   3.724  12.946  0.00  0.00    +0.000 A 
ATOM     17 CL   UNL     1       5.648   2.650  11.762  0.00  0.00    +0.000 Cl
ATOM     18  S   UNL     1       5.620   3.740  14.505  0.00  0.00    +0.000 S 
ENDBRANCH  10  13
ENDBRANCH   3  10
BRANCH   1  19
ATOM     19  C   UNL     1       2.040   7.895  17.805  0.00  0.00    +0.000 C 
BRANCH  19  25
ATOM     20  C   UNL     1       1.213  10.821  18.735  0.00  0.00    +0.000 C 
ATOM     21  N   UNL     1       0.973   9.539  19.387  0.00  0.00    +0.000 NA
ATOM     22  C   UNL     1       0.824   9.700  20.836  0.00  0.00    +0.000 C 
ATOM     23  C   UNL     1       0.921   8.279  21.346  0.00  0.00    +0.000 C 
ATOM     24  C   UNL     1       1.836   7.578  20.355  0.00  0.00    +0.000 C 
ATOM     25  C   UNL     1       2.069   8.564  19.200  0.00  0.00    +0.000 C 
ENDBRANCH  19  25
ENDBRANCH   1  19
TORSDOF 4
ENDMDL
MODEL 3
REMARK VINA RESULT:      -8.8      2.981      3.684
REMARK  Name = 
REMARK  5 active torsions:
REMARK  status: ('A' for Active; 'I' for Inactive)
REMARK    1  A    between atoms: C_1  and  N_2
REMARK    2  A    between atoms: C_6  and  C_7
REMARK    3  A    between atoms: C_7  and  C_8
REMARK    4  A    between atoms: N_10  and  S_11
REMARK    5  A    between atoms: S_11  and  C_14
REMARK                            x       y       z     vdW  Elec       q    Type
REMARK                         _______ _______ _______ _____ _____    ______ ____
ROOT
ATOM      1  C   UNL     1       3.352   3.569  17.501  0.00  0.00    +0.000 A 
ATOM      2  C   UNL     1       4.626   3.590  16.967  0.00  0.00    +0.000 A 
ATOM      3  N   UNL     1       5.079   4.882  16.968  0.00  0.00    +0.000 N 
ATOM      4  C   UNL     1       4.083   5.751  17.352  0.00  0.00    +0.000 A 
ATOM      5  C   UNL     1       4.029   7.153  17.443  0.00  0.00    +0.000 A 
ATOM      6  C   UNL     1       2.854   7.745  17.911  0.00  0.00    +0.000 A 
ATOM      7  C   UNL     1       1.758   6.972  18.272  0.00  0.00    +0.000 A 
ATOM      8  C   UNL     1       1.812   5.577  18.177  0.00  0.00    +0.000 A 
ATOM      9  C   UNL     1       2.988   4.945  17.714  0.00  0.00    +0.000 A 
ENDROOT
BRANCH   3  10
ATOM     10  S   UNL     1       6.618   5.304  16.383  0.00  0.00    +0.000 S 
ATOM     11  O   UNL     1       7.414   4.090  16.389  0.00  0.00    +0.000 OA
ATOM     12  O   UNL     1       6.409   6.073  15.172  0.00  0.00    +0.000 OA
BRANCH  10  13
ATOM     13  C   UNL     1       7.428   6.394  17.523  0.00  0.00    +0.000 A 
ATOM     14  C   UNL     1       7.998   6.172  18.765  0.00  0.00    +0.000 A 
ATOM     15  C   UNL     1       8.561   7.356  19.325  0.00  0.00    +0.000 A 
ATOM     16  C   UNL     1       8.410   8.419  18.474  0.00  0.00    +0.000 A 
ATOM     17 CL   UNL     1       8.942  10.029  18.747  0.00  0.00    +0.000 Cl
ATOM     18  S   UNL     1       7.606   8.028  17.037  0.00  0.00    +0.000 S 
ENDBRANCH  10  13
ENDBRANCH   3  10
BRANCH   1  19
ATOM     19  C   UNL     1       2.506   2.344  17.734  0.00  0.00    +0.000 C 
BRANCH  19  25
ATOM     20  C   UNL     1       4.465   1.902  20.200  0.00  0.00    +0.000 C 
ATOM     21  N   UNL     1       3.203   2.631  20.138  0.00  0.00    +0.000 NA
ATOM     22  C   UNL     1       2.554   2.680  21.450  0.00  0.00    +0.000 C 
ATOM     23  C   UNL     1       1.157   3.159  21.119  0.00  0.00    +0.000 C 
ATOM     24  C   UNL     1       0.888   2.621  19.723  0.00  0.00    +0.000 C 
ATOM     25  C   UNL     1       2.214   2.026  19.220  0.00  0.00    +0.000 C 
ENDBRANCH  19  25
ENDBRANCH   1  19
TORSDOF 4
ENDMDL
MODEL 4
REMARK VINA RESULT:      -8.7      1.097      1.669
REMARK  Name = 
REMARK  5 active torsions:
REMARK  status: ('A' for Active; 'I' for Inactive)
REMARK    1  A    between atoms: C_1  and  N_2
REMARK    2  A    between atoms: C_6  and  C_7
REMARK    3  A    between atoms: C_7  and  C_8
REMARK    4  A    between atoms: N_10  and  S_11
REMARK    5  A    between atoms: S_11  and  C_14
REMARK                            x       y       z     vdW  Elec       q    Type
REMARK                         _______ _______ _______ _____ _____    ______ ____
ROOT
ATOM      1  C   UNL     1       4.654   4.049  19.189  0.00  0.00    +0.000 A 
ATOM      2  C   UNL     1       5.823   3.916  18.466  0.00  0.00    +0.000 A 
ATOM      3  N   UNL     1       5.995   5.039  17.704  0.00  0.00    +0.000 N 
ATOM      4  C   UNL     1       4.894   5.861  17.785  0.00  0.00    +0.000 A 
ATOM      5  C   UNL     1       4.562   7.070  17.148  0.00  0.00    +0.000 A 
ATOM      6  C   UNL     1       3.355   7.688  17.479  0.00  0.00    +0.000 A 
ATOM      7  C   UNL     1       2.494   7.121  18.409  0.00  0.00    +0.000 A 
ATOM      8  C   UNL     1       2.823   5.916  19.040  0.00  0.00    +0.000 A 
ATOM      9  C   UNL     1       4.041   5.268  18.733  0.00  0.00    +0.000 A 
ENDROOT
BRANCH   3  10
ATOM     10  S   UNL     1       7.334   5.241  16.675  0.00  0.00    +0.000 S 
ATOM     11  O   UNL     1       7.631   6.661  16.652  0.00  0.00    +0.000 OA
ATOM     12  O   UNL     1       8.323   4.261  17.079  0.00  0.00    +0.000 OA
BRANCH  10  13
ATOM     13  C   UNL     1       6.891   4.832  15.008  0.00  0.00    +0.000 A 
ATOM     14  C   UNL     1       7.546   5.030  13.805  0.00  0.00    +0.000 A 
ATOM     15  C   UNL     1       6.814   4.515  12.695  0.00  0.00    +0.000 A 
ATOM     16  C   UNL     1       5.643   3.935  13.108  0.00  0.00    +0.000 A 
ATOM     17 CL   UNL     1       4.464   3.190  12.107  0.00  0.00    +0.000 Cl
ATOM     18  S   UNL     1       5.408   4.003  14.782  0.00  0.00    +0.000 S 
ENDBRANCH  10  13
ENDBRANCH   3  10
BRANCH   1  19
ATOM     19  C   UNL     1       4.113   3.064  20.194  0.00  0.00    +0.000 C 
BRANCH  19  25
ATOM     20  C   UNL     1       1.327   2.720  21.687  0.00  0.00    +0.000 C 
ATOM     21  N   UNL     1       1.596   3.005  20.283  0.00  0.00    +0.000 NA
ATOM     22  C   UNL     1       0.497   2.548  19.429  0.00  0.00    +0.000 C 
ATOM     23  C   UNL     1       1.095   2.622  18.041  0.00  0.00    +0.000 C 
ATOM     24  C   UNL     1       2.577   2.357  18.247  0.00  0.00    +0.000 C 
ATOM     25  C   UNL     1       2.812   2.342  19.766  0.00  0.00    +0.000 C 
ENDBRANCH  19  25
ENDBRANCH   1  19
TORSDOF 4
ENDMDL
MODEL 5
REMARK VINA RESULT:      -8.4      2.590      4.543
REMARK  Name = 
REMARK  5 active torsions:
REMARK  status: ('A' for Active; 'I' for Inactive)
REMARK    1  A    between atoms: C_1  and  N_2
REMARK    2  A    between atoms: C_6  and  C_7
REMARK    3  A    between atoms: C_7  and  C_8
REMARK    4  A    between atoms: N_10  and  S_11
REMARK    5  A    between atoms: S_11  and  C_14
REMARK                            x       y       z     vdW  Elec       q    Type
REMARK                         _______ _______ _______ _____ _____    ______ ____
ROOT
ATOM      1  C   UNL     1       2.304   5.825  19.680  0.00  0.00    +0.000 A 
ATOM      2  C   UNL     1       3.594   6.192  19.352  0.00  0.00    +0.000 A 
ATOM      3  N   UNL     1       4.202   5.138  18.725  0.00  0.00    +0.000 N 
ATOM      4  C   UNL     1       3.400   4.019  18.758  0.00  0.00    +0.000 A 
ATOM      5  C   UNL     1       3.598   2.696  18.322  0.00  0.00    +0.000 A 
ATOM      6  C   UNL     1       2.551   1.784  18.471  0.00  0.00    +0.000 A 
ATOM      7  C   UNL     1       1.345   2.166  19.042  0.00  0.00    +0.000 A 
ATOM      8  C   UNL     1       1.152   3.481  19.479  0.00  0.00    +0.000 A 
ATOM      9  C   UNL     1       2.187   4.432  19.337  0.00  0.00    +0.000 A 
ENDROOT
BRANCH   3  10
ATOM     10  S   UNL     1       5.807   5.216  18.170  0.00  0.00    +0.000 S 
ATOM     11  O   UNL     1       6.222   6.601  18.286  0.00  0.00    +0.000 OA
ATOM     12  O   UNL     1       6.529   4.146  18.828  0.00  0.00    +0.000 OA
BRANCH  10  13
ATOM     13  C   UNL     1       5.872   4.856  16.434  0.00  0.00    +0.000 A 
ATOM     14  C   UNL     1       4.948   4.286  15.576  0.00  0.00    +0.000 A 
ATOM     15  C   UNL     1       5.427   4.206  14.236  0.00  0.00    +0.000 A 
ATOM     16  C   UNL     1       6.687   4.736  14.134  0.00  0.00    +0.000 A 
ATOM     17 CL   UNL     1       7.636   4.846  12.708  0.00  0.00    +0.000 Cl
ATOM     18  S   UNL     1       7.299   5.313  15.602  0.00  0.00    +0.000 S 
ENDBRANCH  10  13
ENDBRANCH   3  10
BRANCH   1  19
ATOM     19  C   UNL     1       1.269   6.704  20.335  0.00  0.00    +0.000 C 
BRANCH  19  25
ATOM     20  C   UNL     1       1.563   8.990  18.145  0.00  0.00    +0.000 C 
ATOM     21  N   UNL     1       0.983   9.057  19.481  0.00  0.00    +0.000 NA
ATOM     22  C   UNL     1       1.053  10.416  20.023  0.00  0.00    +0.000 C 
ATOM     23  C   UNL     1       0.728  10.214  21.487  0.00  0.00    +0.000 C 
ATOM     24  C   UNL     1       1.246   8.822  21.806  0.00  0.00    +0.000 C 
ATOM     25  C   UNL     1       1.668   8.194  20.468  0.00  0.00    +0.000 C 
ENDBRANCH  19  25
ENDBRANCH   1  19
TORSDOF 4
ENDMDL
MODEL 6
REMARK VINA RESULT:      -8.4      0.966      1.094
REMARK  Name = 
REMARK  5 active torsions:
REMARK  status: ('A' for Active; 'I' for Inactive)
REMARK    1  A    between atoms: C_1  and  N_2
REMARK    2  A    between atoms: C_6  and  C_7
REMARK    3  A    between atoms: C_7  and  C_8
REMARK    4  A    between atoms: N_10  and  S_11
REMARK    5  A    between atoms: S_11  and  C_14
REMARK                            x       y       z     vdW  Elec       q    Type
REMARK                         _______ _______ _______ _____ _____    ______ ____
ROOT
ATOM      1  C   UNL     1       3.544   3.436  17.474  0.00  0.00    +0.000 A 
ATOM      2  C   UNL     1       4.783   3.381  16.866  0.00  0.00    +0.000 A 
ATOM      3  N   UNL     1       5.295   4.648  16.803  0.00  0.00    +0.000 N 
ATOM      4  C   UNL     1       4.366   5.575  17.220  0.00  0.00    +0.000 A 
ATOM      5  C   UNL     1       4.384   6.980  17.274  0.00  0.00    +0.000 A 
ATOM      6  C   UNL     1       3.269   7.641  17.794  0.00  0.00    +0.000 A 
ATOM      7  C   UNL     1       2.162   6.931  18.240  0.00  0.00    +0.000 A 
ATOM      8  C   UNL     1       2.144   5.533  18.183  0.00  0.00    +0.000 A 
ATOM      9  C   UNL     1       3.259   4.833  17.669  0.00  0.00    +0.000 A 
ENDROOT
BRANCH   3  10
ATOM     10  S   UNL     1       6.815   4.980  16.116  0.00  0.00    +0.000 S 
ATOM     11  O   UNL     1       7.002   6.416  16.190  0.00  0.00    +0.000 OA
ATOM     12  O   UNL     1       7.756   4.056  16.718  0.00  0.00    +0.000 OA
BRANCH  10  13
ATOM     13  C   UNL     1       6.798   4.603  14.383  0.00  0.00    +0.000 A 
ATOM     14  C   UNL     1       6.166   3.604  13.663  0.00  0.00    +0.000 A 
ATOM     15  C   UNL     1       6.423   3.697  12.264  0.00  0.00    +0.000 A 
ATOM     16  C   UNL     1       7.222   4.773  11.983  0.00  0.00    +0.000 A 
ATOM     17 CL   UNL     1       7.773   5.259  10.431  0.00  0.00    +0.000 Cl
ATOM     18  S   UNL     1       7.672   5.658  13.353  0.00  0.00    +0.000 S 
ENDBRANCH  10  13
ENDBRANCH   3  10
BRANCH   1  19
ATOM     19  C   UNL     1       2.657   2.259  17.792  0.00  0.00    +0.000 C 
BRANCH  19  25
ATOM     20  C   UNL     1       4.592   1.940  20.294  0.00  0.00    +0.000 C 
ATOM     21  N   UNL     1       3.355   2.701  20.172  0.00  0.00    +0.000 NA
ATOM     22  C   UNL     1       2.702   2.868  21.474  0.00  0.00    +0.000 C 
ATOM     23  C   UNL     1       1.323   3.364  21.100  0.00  0.00    +0.000 C 
ATOM     24  C   UNL     1       1.042   2.733  19.746  0.00  0.00    +0.000 C 
ATOM     25  C   UNL     1       2.349   2.061  19.296  0.00  0.00    +0.000 C 
ENDBRANCH  19  25
ENDBRANCH   1  19
TORSDOF 4
ENDMDL
MODEL 7
REMARK VINA RESULT:      -8.1      2.782      4.692
REMARK  Name = 
REMARK  5 active torsions:
REMARK  status: ('A' for Active; 'I' for Inactive)
REMARK    1  A    between atoms: C_1  and  N_2
REMARK    2  A    between atoms: C_6  and  C_7
REMARK    3  A    between atoms: C_7  and  C_8
REMARK    4  A    between atoms: N_10  and  S_11
REMARK    5  A    between atoms: S_11  and  C_14
REMARK                            x       y       z     vdW  Elec       q    Type
REMARK                         _______ _______ _______ _____ _____    ______ ____
ROOT
ATOM      1  C   UNL     1       2.484   6.745  18.891  0.00  0.00    +0.000 A 
ATOM      2  C   UNL     1       3.782   6.753  18.419  0.00  0.00    +0.000 A 
ATOM      3  N   UNL     1       4.325   5.512  18.612  0.00  0.00    +0.000 N 
ATOM      4  C   UNL     1       3.473   4.711  19.338  0.00  0.00    +0.000 A 
ATOM      5  C   UNL     1       3.598   3.404  19.844  0.00  0.00    +0.000 A 
ATOM      6  C   UNL     1       2.514   2.848  20.527  0.00  0.00    +0.000 A 
ATOM      7  C   UNL     1       1.341   3.568  20.711  0.00  0.00    +0.000 A 
ATOM      8  C   UNL     1       1.219   4.869  20.211  0.00  0.00    +0.000 A 
ATOM      9  C   UNL     1       2.294   5.459  19.509  0.00  0.00    +0.000 A 
ENDROOT
BRANCH   3  10
ATOM     10  S   UNL     1       5.919   5.137  18.152  0.00  0.00    +0.000 S 
ATOM     11  O   UNL     1       6.697   6.350  18.321  0.00  0.00    +0.000 OA
ATOM     12  O   UNL     1       6.270   3.905  18.829  0.00  0.00    +0.000 OA
BRANCH  10  13
ATOM     13  C   UNL     1       5.987   4.780  16.416  0.00  0.00    +0.000 A 
ATOM     14  C   UNL     1       5.101   4.131  15.574  0.00  0.00    +0.000 A 
ATOM     15  C   UNL     1       5.564   4.088  14.226  0.00  0.00    +0.000 A 
ATOM     16  C   UNL     1       6.772   4.724  14.104  0.00  0.00    +0.000 A 
ATOM     17 CL   UNL     1       7.687   4.911  12.662  0.00  0.00    +0.000 Cl
ATOM     18  S   UNL     1       7.356   5.355  15.561  0.00  0.00    +0.000 S 
ENDBRANCH  10  13
ENDBRANCH   3  10
BRANCH   1  19
ATOM     19  C   UNL     1       1.507   7.891  18.826  0.00  0.00    +0.000 C 
BRANCH  19  25
ATOM     20  C   UNL     1       1.248  11.059  18.900  0.00  0.00    +0.000 C 
ATOM     21  N   UNL     1       0.714  10.064  19.822  0.00  0.00    +0.000 NA
ATOM     22  C   UNL     1       0.520  10.631  21.160  0.00  0.00    +0.000 C 
ATOM     23  C   UNL     1       0.295   9.404  22.017  0.00  0.00    +0.000 C 
ATOM     24  C   UNL     1       1.100   8.308  21.338  0.00  0.00    +0.000 C 
ATOM     25  C   UNL     1       1.595   8.891  20.004  0.00  0.00    +0.000 C 
ENDBRANCH  19  25
ENDBRANCH   1  19
TORSDOF 4
ENDMDL
MODEL 8
REMARK VINA RESULT:      -8.0      1.270      1.841
REMARK  Name = 
REMARK  5 active torsions:
REMARK  status: ('A' for Active; 'I' for Inactive)
REMARK    1  A    between atoms: C_1  and  N_2
REMARK    2  A    between atoms: C_6  and  C_7
REMARK    3  A    between atoms: C_7  and  C_8
REMARK    4  A    between atoms: N_10  and  S_11
REMARK    5  A    between atoms: S_11  and  C_14
REMARK                            x       y       z     vdW  Elec       q    Type
REMARK                         _______ _______ _______ _____ _____    ______ ____
ROOT
ATOM      1  C   UNL     1       4.529   4.183  18.740  0.00  0.00    +0.000 A 
ATOM      2  C   UNL     1       5.323   4.322  17.618  0.00  0.00    +0.000 A 
ATOM      3  N   UNL     1       5.150   5.581  17.113  0.00  0.00    +0.000 N 
ATOM      4  C   UNL     1       4.146   6.245  17.782  0.00  0.00    +0.000 A 
ATOM      5  C   UNL     1       3.556   7.509  17.599  0.00  0.00    +0.000 A 
ATOM      6  C   UNL     1       2.560   7.914  18.490  0.00  0.00    +0.000 A 
ATOM      7  C   UNL     1       2.151   7.088  19.528  0.00  0.00    +0.000 A 
ATOM      8  C   UNL     1       2.736   5.829  19.707  0.00  0.00    +0.000 A 
ATOM      9  C   UNL     1       3.752   5.391  18.828  0.00  0.00    +0.000 A 
ENDROOT
BRANCH   3  10
ATOM     10  S   UNL     1       5.969   6.123  15.725  0.00  0.00    +0.000 S 
ATOM     11  O   UNL     1       5.220   7.256  15.215  0.00  0.00    +0.000 OA
ATOM     12  O   UNL     1       7.369   6.232  16.082  0.00  0.00    +0.000 OA
BRANCH  10  13
ATOM     13  C   UNL     1       5.882   4.897  14.447  0.00  0.00    +0.000 A 
ATOM     14  C   UNL     1       4.842   4.098  14.005  0.00  0.00    +0.000 A 
ATOM     15  C   UNL     1       5.226   3.256  12.921  0.00  0.00    +0.000 A 
ATOM     16  C   UNL     1       6.536   3.467  12.577  0.00  0.00    +0.000 A 
ATOM     17 CL   UNL     1       7.405   2.671  11.327  0.00  0.00    +0.000 Cl
ATOM     18  S   UNL     1       7.305   4.637  13.526  0.00  0.00    +0.000 S 
ENDBRANCH  10  13
ENDBRANCH   3  10
BRANCH   1  19
ATOM     19  C   UNL     1       4.456   2.971  19.633  0.00  0.00    +0.000 C 
BRANCH  19  25
ATOM     20  C   UNL     1       2.215   2.654  21.867  0.00  0.00    +0.000 C 
ATOM     21  N   UNL     1       2.070   2.897  20.437  0.00  0.00    +0.000 NA
ATOM     22  C   UNL     1       0.780   2.406  19.943  0.00  0.00    +0.000 C 
ATOM     23  C   UNL     1       0.958   2.440  18.441  0.00  0.00    +0.000 C 
ATOM     24  C   UNL     1       2.441   2.193  18.224  0.00  0.00    +0.000 C 
ATOM     25  C   UNL     1       3.099   2.227  19.614  0.00  0.00    +0.000 C 
ENDBRANCH  19  25
ENDBRANCH   1  19
TORSDOF 4
ENDMDL
MODEL 9
REMARK VINA RESULT:      -7.9      2.337      4.447
REMARK  Name = 
REMARK  5 active torsions:
REMARK  status: ('A' for Active; 'I' for Inactive)
REMARK    1  A    between atoms: C_1  and  N_2
REMARK    2  A    between atoms: C_6  and  C_7
REMARK    3  A    between atoms: C_7  and  C_8
REMARK    4  A    between atoms: N_10  and  S_11
REMARK    5  A    between atoms: S_11  and  C_14
REMARK                            x       y       z     vdW  Elec       q    Type
REMARK                         _______ _______ _______ _____ _____    ______ ____
ROOT
ATOM      1  C   UNL     1       2.955   6.126  19.417  0.00  0.00    +0.000 A 
ATOM      2  C   UNL     1       4.260   6.321  19.009  0.00  0.00    +0.000 A 
ATOM      3  N   UNL     1       4.659   5.230  18.286  0.00  0.00    +0.000 N 
ATOM      4  C   UNL     1       3.703   4.239  18.323  0.00  0.00    +0.000 A 
ATOM      5  C   UNL     1       3.671   2.931  17.808  0.00  0.00    +0.000 A 
ATOM      6  C   UNL     1       2.513   2.172  17.991  0.00  0.00    +0.000 A 
ATOM      7  C   UNL     1       1.419   2.690  18.672  0.00  0.00    +0.000 A 
ATOM      8  C   UNL     1       1.454   3.991  19.187  0.00  0.00    +0.000 A 
ATOM      9  C   UNL     1       2.608   4.789  19.014  0.00  0.00    +0.000 A 
ENDROOT
BRANCH   3  10
ATOM     10  S   UNL     1       6.216   5.107  17.613  0.00  0.00    +0.000 S 
ATOM     11  O   UNL     1       6.785   6.442  17.634  0.00  0.00    +0.000 OA
ATOM     12  O   UNL     1       6.867   3.990  18.268  0.00  0.00    +0.000 OA
BRANCH  10  13
ATOM     13  C   UNL     1       6.108   4.675  15.896  0.00  0.00    +0.000 A 
ATOM     14  C   UNL     1       5.112   4.055  15.163  0.00  0.00    +0.000 A 
ATOM     15  C   UNL     1       5.452   3.925  13.784  0.00  0.00    +0.000 A 
ATOM     16  C   UNL     1       6.684   4.470  13.531  0.00  0.00    +0.000 A 
ATOM     17 CL   UNL     1       7.479   4.534  12.010  0.00  0.00    +0.000 Cl
ATOM     18  S   UNL     1       7.433   5.118  14.903  0.00  0.00    +0.000 S 
ENDBRANCH  10  13
ENDBRANCH   3  10
BRANCH   1  19
ATOM     19  C   UNL     1       2.110   7.105  20.192  0.00  0.00    +0.000 C 
BRANCH  19  25
ATOM     20  C   UNL     1       0.025   9.368  20.993  0.00  0.00    +0.000 C 
ATOM     21  N   UNL     1       1.123   9.417  20.034  0.00  0.00    +0.000 NA
ATOM     22  C   UNL     1       0.871  10.413  18.989  0.00  0.00    +0.000 C 
ATOM     23  C   UNL     1       1.917  10.082  17.948  0.00  0.00    +0.000 C 
ATOM     24  C   UNL     1       2.130   8.583  18.079  0.00  0.00    +0.000 C 
ATOM     25  C   UNL     1       1.349   8.138  19.327  0.00  0.00    +0.000 C 
ENDBRANCH  19  25
ENDBRANCH   1  19
TORSDOF 4
ENDMDL
