MODEL 1
REMARK VINA RESULT:      -7.3      0.000      0.000
REMARK  Name = 
REMARK  5 active torsions:
REMARK  status: ('A' for Active; 'I' for Inactive)
REMARK    1  A    between atoms: C_1  and  O_2
REMARK    2  A    between atoms: O_2  and  C_3
REMARK    3  A    between atoms: C_5  and  C_6
REMARK    4  A    between atoms: C_18  and  O_19
REMARK    5  A    between atoms: O_19  and  C_20
REMARK                            x       y       z     vdW  Elec       q    Type
REMARK                         _______ _______ _______ _____ _____    ______ ____
ROOT
ATOM      1  C   UNL     1       6.937   5.882  16.404  0.00  0.00    +0.000 A 
ATOM      2  C   UNL     1       5.996   5.606  17.391  0.00  0.00    +0.000 A 
ATOM      3  C   UNL     1       5.116   4.501  17.325  0.00  0.00    +0.000 A 
ATOM      4  C   UNL     1       5.223   3.735  16.173  0.00  0.00    +0.000 A 
ATOM      5  N   UNL     1       6.092   3.995  15.139  0.00  0.00    +0.000 NA
ATOM      6  C   UNL     1       6.932   5.058  15.287  0.00  0.00    +0.000 A 
ENDROOT
BRANCH   3   7
ATOM      7  C   UNL     1       4.385   4.177  18.571  0.00  0.00    +0.000 A 
ATOM      8  C   UNL     1       4.664   3.128  19.437  0.00  0.00    +0.000 A 
ATOM      9  N   UNL     1       3.551   2.698  20.091  0.00  0.00    +0.000 NA
ATOM     10  C   UNL     1       2.661   3.629  19.849  0.00  0.00    +0.000 A 
ATOM     11  C   UNL     1       1.374   3.802  20.403  0.00  0.00    +0.000 A 
ATOM     12  C   UNL     1       0.960   5.052  20.650  0.00  0.00    +0.000 A 
ATOM     13  C   UNL     1       1.778   6.200  20.286  0.00  0.00    +0.000 A 
ATOM     14 BR   UNL     1       1.391   7.831  21.096  0.00  0.00    +0.000 Br
ATOM     15  C   UNL     1       2.825   6.018  19.465  0.00  0.00    +0.000 A 
ATOM     16  N   UNL     1       3.252   4.715  19.184  0.00  0.00    +0.000 N 
ENDBRANCH   3   7
BRANCH   1  18
ATOM     17  C   UNL     1       7.604   7.867  17.526  0.00  0.00    +0.000 C 
ATOM     18  O   UNL     1       7.837   6.912  16.489  0.00  0.00    +0.000 OA
ENDBRANCH   1  18
BRANCH   6  19
ATOM     19  O   UNL     1       7.877   5.347  14.321  0.00  0.00    +0.000 OA
ATOM     20  C   UNL     1       7.550   4.905  13.014  0.00  0.00    +0.000 C 
ENDBRANCH   6  19
TORSDOF 3
ENDMDL
MODEL 2
REMARK VINA RESULT:      -6.9      4.193      6.597
REMARK  Name = 
REMARK  5 active torsions:
REMARK  status: ('A' for Active; 'I' for Inactive)
REMARK    1  A    between atoms: C_1  and  O_2
REMARK    2  A    between atoms: O_2  and  C_3
REMARK    3  A    between atoms: C_5  and  C_6
REMARK    4  A    between atoms: C_18  and  O_19
REMARK    5  A    between atoms: O_19  and  C_20
REMARK                            x       y       z     vdW  Elec       q    Type
REMARK                         _______ _______ _______ _____ _____    ______ ____
ROOT
ATOM      1  C   UNL     1       1.402   8.413  19.869  0.00  0.00    +0.000 A 
ATOM      2  C   UNL     1       2.211   7.301  19.654  0.00  0.00    +0.000 A 
ATOM      3  C   UNL     1       2.990   7.133  18.487  0.00  0.00    +0.000 A 
ATOM      4  C   UNL     1       2.853   8.139  17.540  0.00  0.00    +0.000 A 
ATOM      5  N   UNL     1       2.025   9.229  17.673  0.00  0.00    +0.000 NA
ATOM      6  C   UNL     1       1.328   9.340  18.839  0.00  0.00    +0.000 A 
ENDROOT
BRANCH   3   7
ATOM      7  C   UNL     1       4.007   6.057  18.533  0.00  0.00    +0.000 A 
ATOM      8  C   UNL     1       4.236   5.189  19.592  0.00  0.00    +0.000 A 
ATOM      9  N   UNL     1       5.529   4.769  19.636  0.00  0.00    +0.000 NA
ATOM     10  C   UNL     1       6.024   5.144  18.482  0.00  0.00    +0.000 A 
ATOM     11  C   UNL     1       7.274   4.837  17.902  0.00  0.00    +0.000 A 
ATOM     12  C   UNL     1       7.319   4.632  16.579  0.00  0.00    +0.000 A 
ATOM     13  C   UNL     1       6.132   4.799  15.752  0.00  0.00    +0.000 A 
ATOM     14 BR   UNL     1       6.139   4.024  14.059  0.00  0.00    +0.000 Br
ATOM     15  C   UNL     1       5.058   5.414  16.274  0.00  0.00    +0.000 A 
ATOM     16  N   UNL     1       5.011   5.651  17.652  0.00  0.00    +0.000 N 
ENDBRANCH   3   7
BRANCH   1  18
ATOM     17  C   UNL     1       1.444   9.078  22.149  0.00  0.00    +0.000 C 
ATOM     18  O   UNL     1       0.694   8.616  21.024  0.00  0.00    +0.000 OA
ENDBRANCH   1  18
BRANCH   6  19
ATOM     19  O   UNL     1       0.525  10.439  19.075  0.00  0.00    +0.000 OA
ATOM     20  C   UNL     1      -0.713  10.434  18.383  0.00  0.00    +0.000 C 
ENDBRANCH   6  19
TORSDOF 3
ENDMDL
MODEL 3
REMARK VINA RESULT:      -6.8      3.966      7.210
REMARK  Name = 
REMARK  5 active torsions:
REMARK  status: ('A' for Active; 'I' for Inactive)
REMARK    1  A    between atoms: C_1  and  O_2
REMARK    2  A    between atoms: O_2  and  C_3
REMARK    3  A    between atoms: C_5  and  C_6
REMARK    4  A    between atoms: C_18  and  O_19
REMARK    5  A    between atoms: O_19  and  C_20
REMARK                            x       y       z     vdW  Elec       q    Type
REMARK                         _______ _______ _______ _____ _____    ______ ____
ROOT
ATOM      1  C   UNL     1       2.942   3.716  17.855  0.00  0.00    +0.000 A 
ATOM      2  C   UNL     1       3.942   3.767  16.889  0.00  0.00    +0.000 A 
ATOM      3  C   UNL     1       4.611   4.963  16.539  0.00  0.00    +0.000 A 
ATOM      4  C   UNL     1       4.161   6.100  17.196  0.00  0.00    +0.000 A 
ATOM      5  N   UNL     1       3.139   6.117  18.116  0.00  0.00    +0.000 NA
ATOM      6  C   UNL     1       2.562   4.922  18.426  0.00  0.00    +0.000 A 
ENDROOT
BRANCH   3   7
ATOM      7  C   UNL     1       5.834   4.808  15.718  0.00  0.00    +0.000 A 
ATOM      8  C   UNL     1       7.137   5.049  16.133  0.00  0.00    +0.000 A 
ATOM      9  N   UNL     1       7.938   5.427  15.101  0.00  0.00    +0.000 NA
ATOM     10  C   UNL     1       7.226   5.164  14.033  0.00  0.00    +0.000 A 
ATOM     11  C   UNL     1       7.606   5.198  12.674  0.00  0.00    +0.000 A 
ATOM     12  C   UNL     1       7.108   4.258  11.859  0.00  0.00    +0.000 A 
ATOM     13  C   UNL     1       6.144   3.280  12.342  0.00  0.00    +0.000 A 
ATOM     14 BR   UNL     1       5.892   1.738  11.329  0.00  0.00    +0.000 Br
ATOM     15  C   UNL     1       5.552   3.482  13.531  0.00  0.00    +0.000 A 
ATOM     16  N   UNL     1       6.052   4.476  14.380  0.00  0.00    +0.000 N 
ENDBRANCH   3   7
BRANCH   1  18
ATOM     17  C   UNL     1       3.204   1.481  18.619  0.00  0.00    +0.000 C 
ATOM     18  O   UNL     1       2.334   2.552  18.247  0.00  0.00    +0.000 OA
ENDBRANCH   1  18
BRANCH   6  19
ATOM     19  O   UNL     1       1.571   4.848  19.386  0.00  0.00    +0.000 OA
ATOM     20  C   UNL     1       2.023   4.990  20.723  0.00  0.00    +0.000 C 
ENDBRANCH   6  19
TORSDOF 3
ENDMDL
MODEL 4
REMARK VINA RESULT:      -6.4      4.435      6.690
REMARK  Name = 
REMARK  5 active torsions:
REMARK  status: ('A' for Active; 'I' for Inactive)
REMARK    1  A    between atoms: C_1  and  O_2
REMARK    2  A    between atoms: O_2  and  C_3
REMARK    3  A    between atoms: C_5  and  C_6
REMARK    4  A    between atoms: C_18  and  O_19
REMARK    5  A    between atoms: O_19  and  C_20
REMARK                            x       y       z     vdW  Elec       q    Type
REMARK                         _______ _______ _______ _____ _____    ______ ____
ROOT
ATOM      1  C   UNL     1       1.046   9.690  20.492  0.00  0.00    +0.000 A 
ATOM      2  C   UNL     1       1.480   8.448  20.039  0.00  0.00    +0.000 A 
ATOM      3  C   UNL     1       1.973   8.236  18.732  0.00  0.00    +0.000 A 
ATOM      4  C   UNL     1       1.949   9.353  17.908  0.00  0.00    +0.000 A 
ATOM      5  N   UNL     1       1.478  10.590  18.283  0.00  0.00    +0.000 NA
ATOM      6  C   UNL     1       1.046  10.726  19.568  0.00  0.00    +0.000 A 
ENDROOT
BRANCH   3   7
ATOM      7  C   UNL     1       2.659   6.945  18.496  0.00  0.00    +0.000 A 
ATOM      8  C   UNL     1       3.858   6.764  17.820  0.00  0.00    +0.000 A 
ATOM      9  N   UNL     1       3.931   5.541  17.230  0.00  0.00    +0.000 NA
ATOM     10  C   UNL     1       2.929   4.877  17.752  0.00  0.00    +0.000 A 
ATOM     11  C   UNL     1       2.607   3.506  17.639  0.00  0.00    +0.000 A 
ATOM     12  C   UNL     1       2.111   2.887  18.718  0.00  0.00    +0.000 A 
ATOM     13  C   UNL     1       1.837   3.621  19.946  0.00  0.00    +0.000 A 
ATOM     14 BR   UNL     1       1.642   2.640  21.516  0.00  0.00    +0.000 Br
ATOM     15  C   UNL     1       1.831   4.964  19.913  0.00  0.00    +0.000 A 
ATOM     16  N   UNL     1       2.328   5.620  18.781  0.00  0.00    +0.000 N 
ENDBRANCH   3   7
BRANCH   1  18
ATOM     17  C   UNL     1      -0.380   9.037  22.276  0.00  0.00    +0.000 C 
ATOM     18  O   UNL     1       0.627   9.919  21.776  0.00  0.00    +0.000 OA
ENDBRANCH   1  18
BRANCH   6  19
ATOM     19  O   UNL     1       0.617  11.952  20.040  0.00  0.00    +0.000 OA
ATOM     20  C   UNL     1       1.634  12.933  20.165  0.00  0.00    +0.000 C 
ENDBRANCH   6  19
TORSDOF 3
ENDMDL
MODEL 5
REMARK VINA RESULT:      -6.3      2.073      3.213
REMARK  Name = 
REMARK  5 active torsions:
REMARK  status: ('A' for Active; 'I' for Inactive)
REMARK    1  A    between atoms: C_1  and  O_2
REMARK    2  A    between atoms: O_2  and  C_3
REMARK    3  A    between atoms: C_5  and  C_6
REMARK    4  A    between atoms: C_18  and  O_19
REMARK    5  A    between atoms: O_19  and  C_20
REMARK                            x       y       z     vdW  Elec       q    Type
REMARK                         _______ _______ _______ _____ _____    ______ ____
ROOT
ATOM      1  C   UNL     1       6.132   4.389  15.001  0.00  0.00    +0.000 A 
ATOM      2  C   UNL     1       5.144   4.640  15.948  0.00  0.00    +0.000 A 
ATOM      3  C   UNL     1       5.235   5.688  16.892  0.00  0.00    +0.000 A 
ATOM      4  C   UNL     1       6.411   6.423  16.841  0.00  0.00    +0.000 A 
ATOM      5  N   UNL     1       7.445   6.183  15.966  0.00  0.00    +0.000 NA
ATOM      6  C   UNL     1       7.273   5.176  15.064  0.00  0.00    +0.000 A 
ENDROOT
BRANCH   3   7
ATOM      7  C   UNL     1       3.992   6.008  17.632  0.00  0.00    +0.000 A 
ATOM      8  C   UNL     1       3.370   7.247  17.694  0.00  0.00    +0.000 A 
ATOM      9  N   UNL     1       2.680   7.413  18.854  0.00  0.00    +0.000 NA
ATOM     10  C   UNL     1       2.643   6.212  19.376  0.00  0.00    +0.000 A 
ATOM     11  C   UNL     1       1.922   5.744  20.496  0.00  0.00    +0.000 A 
ATOM     12  C   UNL     1       1.405   4.509  20.438  0.00  0.00    +0.000 A 
ATOM     13  C   UNL     1       1.646   3.646  19.290  0.00  0.00    +0.000 A 
ATOM     14 BR   UNL     1       0.514   2.189  19.049  0.00  0.00    +0.000 Br
ATOM     15  C   UNL     1       2.604   3.987  18.411  0.00  0.00    +0.000 A 
ATOM     16  N   UNL     1       3.164   5.267  18.477  0.00  0.00    +0.000 N 
ENDBRANCH   3   7
BRANCH   1  18
ATOM     17  C   UNL     1       5.216   3.740  12.907  0.00  0.00    +0.000 C 
ATOM     18  O   UNL     1       6.024   3.418  14.041  0.00  0.00    +0.000 OA
ENDBRANCH   1  18
BRANCH   6  19
ATOM     19  O   UNL     1       8.239   4.913  14.111  0.00  0.00    +0.000 OA
ATOM     20  C   UNL     1       8.244   5.801  13.006  0.00  0.00    +0.000 C 
ENDBRANCH   6  19
TORSDOF 3
ENDMDL
MODEL 6
REMARK VINA RESULT:      -6.3      3.909      6.784
REMARK  Name = 
REMARK  5 active torsions:
REMARK  status: ('A' for Active; 'I' for Inactive)
REMARK    1  A    between atoms: C_1  and  O_2
REMARK    2  A    between atoms: O_2  and  C_3
REMARK    3  A    between atoms: C_5  and  C_6
REMARK    4  A    between atoms: C_18  and  O_19
REMARK    5  A    between atoms: O_19  and  C_20
REMARK                            x       y       z     vdW  Elec       q    Type
REMARK                         _______ _______ _______ _____ _____    ______ ____
ROOT
ATOM      1  C   UNL     1       2.884   5.067  20.080  0.00  0.00    +0.000 A 
ATOM      2  C   UNL     1       3.808   4.618  19.143  0.00  0.00    +0.000 A 
ATOM      3  C   UNL     1       4.221   5.396  18.037  0.00  0.00    +0.000 A 
ATOM      4  C   UNL     1       3.597   6.630  17.924  0.00  0.00    +0.000 A 
ATOM      5  N   UNL     1       2.634   7.102  18.786  0.00  0.00    +0.000 NA
ATOM      6  C   UNL     1       2.310   6.309  19.846  0.00  0.00    +0.000 A 
ENDROOT
BRANCH   3   7
ATOM      7  C   UNL     1       5.410   4.905  17.303  0.00  0.00    +0.000 A 
ATOM      8  C   UNL     1       6.594   4.451  17.869  0.00  0.00    +0.000 A 
ATOM      9  N   UNL     1       7.661   4.656  17.050  0.00  0.00    +0.000 NA
ATOM     10  C   UNL     1       7.121   4.974  15.899  0.00  0.00    +0.000 A 
ATOM     11  C   UNL     1       7.735   5.137  14.638  0.00  0.00    +0.000 A 
ATOM     12  C   UNL     1       7.066   4.717  13.556  0.00  0.00    +0.000 A 
ATOM     13  C   UNL     1       5.716   4.182  13.668  0.00  0.00    +0.000 A 
ATOM     14 BR   UNL     1       5.063   3.172  12.247  0.00  0.00    +0.000 Br
ATOM     15  C   UNL     1       5.041   4.355  14.817  0.00  0.00    +0.000 A 
ATOM     16  N   UNL     1       5.727   4.814  15.947  0.00  0.00    +0.000 N 
ENDBRANCH   3   7
BRANCH   1  18
ATOM     17  C   UNL     1       1.951   3.061  20.947  0.00  0.00    +0.000 C 
ATOM     18  O   UNL     1       2.526   4.347  21.190  0.00  0.00    +0.000 OA
ENDBRANCH   1  18
BRANCH   6  19
ATOM     19  O   UNL     1       1.399   6.738  20.792  0.00  0.00    +0.000 OA
ATOM     20  C   UNL     1       1.397   8.136  21.029  0.00  0.00    +0.000 C 
ENDBRANCH   6  19
TORSDOF 3
ENDMDL
MODEL 7
REMARK VINA RESULT:      -6.3      4.543      7.128
REMARK  Name = 
REMARK  5 active torsions:
REMARK  status: ('A' for Active; 'I' for Inactive)
REMARK    1  A    between atoms: C_1  and  O_2
REMARK    2  A    between atoms: O_2  and  C_3
REMARK    3  A    between atoms: C_5  and  C_6
REMARK    4  A    between atoms: C_18  and  O_19
REMARK    5  A    between atoms: O_19  and  C_20
REMARK                            x       y       z     vdW  Elec       q    Type
REMARK                         _______ _______ _______ _____ _____    ______ ____
ROOT
ATOM      1  C   UNL     1       1.059   9.659  21.160  0.00  0.00    +0.000 A 
ATOM      2  C   UNL     1       1.442   8.360  20.843  0.00  0.00    +0.000 A 
ATOM      3  C   UNL     1       1.789   7.959  19.533  0.00  0.00    +0.000 A 
ATOM      4  C   UNL     1       1.673   8.949  18.567  0.00  0.00    +0.000 A 
ATOM      5  N   UNL     1       1.244  10.233  18.812  0.00  0.00    +0.000 NA
ATOM      6  C   UNL     1       0.956  10.555  20.104  0.00  0.00    +0.000 A 
ENDROOT
BRANCH   3   7
ATOM      7  C   UNL     1       2.447   6.638  19.410  0.00  0.00    +0.000 A 
ATOM      8  C   UNL     1       2.064   5.468  20.050  0.00  0.00    +0.000 A 
ATOM      9  N   UNL     1       3.118   4.634  20.261  0.00  0.00    +0.000 NA
ATOM     10  C   UNL     1       4.078   5.144  19.529  0.00  0.00    +0.000 A 
ATOM     11  C   UNL     1       5.351   4.614  19.226  0.00  0.00    +0.000 A 
ATOM     12  C   UNL     1       5.838   4.817  17.995  0.00  0.00    +0.000 A 
ATOM     13  C   UNL     1       5.114   5.626  17.024  0.00  0.00    +0.000 A 
ATOM     14 BR   UNL     1       5.578   5.447  15.230  0.00  0.00    +0.000 Br
ATOM     15  C   UNL     1       4.091   6.387  17.446  0.00  0.00    +0.000 A 
ATOM     16  N   UNL     1       3.588   6.197  18.738  0.00  0.00    +0.000 N 
ENDBRANCH   3   7
BRANCH   1  18
ATOM     17  C   UNL     1      -0.440   9.596  23.002  0.00  0.00    +0.000 C 
ATOM     18  O   UNL     1       0.783  10.073  22.436  0.00  0.00    +0.000 OA
ENDBRANCH   1  18
BRANCH   6  19
ATOM     19  O   UNL     1       0.579  11.841  20.441  0.00  0.00    +0.000 OA
ATOM     20  C   UNL     1      -0.753  12.183  20.098  0.00  0.00    +0.000 C 
ENDBRANCH   6  19
TORSDOF 3
ENDMDL
MODEL 8
REMARK VINA RESULT:      -6.2      3.849      7.008
REMARK  Name = 
REMARK  5 active torsions:
REMARK  status: ('A' for Active; 'I' for Inactive)
REMARK    1  A    between atoms: C_1  and  O_2
REMARK    2  A    between atoms: O_2  and  C_3
REMARK    3  A    between atoms: C_5  and  C_6
REMARK    4  A    between atoms: C_18  and  O_19
REMARK    5  A    between atoms: O_19  and  C_20
REMARK                            x       y       z     vdW  Elec       q    Type
REMARK                         _______ _______ _______ _____ _____    ______ ____
ROOT
ATOM      1  C   UNL     1       2.923   5.206  17.806  0.00  0.00    +0.000 A 
ATOM      2  C   UNL     1       4.170   5.221  17.189  0.00  0.00    +0.000 A 
ATOM      3  C   UNL     1       4.800   4.053  16.702  0.00  0.00    +0.000 A 
ATOM      4  C   UNL     1       4.104   2.874  16.931  0.00  0.00    +0.000 A 
ATOM      5  N   UNL     1       2.898   2.793  17.586  0.00  0.00    +0.000 NA
ATOM      6  C   UNL     1       2.336   3.964  17.999  0.00  0.00    +0.000 A 
ENDROOT
BRANCH   3   7
ATOM      7  C   UNL     1       5.972   4.264  15.822  0.00  0.00    +0.000 A 
ATOM      8  C   UNL     1       7.210   4.759  16.209  0.00  0.00    +0.000 A 
ATOM      9  N   UNL     1       7.839   5.409  15.193  0.00  0.00    +0.000 NA
ATOM     10  C   UNL     1       7.140   5.089  14.131  0.00  0.00    +0.000 A 
ATOM     11  C   UNL     1       7.416   5.339  12.769  0.00  0.00    +0.000 A 
ATOM     12  C   UNL     1       7.094   4.390  11.880  0.00  0.00    +0.000 A 
ATOM     13  C   UNL     1       6.408   3.174  12.293  0.00  0.00    +0.000 A 
ATOM     14 BR   UNL     1       6.449   1.719  11.134  0.00  0.00    +0.000 Br
ATOM     15  C   UNL     1       5.862   3.121  13.520  0.00  0.00    +0.000 A 
ATOM     16  N   UNL     1       6.176   4.119  14.449  0.00  0.00    +0.000 N 
ENDBRANCH   3   7
BRANCH   1  18
ATOM     17  C   UNL     1       2.613   6.815  19.527  0.00  0.00    +0.000 C 
ATOM     18  O   UNL     1       2.276   6.340  18.222  0.00  0.00    +0.000 OA
ENDBRANCH   1  18
BRANCH   6  19
ATOM     19  O   UNL     1       1.096   3.972  18.609  0.00  0.00    +0.000 OA
ATOM     20  C   UNL     1       1.052   3.351  19.883  0.00  0.00    +0.000 C 
ENDBRANCH   6  19
TORSDOF 3
ENDMDL
MODEL 9
REMARK VINA RESULT:      -6.2      2.139      2.788
REMARK  Name = 
REMARK  5 active torsions:
REMARK  status: ('A' for Active; 'I' for Inactive)
REMARK    1  A    between atoms: C_1  and  O_2
REMARK    2  A    between atoms: O_2  and  C_3
REMARK    3  A    between atoms: C_5  and  C_6
REMARK    4  A    between atoms: C_18  and  O_19
REMARK    5  A    between atoms: O_19  and  C_20
REMARK                            x       y       z     vdW  Elec       q    Type
REMARK                         _______ _______ _______ _____ _____    ______ ____
ROOT
ATOM      1  C   UNL     1       6.885   5.181  16.684  0.00  0.00    +0.000 A 
ATOM      2  C   UNL     1       5.812   5.598  17.465  0.00  0.00    +0.000 A 
ATOM      3  C   UNL     1       4.704   6.299  16.937  0.00  0.00    +0.000 A 
ATOM      4  C   UNL     1       4.786   6.591  15.582  0.00  0.00    +0.000 A 
ATOM      5  N   UNL     1       5.848   6.256  14.774  0.00  0.00    +0.000 NA
ATOM      6  C   UNL     1       6.865   5.553  15.346  0.00  0.00    +0.000 A 
ENDROOT
BRANCH   3   7
ATOM      7  C   UNL     1       3.524   6.415  17.824  0.00  0.00    +0.000 A 
ATOM      8  C   UNL     1       2.817   7.577  18.102  0.00  0.00    +0.000 A 
ATOM      9  N   UNL     1       2.240   7.540  19.333  0.00  0.00    +0.000 NA
ATOM     10  C   UNL     1       2.352   6.287  19.698  0.00  0.00    +0.000 A 
ATOM     11  C   UNL     1       1.789   5.625  20.812  0.00  0.00    +0.000 A 
ATOM     12  C   UNL     1       1.367   4.365  20.646  0.00  0.00    +0.000 A 
ATOM     13  C   UNL     1       1.554   3.671  19.380  0.00  0.00    +0.000 A 
ATOM     14 BR   UNL     1       0.520   2.156  19.061  0.00  0.00    +0.000 Br
ATOM     15  C   UNL     1       2.385   4.198  18.465  0.00  0.00    +0.000 A 
ATOM     16  N   UNL     1       2.848   5.507  18.641  0.00  0.00    +0.000 N 
ENDBRANCH   3   7
BRANCH   1  18
ATOM     17  C   UNL     1       8.259   4.653  18.549  0.00  0.00    +0.000 C 
ATOM     18  O   UNL     1       7.931   4.445  17.173  0.00  0.00    +0.000 OA
ENDBRANCH   1  18
BRANCH   6  19
ATOM     19  O   UNL     1       7.938   5.125  14.587  0.00  0.00    +0.000 OA
ATOM     20  C   UNL     1       7.699   5.074  13.191  0.00  0.00    +0.000 C 
ENDBRANCH   6  19
TORSDOF 3
ENDMDL
