MODEL 1
REMARK VINA RESULT:      -6.6      0.000      0.000
REMARK  Name = 
REMARK  2 active torsions:
REMARK  status: ('A' for Active; 'I' for Inactive)
REMARK    1  A    between atoms: N_4  and  C_5
REMARK    2  A    between atoms: C_5  and  C_6
REMARK                            x       y       z     vdW  Elec       q    Type
REMARK                         _______ _______ _______ _____ _____    ______ ____
ROOT
ATOM      1  C   UNL     1       3.796   5.991  18.264  0.00  0.00    +0.000 C 
ENDROOT
BRANCH   1   5
ATOM      2  N   UNL     1       5.466   3.671  18.771  0.00  0.00    +0.000 NA
ATOM      3  C   UNL     1       5.343   4.218  17.622  0.00  0.00    +0.000 C 
ATOM      4  N   UNL     1       6.057   3.715  16.599  0.00  0.00    +0.000 N 
ATOM      5  N   UNL     1       4.559   5.265  17.254  0.00  0.00    +0.000 N 
ATOM      6  H   UNL     1       4.887   4.142  19.464  0.00  0.00    +0.000 HD
ATOM      7  H   UNL     1       6.595   2.928  16.960  0.00  0.00    +0.000 HD
ATOM      8  H   UNL     1       5.471   3.362  15.853  0.00  0.00    +0.000 HD
ATOM      9  H   UNL     1       5.072   5.890  16.627  0.00  0.00    +0.000 HD
ENDBRANCH   1   5
BRANCH   1  10
ATOM     10  C   UNL     1       2.310   5.640  18.353  0.00  0.00    +0.000 C 
ATOM     11  C   UNL     1       1.657   4.422  17.587  0.00  0.00    +0.000 C 
ATOM     12  C   UNL     1       1.553   3.749  18.925  0.00  0.00    +0.000 A 
ATOM     13  C   UNL     1       1.205   2.585  19.567  0.00  0.00    +0.000 A 
ATOM     14  C   UNL     1       1.457   2.511  20.940  0.00  0.00    +0.000 A 
ATOM     15  C   UNL     1       2.036   3.596  21.627  0.00  0.00    +0.000 A 
ATOM     16  C   UNL     1       2.345   4.777  20.953  0.00  0.00    +0.000 A 
ATOM     17  C   UNL     1       2.080   4.818  19.604  0.00  0.00    +0.000 A 
ENDBRANCH   1  10
TORSDOF 2
ENDMDL
MODEL 2
REMARK VINA RESULT:      -6.6      1.712      3.251
REMARK  Name = 
REMARK  2 active torsions:
REMARK  status: ('A' for Active; 'I' for Inactive)
REMARK    1  A    between atoms: N_4  and  C_5
REMARK    2  A    between atoms: C_5  and  C_6
REMARK                            x       y       z     vdW  Elec       q    Type
REMARK                         _______ _______ _______ _____ _____    ______ ____
ROOT
ATOM      1  C   UNL     1       2.656   2.248  17.924  0.00  0.00    +0.000 C 
ENDROOT
BRANCH   1   5
ATOM      2  N   UNL     1       5.053   3.336  19.148  0.00  0.00    +0.000 NA
ATOM      3  C   UNL     1       4.571   2.186  19.432  0.00  0.00    +0.000 C 
ATOM      4  N   UNL     1       5.234   1.420  20.318  0.00  0.00    +0.000 N 
ATOM      5  N   UNL     1       3.439   1.595  18.968  0.00  0.00    +0.000 N 
ATOM      6  H   UNL     1       4.473   3.817  18.462  0.00  0.00    +0.000 HD
ATOM      7  H   UNL     1       6.052   1.947  20.624  0.00  0.00    +0.000 HD
ATOM      8  H   UNL     1       4.683   1.214  21.141  0.00  0.00    +0.000 HD
ATOM      9  H   UNL     1       3.610   0.607  18.769  0.00  0.00    +0.000 HD
ENDBRANCH   1   5
BRANCH   1  10
ATOM     10  C   UNL     1       1.416   3.007  18.400  0.00  0.00    +0.000 C 
ATOM     11  C   UNL     1       0.968   3.077  19.913  0.00  0.00    +0.000 C 
ATOM     12  C   UNL     1       1.423   4.507  19.891  0.00  0.00    +0.000 A 
ATOM     13  C   UNL     1       1.613   5.632  20.657  0.00  0.00    +0.000 A 
ATOM     14  C   UNL     1       2.231   6.727  20.045  0.00  0.00    +0.000 A 
ATOM     15  C   UNL     1       2.628   6.669  18.695  0.00  0.00    +0.000 A 
ATOM     16  C   UNL     1       2.390   5.525  17.935  0.00  0.00    +0.000 A 
ATOM     17  C   UNL     1       1.776   4.469  18.566  0.00  0.00    +0.000 A 
ENDBRANCH   1  10
TORSDOF 2
ENDMDL
MODEL 3
REMARK VINA RESULT:      -6.5      1.576      2.002
REMARK  Name = 
REMARK  2 active torsions:
REMARK  status: ('A' for Active; 'I' for Inactive)
REMARK    1  A    between atoms: N_4  and  C_5
REMARK    2  A    between atoms: C_5  and  C_6
REMARK                            x       y       z     vdW  Elec       q    Type
REMARK                         _______ _______ _______ _____ _____    ______ ____
ROOT
ATOM      1  C   UNL     1       4.945   4.005  17.512  0.00  0.00    +0.000 C 
ENDROOT
BRANCH   1   5
ATOM      2  N   UNL     1       7.812   4.226  17.116  0.00  0.00    +0.000 NA
ATOM      3  C   UNL     1       6.988   5.173  16.874  0.00  0.00    +0.000 C 
ATOM      4  N   UNL     1       7.481   6.351  16.450  0.00  0.00    +0.000 N 
ATOM      5  N   UNL     1       5.633   5.172  16.970  0.00  0.00    +0.000 N 
ATOM      6  H   UNL     1       7.325   3.391  17.438  0.00  0.00    +0.000 HD
ATOM      7  H   UNL     1       8.494   6.254  16.389  0.00  0.00    +0.000 HD
ATOM      8  H   UNL     1       7.147   6.602  15.528  0.00  0.00    +0.000 HD
ATOM      9  H   UNL     1       5.305   6.047  17.386  0.00  0.00    +0.000 HD
ENDBRANCH   1   5
BRANCH   1  10
ATOM     10  C   UNL     1       3.445   3.924  17.222  0.00  0.00    +0.000 C 
ATOM     11  C   UNL     1       2.591   2.609  17.420  0.00  0.00    +0.000 C 
ATOM     12  C   UNL     1       1.984   3.287  18.613  0.00  0.00    +0.000 A 
ATOM     13  C   UNL     1       1.132   3.124  19.679  0.00  0.00    +0.000 A 
ATOM     14  C   UNL     1       1.049   4.173  20.599  0.00  0.00    +0.000 A 
ATOM     15  C   UNL     1       1.805   5.348  20.424  0.00  0.00    +0.000 A 
ATOM     16  C   UNL     1       2.635   5.498  19.313  0.00  0.00    +0.000 A 
ATOM     17  C   UNL     1       2.690   4.449  18.425  0.00  0.00    +0.000 A 
ENDBRANCH   1  10
TORSDOF 2
ENDMDL
MODEL 4
REMARK VINA RESULT:      -6.5      1.234      1.386
REMARK  Name = 
REMARK  2 active torsions:
REMARK  status: ('A' for Active; 'I' for Inactive)
REMARK    1  A    between atoms: N_4  and  C_5
REMARK    2  A    between atoms: C_5  and  C_6
REMARK                            x       y       z     vdW  Elec       q    Type
REMARK                         _______ _______ _______ _____ _____    ______ ____
ROOT
ATOM      1  C   UNL     1       4.884   4.542  18.061  0.00  0.00    +0.000 C 
ENDROOT
BRANCH   1   5
ATOM      2  N   UNL     1       7.779   4.330  17.999  0.00  0.00    +0.000 NA
ATOM      3  C   UNL     1       7.061   4.538  16.961  0.00  0.00    +0.000 C 
ATOM      4  N   UNL     1       7.684   4.708  15.781  0.00  0.00    +0.000 N 
ATOM      5  N   UNL     1       5.708   4.605  16.858  0.00  0.00    +0.000 N 
ATOM      6  H   UNL     1       7.199   4.227  18.830  0.00  0.00    +0.000 HD
ATOM      7  H   UNL     1       8.686   4.623  15.950  0.00  0.00    +0.000 HD
ATOM      8  H   UNL     1       7.432   3.999  15.103  0.00  0.00    +0.000 HD
ATOM      9  H   UNL     1       5.436   5.371  16.237  0.00  0.00    +0.000 HD
ENDBRANCH   1   5
BRANCH   1  10
ATOM     10  C   UNL     1       3.387   4.778  17.854  0.00  0.00    +0.000 C 
ATOM     11  C   UNL     1       2.420   3.710  17.206  0.00  0.00    +0.000 C 
ATOM     12  C   UNL     1       1.858   3.511  18.584  0.00  0.00    +0.000 A 
ATOM     13  C   UNL     1       0.980   2.769  19.337  0.00  0.00    +0.000 A 
ATOM     14  C   UNL     1       0.977   2.990  20.718  0.00  0.00    +0.000 A 
ATOM     15  C   UNL     1       1.835   3.943  21.298  0.00  0.00    +0.000 A 
ATOM     16  C   UNL     1       2.689   4.706  20.502  0.00  0.00    +0.000 A 
ATOM     17  C   UNL     1       2.664   4.467  19.148  0.00  0.00    +0.000 A 
ENDBRANCH   1  10
TORSDOF 2
ENDMDL
MODEL 5
REMARK VINA RESULT:      -6.4      1.553      2.191
REMARK  Name = 
REMARK  2 active torsions:
REMARK  status: ('A' for Active; 'I' for Inactive)
REMARK    1  A    between atoms: N_4  and  C_5
REMARK    2  A    between atoms: C_5  and  C_6
REMARK                            x       y       z     vdW  Elec       q    Type
REMARK                         _______ _______ _______ _____ _____    ______ ____
ROOT
ATOM      1  C   UNL     1       5.651   5.123  18.883  0.00  0.00    +0.000 C 
ENDROOT
BRANCH   1   5
ATOM      2  N   UNL     1       8.049   4.155  17.563  0.00  0.00    +0.000 NA
ATOM      3  C   UNL     1       7.188   4.916  17.001  0.00  0.00    +0.000 C 
ATOM      4  N   UNL     1       7.426   5.323  15.741  0.00  0.00    +0.000 N 
ATOM      5  N   UNL     1       6.013   5.388  17.494  0.00  0.00    +0.000 N 
ATOM      6  H   UNL     1       7.765   3.922  18.513  0.00  0.00    +0.000 HD
ATOM      7  H   UNL     1       8.311   4.909  15.449  0.00  0.00    +0.000 HD
ATOM      8  H   UNL     1       6.717   5.009  15.091  0.00  0.00    +0.000 HD
ATOM      9  H   UNL     1       5.889   6.370  17.238  0.00  0.00    +0.000 HD
ENDBRANCH   1   5
BRANCH   1  10
ATOM     10  C   UNL     1       4.235   5.534  19.290  0.00  0.00    +0.000 C 
ATOM     11  C   UNL     1       3.165   6.094  18.271  0.00  0.00    +0.000 C 
ATOM     12  C   UNL     1       2.464   4.775  18.416  0.00  0.00    +0.000 A 
ATOM     13  C   UNL     1       1.417   4.009  17.962  0.00  0.00    +0.000 A 
ATOM     14  C   UNL     1       1.332   2.696  18.435  0.00  0.00    +0.000 A 
ATOM     15  C   UNL     1       2.282   2.195  19.346  0.00  0.00    +0.000 A 
ATOM     16  C   UNL     1       3.312   3.008  19.815  0.00  0.00    +0.000 A 
ATOM     17  C   UNL     1       3.364   4.295  19.334  0.00  0.00    +0.000 A 
ENDBRANCH   1  10
TORSDOF 2
ENDMDL
MODEL 6
REMARK VINA RESULT:      -6.3      1.473      1.529
REMARK  Name = 
REMARK  2 active torsions:
REMARK  status: ('A' for Active; 'I' for Inactive)
REMARK    1  A    between atoms: N_4  and  C_5
REMARK    2  A    between atoms: C_5  and  C_6
REMARK                            x       y       z     vdW  Elec       q    Type
REMARK                         _______ _______ _______ _____ _____    ______ ____
ROOT
ATOM      1  C   UNL     1       4.639   5.623  18.350  0.00  0.00    +0.000 C 
ENDROOT
BRANCH   1   5
ATOM      2  N   UNL     1       7.180   5.366  19.729  0.00  0.00    +0.000 NA
ATOM      3  C   UNL     1       6.969   4.932  18.545  0.00  0.00    +0.000 C 
ATOM      4  N   UNL     1       7.993   4.360  17.886  0.00  0.00    +0.000 N 
ATOM      5  N   UNL     1       5.819   4.948  17.821  0.00  0.00    +0.000 N 
ATOM      6  H   UNL     1       6.338   5.785  20.121  0.00  0.00    +0.000 HD
ATOM      7  H   UNL     1       8.802   4.374  18.508  0.00  0.00    +0.000 HD
ATOM      8  H   UNL     1       7.812   3.392  17.651  0.00  0.00    +0.000 HD
ATOM      9  H   UNL     1       6.015   5.203  16.850  0.00  0.00    +0.000 HD
ENDBRANCH   1   5
BRANCH   1  10
ATOM     10  C   UNL     1       3.309   5.244  17.697  0.00  0.00    +0.000 C 
ATOM     11  C   UNL     1       3.043   3.843  17.016  0.00  0.00    +0.000 C 
ATOM     12  C   UNL     1       2.169   3.533  18.196  0.00  0.00    +0.000 A 
ATOM     13  C   UNL     1       1.411   2.559  18.801  0.00  0.00    +0.000 A 
ATOM     14  C   UNL     1       0.880   2.851  20.061  0.00  0.00    +0.000 A 
ATOM     15  C   UNL     1       1.112   4.100  20.669  0.00  0.00    +0.000 A 
ATOM     16  C   UNL     1       1.856   5.081  20.014  0.00  0.00    +0.000 A 
ATOM     17  C   UNL     1       2.360   4.762  18.774  0.00  0.00    +0.000 A 
ENDBRANCH   1  10
TORSDOF 2
ENDMDL
MODEL 7
REMARK VINA RESULT:      -6.3      1.515      2.060
REMARK  Name = 
REMARK  2 active torsions:
REMARK  status: ('A' for Active; 'I' for Inactive)
REMARK    1  A    between atoms: N_4  and  C_5
REMARK    2  A    between atoms: C_5  and  C_6
REMARK                            x       y       z     vdW  Elec       q    Type
REMARK                         _______ _______ _______ _____ _____    ______ ____
ROOT
ATOM      1  C   UNL     1       5.190   4.244  17.733  0.00  0.00    +0.000 C 
ENDROOT
BRANCH   1   5
ATOM      2  N   UNL     1       6.564   6.541  16.609  0.00  0.00    +0.000 NA
ATOM      3  C   UNL     1       6.701   5.349  16.170  0.00  0.00    +0.000 C 
ATOM      4  N   UNL     1       7.495   5.152  15.101  0.00  0.00    +0.000 N 
ATOM      5  N   UNL     1       6.156   4.196  16.640  0.00  0.00    +0.000 N 
ATOM      6  H   UNL     1       5.935   6.566  17.411  0.00  0.00    +0.000 HD
ATOM      7  H   UNL     1       7.872   6.060  14.831  0.00  0.00    +0.000 HD
ATOM      8  H   UNL     1       8.281   4.549  15.307  0.00  0.00    +0.000 HD
ATOM      9  H   UNL     1       5.841   3.609  15.864  0.00  0.00    +0.000 HD
ENDBRANCH   1   5
BRANCH   1  10
ATOM     10  C   UNL     1       3.726   4.401  17.319  0.00  0.00    +0.000 C 
ATOM     11  C   UNL     1       2.736   3.182  17.145  0.00  0.00    +0.000 C 
ATOM     12  C   UNL     1       2.079   3.647  18.412  0.00  0.00    +0.000 A 
ATOM     13  C   UNL     1       1.113   3.353  19.344  0.00  0.00    +0.000 A 
ATOM     14  C   UNL     1       1.038   4.177  20.471  0.00  0.00    +0.000 A 
ATOM     15  C   UNL     1       1.917   5.267  20.627  0.00  0.00    +0.000 A 
ATOM     16  C   UNL     1       2.863   5.560  19.646  0.00  0.00    +0.000 A 
ATOM     17  C   UNL     1       2.907   4.732  18.549  0.00  0.00    +0.000 A 
ENDBRANCH   1  10
TORSDOF 2
ENDMDL
MODEL 8
REMARK VINA RESULT:      -6.3      1.635      2.232
REMARK  Name = 
REMARK  2 active torsions:
REMARK  status: ('A' for Active; 'I' for Inactive)
REMARK    1  A    between atoms: N_4  and  C_5
REMARK    2  A    between atoms: C_5  and  C_6
REMARK                            x       y       z     vdW  Elec       q    Type
REMARK                         _______ _______ _______ _____ _____    ______ ____
ROOT
ATOM      1  C   UNL     1       4.578   4.431  16.812  0.00  0.00    +0.000 C 
ENDROOT
BRANCH   1   5
ATOM      2  N   UNL     1       7.156   5.571  16.118  0.00  0.00    +0.000 NA
ATOM      3  C   UNL     1       6.995   4.681  17.022  0.00  0.00    +0.000 C 
ATOM      4  N   UNL     1       8.085   4.218  17.659  0.00  0.00    +0.000 N 
ATOM      5  N   UNL     1       5.843   4.114  17.467  0.00  0.00    +0.000 N 
ATOM      6  H   UNL     1       6.264   5.835  15.702  0.00  0.00    +0.000 HD
ATOM      7  H   UNL     1       8.893   4.709  17.277  0.00  0.00    +0.000 HD
ATOM      8  H   UNL     1       8.062   4.405  18.654  0.00  0.00    +0.000 HD
ATOM      9  H   UNL     1       5.972   3.109  17.605  0.00  0.00    +0.000 HD
ENDBRANCH   1   5
BRANCH   1  10
ATOM     10  C   UNL     1       3.400   3.523  17.169  0.00  0.00    +0.000 C 
ATOM     11  C   UNL     1       3.552   2.186  17.998  0.00  0.00    +0.000 C 
ATOM     12  C   UNL     1       2.900   2.918  19.134  0.00  0.00    +0.000 A 
ATOM     13  C   UNL     1       2.532   2.832  20.455  0.00  0.00    +0.000 A 
ATOM     14  C   UNL     1       2.016   3.986  21.052  0.00  0.00    +0.000 A 
ATOM     15  C   UNL     1       1.875   5.178  20.316  0.00  0.00    +0.000 A 
ATOM     16  C   UNL     1       2.225   5.223  18.967  0.00  0.00    +0.000 A 
ATOM     17  C   UNL     1       2.724   4.070  18.409  0.00  0.00    +0.000 A 
ENDBRANCH   1  10
TORSDOF 2
ENDMDL
MODEL 9
REMARK VINA RESULT:      -6.3      1.314      1.493
REMARK  Name = 
REMARK  2 active torsions:
REMARK  status: ('A' for Active; 'I' for Inactive)
REMARK    1  A    between atoms: N_4  and  C_5
REMARK    2  A    between atoms: C_5  and  C_6
REMARK                            x       y       z     vdW  Elec       q    Type
REMARK                         _______ _______ _______ _____ _____    ______ ____
ROOT
ATOM      1  C   UNL     1       4.162   3.643  17.073  0.00  0.00    +0.000 C 
ENDROOT
BRANCH   1   5
ATOM      2  N   UNL     1       6.818   4.176  18.116  0.00  0.00    +0.000 NA
ATOM      3  C   UNL     1       6.449   4.477  16.930  0.00  0.00    +0.000 C 
ATOM      4  N   UNL     1       7.327   5.111  16.133  0.00  0.00    +0.000 N 
ATOM      5  N   UNL     1       5.261   4.234  16.317  0.00  0.00    +0.000 N 
ATOM      6  H   UNL     1       6.068   3.710  18.625  0.00  0.00    +0.000 HD
ATOM      7  H   UNL     1       8.189   5.233  16.664  0.00  0.00    +0.000 HD
ATOM      8  H   UNL     1       7.558   4.576  15.305  0.00  0.00    +0.000 HD
ATOM      9  H   UNL     1       4.968   5.049  15.773  0.00  0.00    +0.000 HD
ENDBRANCH   1   5
BRANCH   1  10
ATOM     10  C   UNL     1       3.333   4.618  17.912  0.00  0.00    +0.000 C 
ATOM     11  C   UNL     1       1.768   4.777  17.767  0.00  0.00    +0.000 C 
ATOM     12  C   UNL     1       1.661   4.072  19.088  0.00  0.00    +0.000 A 
ATOM     13  C   UNL     1       0.786   3.546  20.007  0.00  0.00    +0.000 A 
ATOM     14  C   UNL     1       1.334   2.849  21.088  0.00  0.00    +0.000 A 
ATOM     15  C   UNL     1       2.729   2.709  21.222  0.00  0.00    +0.000 A 
ATOM     16  C   UNL     1       3.593   3.286  20.292  0.00  0.00    +0.000 A 
ATOM     17  C   UNL     1       3.020   3.968  19.243  0.00  0.00    +0.000 A 
ENDBRANCH   1  10
TORSDOF 2
ENDMDL
