MODEL 1
REMARK VINA RESULT:      -9.4      0.000      0.000
REMARK  Name = 
REMARK  5 active torsions:
REMARK  status: ('A' for Active; 'I' for Inactive)
REMARK    1  A    between atoms: C_1  and  C_2
REMARK    2  A    between atoms: C_6  and  S_7
REMARK    3  A    between atoms: S_7  and  C_10
REMARK    4  A    between atoms: N_23  and  S_24
REMARK    5  A    between atoms: S_24  and  C_27
REMARK                            x       y       z     vdW  Elec       q    Type
REMARK                         _______ _______ _______ _____ _____    ______ ____
ROOT
ATOM      1  C   UNL     1       0.016   9.996  18.051  0.00  0.00    +0.000 C 
ATOM      2  C   UNL     1       1.346   9.685  18.729  0.00  0.00    +0.000 C 
ATOM      3  C   UNL     1       2.213   8.812  17.791  0.00  0.00    +0.000 C 
ATOM      4  C   UNL     1       2.364   7.542  18.552  0.00  0.00    +0.000 A 
ATOM      5  C   UNL     1       2.969   6.384  18.089  0.00  0.00    +0.000 A 
ATOM      6  C   UNL     1       3.031   5.294  18.954  0.00  0.00    +0.000 A 
ATOM      7  C   UNL     1       2.547   5.387  20.274  0.00  0.00    +0.000 A 
ATOM      8  C   UNL     1       1.914   6.561  20.712  0.00  0.00    +0.000 A 
ATOM      9  C   UNL     1       1.821   7.627  19.835  0.00  0.00    +0.000 A 
ATOM     10  N   UNL     1       1.132   8.862  19.956  0.00  0.00    +0.000 N 
ENDROOT
BRANCH   6  11
ATOM     11  S   UNL     1       3.807   3.807  18.376  0.00  0.00    +0.000 S 
ATOM     12  O   UNL     1       4.317   3.127  19.557  0.00  0.00    +0.000 OA
ATOM     13  O   UNL     1       2.861   3.148  17.496  0.00  0.00    +0.000 OA
BRANCH  11  14
ATOM     14  C   UNL     1       5.222   4.201  17.375  0.00  0.00    +0.000 A 
ATOM     15  C   UNL     1       6.141   5.197  17.721  0.00  0.00    +0.000 A 
ATOM     16  C   UNL     1       7.096   5.599  16.777  0.00  0.00    +0.000 A 
ATOM     17  C   UNL     1       7.107   5.024  15.505  0.00  0.00    +0.000 A 
ATOM     18  C   UNL     1       6.255   3.958  15.220  0.00  0.00    +0.000 A 
ATOM     19  C   UNL     1       5.322   3.528  16.154  0.00  0.00    +0.000 A 
ATOM     20  O   UNL     1       6.260   3.336  14.003  0.00  0.00    +0.000 OA
ATOM     21  C   UNL     1       6.421   4.340  13.004  0.00  0.00    +0.000 C 
ATOM     22  C   UNL     1       7.688   5.161  13.225  0.00  0.00    +0.000 C 
ATOM     23  O   UNL     1       7.929   5.589  14.573  0.00  0.00    +0.000 OA
ENDBRANCH  11  14
ENDBRANCH   6  11
BRANCH  10  24
ATOM     24  S   UNL     1       0.637   9.540  21.408  0.00  0.00    +0.000 S 
ATOM     25  O   UNL     1      -0.593   8.898  21.822  0.00  0.00    +0.000 OA
ATOM     26  O   UNL     1       1.782   9.585  22.296  0.00  0.00    +0.000 OA
BRANCH  24  27
ATOM     27  C   UNL     1       0.212  11.222  21.010  0.00  0.00    +0.000 A 
ATOM     28  C   UNL     1      -1.129  11.597  20.910  0.00  0.00    +0.000 A 
ATOM     29  C   UNL     1      -1.449  12.916  20.581  0.00  0.00    +0.000 A 
ATOM     30  C   UNL     1      -0.435  13.854  20.379  0.00  0.00    +0.000 A 
ATOM     31  C   UNL     1       0.901  13.484  20.521  0.00  0.00    +0.000 A 
ATOM     32  C   UNL     1       1.230  12.169  20.842  0.00  0.00    +0.000 A 
ENDBRANCH  24  27
ENDBRANCH  10  24
TORSDOF 4
ENDMDL
MODEL 2
REMARK VINA RESULT:      -9.3      2.676      9.288
REMARK  Name = 
REMARK  5 active torsions:
REMARK  status: ('A' for Active; 'I' for Inactive)
REMARK    1  A    between atoms: C_1  and  C_2
REMARK    2  A    between atoms: C_6  and  S_7
REMARK    3  A    between atoms: S_7  and  C_10
REMARK    4  A    between atoms: N_23  and  S_24
REMARK    5  A    between atoms: S_24  and  C_27
REMARK                            x       y       z     vdW  Elec       q    Type
REMARK                         _______ _______ _______ _____ _____    ______ ____
ROOT
ATOM      1  C   UNL     1       1.751   3.530  20.240  0.00  0.00    +0.000 C 
ATOM      2  C   UNL     1       2.730   4.696  20.338  0.00  0.00    +0.000 C 
ATOM      3  C   UNL     1       2.050   5.882  21.063  0.00  0.00    +0.000 C 
ATOM      4  C   UNL     1       2.025   6.946  20.022  0.00  0.00    +0.000 A 
ATOM      5  C   UNL     1       1.410   8.183  20.140  0.00  0.00    +0.000 A 
ATOM      6  C   UNL     1       1.505   9.059  19.061  0.00  0.00    +0.000 A 
ATOM      7  C   UNL     1       2.251   8.720  17.915  0.00  0.00    +0.000 A 
ATOM      8  C   UNL     1       2.843   7.452  17.807  0.00  0.00    +0.000 A 
ATOM      9  C   UNL     1       2.711   6.571  18.866  0.00  0.00    +0.000 A 
ATOM     10  N   UNL     1       3.081   5.205  18.980  0.00  0.00    +0.000 N 
ENDROOT
BRANCH   6  11
ATOM     11  S   UNL     1       0.728  10.647  19.199  0.00  0.00    +0.000 S 
ATOM     12  O   UNL     1       0.696  10.964  20.619  0.00  0.00    +0.000 OA
ATOM     13  O   UNL     1       1.394  11.530  18.260  0.00  0.00    +0.000 OA
BRANCH  11  14
ATOM     14  C   UNL     1      -0.966  10.552  18.670  0.00  0.00    +0.000 A 
ATOM     15  C   UNL     1      -1.353   9.932  17.477  0.00  0.00    +0.000 A 
ATOM     16  C   UNL     1      -2.668  10.094  17.021  0.00  0.00    +0.000 A 
ATOM     17  C   UNL     1      -3.566  10.884  17.742  0.00  0.00    +0.000 A 
ATOM     18  C   UNL     1      -3.192  11.400  18.982  0.00  0.00    +0.000 A 
ATOM     19  C   UNL     1      -1.901  11.225  19.461  0.00  0.00    +0.000 A 
ATOM     20  O   UNL     1      -4.051  12.142  19.744  0.00  0.00    +0.000 OA
ATOM     21  C   UNL     1      -4.783  12.993  18.865  0.00  0.00    +0.000 C 
ATOM     22  C   UNL     1      -5.521  12.200  17.790  0.00  0.00    +0.000 C 
ATOM     23  O   UNL     1      -4.766  11.159  17.153  0.00  0.00    +0.000 OA
ENDBRANCH  11  14
ENDBRANCH   6  11
BRANCH  10  24
ATOM     24  S   UNL     1       4.210   4.438  18.004  0.00  0.00    +0.000 S 
ATOM     25  O   UNL     1       4.487   3.129  18.559  0.00  0.00    +0.000 OA
ATOM     26  O   UNL     1       3.783   4.582  16.626  0.00  0.00    +0.000 OA
BRANCH  24  27
ATOM     27  C   UNL     1       5.703   5.387  18.194  0.00  0.00    +0.000 A 
ATOM     28  C   UNL     1       6.528   5.175  19.301  0.00  0.00    +0.000 A 
ATOM     29  C   UNL     1       7.688   5.937  19.447  0.00  0.00    +0.000 A 
ATOM     30  C   UNL     1       8.031   6.885  18.481  0.00  0.00    +0.000 A 
ATOM     31  C   UNL     1       7.227   7.064  17.357  0.00  0.00    +0.000 A 
ATOM     32  C   UNL     1       6.064   6.312  17.206  0.00  0.00    +0.000 A 
ENDBRANCH  24  27
ENDBRANCH  10  24
TORSDOF 4
ENDMDL
MODEL 3
REMARK VINA RESULT:      -9.3      1.632      2.594
REMARK  Name = 
REMARK  5 active torsions:
REMARK  status: ('A' for Active; 'I' for Inactive)
REMARK    1  A    between atoms: C_1  and  C_2
REMARK    2  A    between atoms: C_6  and  S_7
REMARK    3  A    between atoms: S_7  and  C_10
REMARK    4  A    between atoms: N_23  and  S_24
REMARK    5  A    between atoms: S_24  and  C_27
REMARK                            x       y       z     vdW  Elec       q    Type
REMARK                         _______ _______ _______ _____ _____    ______ ____
ROOT
ATOM      1  C   UNL     1       1.054   9.567  22.450  0.00  0.00    +0.000 C 
ATOM      2  C   UNL     1       0.492   8.932  21.181  0.00  0.00    +0.000 C 
ATOM      3  C   UNL     1       0.687   7.398  21.241  0.00  0.00    +0.000 C 
ATOM      4  C   UNL     1       1.598   7.127  20.097  0.00  0.00    +0.000 A 
ATOM      5  C   UNL     1       2.169   5.902  19.785  0.00  0.00    +0.000 A 
ATOM      6  C   UNL     1       2.989   5.836  18.661  0.00  0.00    +0.000 A 
ATOM      7  C   UNL     1       3.182   6.962  17.837  0.00  0.00    +0.000 A 
ATOM      8  C   UNL     1       2.615   8.198  18.186  0.00  0.00    +0.000 A 
ATOM      9  C   UNL     1       1.834   8.266  19.326  0.00  0.00    +0.000 A 
ATOM     10  N   UNL     1       1.257   9.385  19.982  0.00  0.00    +0.000 N 
ENDROOT
BRANCH   6  11
ATOM     11  S   UNL     1       3.722   4.274  18.248  0.00  0.00    +0.000 S 
ATOM     12  O   UNL     1       4.181   3.694  19.500  0.00  0.00    +0.000 OA
ATOM     13  O   UNL     1       2.771   3.567  17.411  0.00  0.00    +0.000 OA
BRANCH  11  14
ATOM     14  C   UNL     1       5.171   4.519  17.249  0.00  0.00    +0.000 A 
ATOM     15  C   UNL     1       6.132   5.495  17.535  0.00  0.00    +0.000 A 
ATOM     16  C   UNL     1       7.121   5.775  16.582  0.00  0.00    +0.000 A 
ATOM     17  C   UNL     1       7.126   5.101  15.360  0.00  0.00    +0.000 A 
ATOM     18  C   UNL     1       6.229   4.057  15.142  0.00  0.00    +0.000 A 
ATOM     19  C   UNL     1       5.260   3.748  16.087  0.00  0.00    +0.000 A 
ATOM     20  O   UNL     1       6.225   3.339  13.978  0.00  0.00    +0.000 OA
ATOM     21  C   UNL     1       6.452   4.252  12.907  0.00  0.00    +0.000 C 
ATOM     22  C   UNL     1       7.754   5.027  13.089  0.00  0.00    +0.000 C 
ATOM     23  O   UNL     1       7.992   5.550  14.404  0.00  0.00    +0.000 OA
ENDBRANCH  11  14
ENDBRANCH   6  11
BRANCH  10  24
ATOM     24  S   UNL     1       0.988  10.877  19.265  0.00  0.00    +0.000 S 
ATOM     25  O   UNL     1       0.943  11.888  20.301  0.00  0.00    +0.000 OA
ATOM     26  O   UNL     1       1.899  11.008  18.145  0.00  0.00    +0.000 OA
BRANCH  24  27
ATOM     27  C   UNL     1      -0.658  10.776  18.596  0.00  0.00    +0.000 A 
ATOM     28  C   UNL     1      -0.945   9.853  17.588  0.00  0.00    +0.000 A 
ATOM     29  C   UNL     1      -2.236   9.795  17.059  0.00  0.00    +0.000 A 
ATOM     30  C   UNL     1      -3.235  10.637  17.552  0.00  0.00    +0.000 A 
ATOM     31  C   UNL     1      -2.954  11.527  18.587  0.00  0.00    +0.000 A 
ATOM     32  C   UNL     1      -1.667  11.597  19.116  0.00  0.00    +0.000 A 
ENDBRANCH  24  27
ENDBRANCH  10  24
TORSDOF 4
ENDMDL
MODEL 4
REMARK VINA RESULT:      -9.1      2.356      9.308
REMARK  Name = 
REMARK  5 active torsions:
REMARK  status: ('A' for Active; 'I' for Inactive)
REMARK    1  A    between atoms: C_1  and  C_2
REMARK    2  A    between atoms: C_6  and  S_7
REMARK    3  A    between atoms: S_7  and  C_10
REMARK    4  A    between atoms: N_23  and  S_24
REMARK    5  A    between atoms: S_24  and  C_27
REMARK                            x       y       z     vdW  Elec       q    Type
REMARK                         _______ _______ _______ _____ _____    ______ ____
ROOT
ATOM      1  C   UNL     1       1.528   2.921  20.606  0.00  0.00    +0.000 C 
ATOM      2  C   UNL     1       2.556   4.043  20.722  0.00  0.00    +0.000 C 
ATOM      3  C   UNL     1       1.854   5.340  21.190  0.00  0.00    +0.000 C 
ATOM      4  C   UNL     1       2.054   6.267  20.043  0.00  0.00    +0.000 A 
ATOM      5  C   UNL     1       1.511   7.536  19.920  0.00  0.00    +0.000 A 
ATOM      6  C   UNL     1       1.823   8.267  18.775  0.00  0.00    +0.000 A 
ATOM      7  C   UNL     1       2.708   7.755  17.807  0.00  0.00    +0.000 A 
ATOM      8  C   UNL     1       3.225   6.457  17.940  0.00  0.00    +0.000 A 
ATOM      9  C   UNL     1       2.880   5.721  19.059  0.00  0.00    +0.000 A 
ATOM     10  N   UNL     1       3.139   4.363  19.386  0.00  0.00    +0.000 N 
ENDROOT
BRANCH   6  11
ATOM     11  S   UNL     1       1.139   9.895  18.607  0.00  0.00    +0.000 S 
ATOM     12  O   UNL     1       2.255  10.779  18.310  0.00  0.00    +0.000 OA
ATOM     13  O   UNL     1       0.015   9.792  17.695  0.00  0.00    +0.000 OA
BRANCH  11  14
ATOM     14  C   UNL     1       0.466  10.443  20.159  0.00  0.00    +0.000 A 
ATOM     15  C   UNL     1       0.634   9.731  21.351  0.00  0.00    +0.000 A 
ATOM     16  C   UNL     1      -0.110  10.106  22.478  0.00  0.00    +0.000 A 
ATOM     17  C   UNL     1      -1.020  11.162  22.395  0.00  0.00    +0.000 A 
ATOM     18  C   UNL     1      -1.091  11.925  21.232  0.00  0.00    +0.000 A 
ATOM     19  C   UNL     1      -0.339  11.585  20.115  0.00  0.00    +0.000 A 
ATOM     20  O   UNL     1      -1.935  12.995  21.120  0.00  0.00    +0.000 OA
ATOM     21  C   UNL     1      -3.161  12.646  21.758  0.00  0.00    +0.000 C 
ATOM     22  C   UNL     1      -2.948  12.243  23.214  0.00  0.00    +0.000 C 
ATOM     23  O   UNL     1      -1.849  11.354  23.463  0.00  0.00    +0.000 OA
ENDBRANCH  11  14
ENDBRANCH   6  11
BRANCH  10  24
ATOM     24  S   UNL     1       4.348   3.430  18.694  0.00  0.00    +0.000 S 
ATOM     25  O   UNL     1       4.920   2.580  19.717  0.00  0.00    +0.000 OA
ATOM     26  O   UNL     1       3.827   2.859  17.466  0.00  0.00    +0.000 OA
BRANCH  24  27
ATOM     27  C   UNL     1       5.620   4.588  18.237  0.00  0.00    +0.000 A 
ATOM     28  C   UNL     1       6.367   5.229  19.228  0.00  0.00    +0.000 A 
ATOM     29  C   UNL     1       7.350   6.148  18.858  0.00  0.00    +0.000 A 
ATOM     30  C   UNL     1       7.599   6.403  17.508  0.00  0.00    +0.000 A 
ATOM     31  C   UNL     1       6.880   5.730  16.522  0.00  0.00    +0.000 A 
ATOM     32  C   UNL     1       5.892   4.816  16.882  0.00  0.00    +0.000 A 
ENDBRANCH  24  27
ENDBRANCH  10  24
TORSDOF 4
ENDMDL
MODEL 5
REMARK VINA RESULT:      -9.0      2.310      8.604
REMARK  Name = 
REMARK  5 active torsions:
REMARK  status: ('A' for Active; 'I' for Inactive)
REMARK    1  A    between atoms: C_1  and  C_2
REMARK    2  A    between atoms: C_6  and  S_7
REMARK    3  A    between atoms: S_7  and  C_10
REMARK    4  A    between atoms: N_23  and  S_24
REMARK    5  A    between atoms: S_24  and  C_27
REMARK                            x       y       z     vdW  Elec       q    Type
REMARK                         _______ _______ _______ _____ _____    ______ ____
ROOT
ATOM      1  C   UNL     1       2.783   2.361  18.244  0.00  0.00    +0.000 C 
ATOM      2  C   UNL     1       3.567   3.437  18.989  0.00  0.00    +0.000 C 
ATOM      3  C   UNL     1       2.777   3.875  20.246  0.00  0.00    +0.000 C 
ATOM      4  C   UNL     1       2.482   5.309  19.979  0.00  0.00    +0.000 A 
ATOM      5  C   UNL     1       1.690   6.135  20.762  0.00  0.00    +0.000 A 
ATOM      6  C   UNL     1       1.539   7.460  20.359  0.00  0.00    +0.000 A 
ATOM      7  C   UNL     1       2.216   7.956  19.228  0.00  0.00    +0.000 A 
ATOM      8  C   UNL     1       2.991   7.095  18.435  0.00  0.00    +0.000 A 
ATOM      9  C   UNL     1       3.105   5.770  18.819  0.00  0.00    +0.000 A 
ATOM     10  N   UNL     1       3.700   4.666  18.153  0.00  0.00    +0.000 N 
ENDROOT
BRANCH   6  11
ATOM     11  S   UNL     1       0.533   8.529  21.354  0.00  0.00    +0.000 S 
ATOM     12  O   UNL     1      -0.787   7.919  21.404  0.00  0.00    +0.000 OA
ATOM     13  O   UNL     1       1.271   8.793  22.575  0.00  0.00    +0.000 OA
BRANCH  11  14
ATOM     14  C   UNL     1       0.327  10.103  20.553  0.00  0.00    +0.000 A 
ATOM     15  C   UNL     1      -0.431  10.266  19.389  0.00  0.00    +0.000 A 
ATOM     16  C   UNL     1      -0.361  11.483  18.697  0.00  0.00    +0.000 A 
ATOM     17  C   UNL     1       0.473  12.503  19.158  0.00  0.00    +0.000 A 
ATOM     18  C   UNL     1       1.133  12.359  20.378  0.00  0.00    +0.000 A 
ATOM     19  C   UNL     1       1.052  11.170  21.090  0.00  0.00    +0.000 A 
ATOM     20  O   UNL     1       1.926  13.348  20.890  0.00  0.00    +0.000 OA
ATOM     21  C   UNL     1       2.653  13.924  19.808  0.00  0.00    +0.000 C 
ATOM     22  C   UNL     1       1.725  14.451  18.718  0.00  0.00    +0.000 C 
ATOM     23  O   UNL     1       0.645  13.584  18.342  0.00  0.00    +0.000 OA
ENDBRANCH  11  14
ENDBRANCH   6  11
BRANCH  10  24
ATOM     24  S   UNL     1       4.838   4.791  16.927  0.00  0.00    +0.000 S 
ATOM     25  O   UNL     1       5.337   3.467  16.622  0.00  0.00    +0.000 OA
ATOM     26  O   UNL     1       4.283   5.630  15.883  0.00  0.00    +0.000 OA
BRANCH  24  27
ATOM     27  C   UNL     1       6.198   5.683  17.651  0.00  0.00    +0.000 A 
ATOM     28  C   UNL     1       6.831   5.183  18.792  0.00  0.00    +0.000 A 
ATOM     29  C   UNL     1       7.885   5.900  19.360  0.00  0.00    +0.000 A 
ATOM     30  C   UNL     1       8.317   7.093  18.777  0.00  0.00    +0.000 A 
ATOM     31  C   UNL     1       7.710   7.566  17.614  0.00  0.00    +0.000 A 
ATOM     32  C   UNL     1       6.653   6.860  17.044  0.00  0.00    +0.000 A 
ENDBRANCH  24  27
ENDBRANCH  10  24
TORSDOF 4
ENDMDL
MODEL 6
REMARK VINA RESULT:      -9.0      2.389      9.375
REMARK  Name = 
REMARK  5 active torsions:
REMARK  status: ('A' for Active; 'I' for Inactive)
REMARK    1  A    between atoms: C_1  and  C_2
REMARK    2  A    between atoms: C_6  and  S_7
REMARK    3  A    between atoms: S_7  and  C_10
REMARK    4  A    between atoms: N_23  and  S_24
REMARK    5  A    between atoms: S_24  and  C_27
REMARK                            x       y       z     vdW  Elec       q    Type
REMARK                         _______ _______ _______ _____ _____    ______ ____
ROOT
ATOM      1  C   UNL     1       1.377   3.508  20.641  0.00  0.00    +0.000 C 
ATOM      2  C   UNL     1       2.462   4.581  20.635  0.00  0.00    +0.000 C 
ATOM      3  C   UNL     1       1.876   5.911  21.165  0.00  0.00    +0.000 C 
ATOM      4  C   UNL     1       1.992   6.824  19.995  0.00  0.00    +0.000 A 
ATOM      5  C   UNL     1       1.498   8.117  19.922  0.00  0.00    +0.000 A 
ATOM      6  C   UNL     1       1.716   8.828  18.744  0.00  0.00    +0.000 A 
ATOM      7  C   UNL     1       2.465   8.272  17.689  0.00  0.00    +0.000 A 
ATOM      8  C   UNL     1       2.933   6.951  17.775  0.00  0.00    +0.000 A 
ATOM      9  C   UNL     1       2.679   6.236  18.932  0.00  0.00    +0.000 A 
ATOM     10  N   UNL     1       2.909   4.869  19.240  0.00  0.00    +0.000 N 
ENDROOT
BRANCH   6  11
ATOM     11  S   UNL     1       1.094  10.486  18.637  0.00  0.00    +0.000 S 
ATOM     12  O   UNL     1       2.228  11.327  18.288  0.00  0.00    +0.000 OA
ATOM     13  O   UNL     1      -0.083  10.445  17.790  0.00  0.00    +0.000 OA
BRANCH  11  14
ATOM     14  C   UNL     1       0.534  11.037  20.232  0.00  0.00    +0.000 A 
ATOM     15  C   UNL     1      -0.414  10.337  20.986  0.00  0.00    +0.000 A 
ATOM     16  C   UNL     1      -0.966  10.947  22.120  0.00  0.00    +0.000 A 
ATOM     17  C   UNL     1      -0.586  12.243  22.472  0.00  0.00    +0.000 A 
ATOM     18  C   UNL     1       0.439  12.878  21.773  0.00  0.00    +0.000 A 
ATOM     19  C   UNL     1       1.017  12.276  20.663  0.00  0.00    +0.000 A 
ATOM     20  O   UNL     1       0.875  14.129  22.109  0.00  0.00    +0.000 OA
ATOM     21  C   UNL     1      -0.268  14.906  22.457  0.00  0.00    +0.000 C 
ATOM     22  C   UNL     1      -1.068  14.263  23.587  0.00  0.00    +0.000 C 
ATOM     23  O   UNL     1      -1.295  12.851  23.468  0.00  0.00    +0.000 OA
ENDBRANCH  11  14
ENDBRANCH   6  11
BRANCH  10  24
ATOM     24  S   UNL     1       3.990   3.877  18.428  0.00  0.00    +0.000 S 
ATOM     25  O   UNL     1       4.382   2.799  19.311  0.00  0.00    +0.000 OA
ATOM     26  O   UNL     1       3.442   3.596  17.115  0.00  0.00    +0.000 OA
BRANCH  24  27
ATOM     27  C   UNL     1       5.442   4.878  18.188  0.00  0.00    +0.000 A 
ATOM     28  C   UNL     1       5.794   5.301  16.904  0.00  0.00    +0.000 A 
ATOM     29  C   UNL     1       6.944   6.071  16.727  0.00  0.00    +0.000 A 
ATOM     30  C   UNL     1       7.721   6.435  17.828  0.00  0.00    +0.000 A 
ATOM     31  C   UNL     1       7.344   6.046  19.113  0.00  0.00    +0.000 A 
ATOM     32  C   UNL     1       6.201   5.271  19.298  0.00  0.00    +0.000 A 
ENDBRANCH  24  27
ENDBRANCH  10  24
TORSDOF 4
ENDMDL
MODEL 7
REMARK VINA RESULT:      -8.9      2.255      8.806
REMARK  Name = 
REMARK  5 active torsions:
REMARK  status: ('A' for Active; 'I' for Inactive)
REMARK    1  A    between atoms: C_1  and  C_2
REMARK    2  A    between atoms: C_6  and  S_7
REMARK    3  A    between atoms: S_7  and  C_10
REMARK    4  A    between atoms: N_23  and  S_24
REMARK    5  A    between atoms: S_24  and  C_27
REMARK                            x       y       z     vdW  Elec       q    Type
REMARK                         _______ _______ _______ _____ _____    ______ ____
ROOT
ATOM      1  C   UNL     1       2.290   2.719  17.862  0.00  0.00    +0.000 C 
ATOM      2  C   UNL     1       3.156   3.636  18.722  0.00  0.00    +0.000 C 
ATOM      3  C   UNL     1       2.373   4.042  19.994  0.00  0.00    +0.000 C 
ATOM      4  C   UNL     1       2.238   5.517  19.852  0.00  0.00    +0.000 A 
ATOM      5  C   UNL     1       1.510   6.351  20.687  0.00  0.00    +0.000 A 
ATOM      6  C   UNL     1       1.511   7.714  20.404  0.00  0.00    +0.000 A 
ATOM      7  C   UNL     1       2.275   8.233  19.340  0.00  0.00    +0.000 A 
ATOM      8  C   UNL     1       2.983   7.368  18.492  0.00  0.00    +0.000 A 
ATOM      9  C   UNL     1       2.945   6.010  18.755  0.00  0.00    +0.000 A 
ATOM     10  N   UNL     1       3.444   4.912  18.005  0.00  0.00    +0.000 N 
ENDROOT
BRANCH   6  11
ATOM     11  S   UNL     1       0.588   8.793  21.468  0.00  0.00    +0.000 S 
ATOM     12  O   UNL     1      -0.612   8.063  21.848  0.00  0.00    +0.000 OA
ATOM     13  O   UNL     1       1.507   9.280  22.480  0.00  0.00    +0.000 OA
BRANCH  11  14
ATOM     14  C   UNL     1       0.040  10.224  20.569  0.00  0.00    +0.000 A 
ATOM     15  C   UNL     1      -0.566  10.142  19.311  0.00  0.00    +0.000 A 
ATOM     16  C   UNL     1      -0.763  11.317  18.572  0.00  0.00    +0.000 A 
ATOM     17  C   UNL     1      -0.336  12.544  19.084  0.00  0.00    +0.000 A 
ATOM     18  C   UNL     1       0.163  12.616  20.383  0.00  0.00    +0.000 A 
ATOM     19  C   UNL     1       0.339  11.465  21.139  0.00  0.00    +0.000 A 
ATOM     20  O   UNL     1       0.553  13.802  20.941  0.00  0.00    +0.000 OA
ATOM     21  C   UNL     1       1.219  14.557  19.933  0.00  0.00    +0.000 C 
ATOM     22  C   UNL     1       0.335  14.772  18.708  0.00  0.00    +0.000 C 
ATOM     23  O   UNL     1      -0.381  13.618  18.242  0.00  0.00    +0.000 OA
ENDBRANCH  11  14
ENDBRANCH   6  11
BRANCH  10  24
ATOM     24  S   UNL     1       4.630   5.024  16.825  0.00  0.00    +0.000 S 
ATOM     25  O   UNL     1       5.038   3.686  16.451  0.00  0.00    +0.000 OA
ATOM     26  O   UNL     1       4.178   5.966  15.821  0.00  0.00    +0.000 OA
BRANCH  24  27
ATOM     27  C   UNL     1       6.028   5.760  17.645  0.00  0.00    +0.000 A 
ATOM     28  C   UNL     1       6.583   6.942  17.151  0.00  0.00    +0.000 A 
ATOM     29  C   UNL     1       7.690   7.501  17.793  0.00  0.00    +0.000 A 
ATOM     30  C   UNL     1       8.220   6.893  18.933  0.00  0.00    +0.000 A 
ATOM     31  C   UNL     1       7.637   5.736  19.447  0.00  0.00    +0.000 A 
ATOM     32  C   UNL     1       6.536   5.168  18.808  0.00  0.00    +0.000 A 
ENDBRANCH  24  27
ENDBRANCH  10  24
TORSDOF 4
ENDMDL
MODEL 8
REMARK VINA RESULT:      -8.9      2.290      8.636
REMARK  Name = 
REMARK  5 active torsions:
REMARK  status: ('A' for Active; 'I' for Inactive)
REMARK    1  A    between atoms: C_1  and  C_2
REMARK    2  A    between atoms: C_6  and  S_7
REMARK    3  A    between atoms: S_7  and  C_10
REMARK    4  A    between atoms: N_23  and  S_24
REMARK    5  A    between atoms: S_24  and  C_27
REMARK                            x       y       z     vdW  Elec       q    Type
REMARK                         _______ _______ _______ _____ _____    ______ ____
ROOT
ATOM      1  C   UNL     1       1.432   2.418  19.332  0.00  0.00    +0.000 C 
ATOM      2  C   UNL     1       2.463   3.407  19.867  0.00  0.00    +0.000 C 
ATOM      3  C   UNL     1       1.844   4.220  21.029  0.00  0.00    +0.000 C 
ATOM      4  C   UNL     1       1.854   5.615  20.510  0.00  0.00    +0.000 A 
ATOM      5  C   UNL     1       1.296   6.719  21.137  0.00  0.00    +0.000 A 
ATOM      6  C   UNL     1       1.416   7.954  20.503  0.00  0.00    +0.000 A 
ATOM      7  C   UNL     1       2.132   8.083  19.297  0.00  0.00    +0.000 A 
ATOM      8  C   UNL     1       2.666   6.948  18.668  0.00  0.00    +0.000 A 
ATOM      9  C   UNL     1       2.509   5.719  19.282  0.00  0.00    +0.000 A 
ATOM     10  N   UNL     1       2.820   4.412  18.822  0.00  0.00    +0.000 N 
ENDROOT
BRANCH   6  11
ATOM     11  S   UNL     1       0.711   9.375  21.296  0.00  0.00    +0.000 S 
ATOM     12  O   UNL     1      -0.230   8.868  22.283  0.00  0.00    +0.000 OA
ATOM     13  O   UNL     1       1.813  10.228  21.698  0.00  0.00    +0.000 OA
BRANCH  11  14
ATOM     14  C   UNL     1      -0.244  10.319  20.132  0.00  0.00    +0.000 A 
ATOM     15  C   UNL     1      -0.842  11.542  20.457  0.00  0.00    +0.000 A 
ATOM     16  C   UNL     1      -1.759  12.110  19.562  0.00  0.00    +0.000 A 
ATOM     17  C   UNL     1      -2.081  11.447  18.377  0.00  0.00    +0.000 A 
ATOM     18  C   UNL     1      -1.393  10.289  18.022  0.00  0.00    +0.000 A 
ATOM     19  C   UNL     1      -0.461   9.727  18.885  0.00  0.00    +0.000 A 
ATOM     20  O   UNL     1      -1.643   9.630  16.851  0.00  0.00    +0.000 OA
ATOM     21  C   UNL     1      -3.052   9.655  16.633  0.00  0.00    +0.000 C 
ATOM     22  C   UNL     1      -3.596  11.081  16.608  0.00  0.00    +0.000 C 
ATOM     23  O   UNL     1      -3.116  11.952  17.643  0.00  0.00    +0.000 OA
ENDBRANCH  11  14
ENDBRANCH   6  11
BRANCH  10  24
ATOM     24  S   UNL     1       3.901   4.068  17.587  0.00  0.00    +0.000 S 
ATOM     25  O   UNL     1       4.281   2.674  17.680  0.00  0.00    +0.000 OA
ATOM     26  O   UNL     1       3.361   4.606  16.354  0.00  0.00    +0.000 OA
BRANCH  24  27
ATOM     27  C   UNL     1       5.360   5.010  17.977  0.00  0.00    +0.000 A 
ATOM     28  C   UNL     1       6.022   4.800  19.189  0.00  0.00    +0.000 A 
ATOM     29  C   UNL     1       7.156   5.557  19.490  0.00  0.00    +0.000 A 
ATOM     30  C   UNL     1       7.635   6.497  18.576  0.00  0.00    +0.000 A 
ATOM     31  C   UNL     1       6.996   6.672  17.350  0.00  0.00    +0.000 A 
ATOM     32  C   UNL     1       5.860   5.926  17.043  0.00  0.00    +0.000 A 
ENDBRANCH  24  27
ENDBRANCH  10  24
TORSDOF 4
ENDMDL
MODEL 9
REMARK VINA RESULT:      -8.9      0.938      1.071
REMARK  Name = 
REMARK  5 active torsions:
REMARK  status: ('A' for Active; 'I' for Inactive)
REMARK    1  A    between atoms: C_1  and  C_2
REMARK    2  A    between atoms: C_6  and  S_7
REMARK    3  A    between atoms: S_7  and  C_10
REMARK    4  A    between atoms: N_23  and  S_24
REMARK    5  A    between atoms: S_24  and  C_27
REMARK                            x       y       z     vdW  Elec       q    Type
REMARK                         _______ _______ _______ _____ _____    ______ ____
ROOT
ATOM      1  C   UNL     1      -0.753  10.546  18.066  0.00  0.00    +0.000 C 
ATOM      2  C   UNL     1       0.678  10.332  18.549  0.00  0.00    +0.000 C 
ATOM      3  C   UNL     1       1.393   9.326  17.616  0.00  0.00    +0.000 C 
ATOM      4  C   UNL     1       1.695   8.182  18.519  0.00  0.00    +0.000 A 
ATOM      5  C   UNL     1       2.238   6.965  18.135  0.00  0.00    +0.000 A 
ATOM      6  C   UNL     1       2.464   6.014  19.127  0.00  0.00    +0.000 A 
ATOM      7  C   UNL     1       2.206   6.303  20.481  0.00  0.00    +0.000 A 
ATOM      8  C   UNL     1       1.632   7.532  20.843  0.00  0.00    +0.000 A 
ATOM      9  C   UNL     1       1.372   8.457  19.848  0.00  0.00    +0.000 A 
ATOM     10  N   UNL     1       0.688   9.700  19.901  0.00  0.00    +0.000 N 
ENDROOT
BRANCH   6  11
ATOM     11  S   UNL     1       3.163   4.455  18.650  0.00  0.00    +0.000 S 
ATOM     12  O   UNL     1       3.535   3.779  19.884  0.00  0.00    +0.000 OA
ATOM     13  O   UNL     1       2.234   3.839  17.722  0.00  0.00    +0.000 OA
BRANCH  11  14
ATOM     14  C   UNL     1       4.672   4.708  17.744  0.00  0.00    +0.000 A 
ATOM     15  C   UNL     1       5.530   5.785  17.987  0.00  0.00    +0.000 A 
ATOM     16  C   UNL     1       6.574   6.040  17.088  0.00  0.00    +0.000 A 
ATOM     17  C   UNL     1       6.733   5.237  15.956  0.00  0.00    +0.000 A 
ATOM     18  C   UNL     1       5.937   4.106  15.793  0.00  0.00    +0.000 A 
ATOM     19  C   UNL     1       4.915   3.823  16.690  0.00  0.00    +0.000 A 
ATOM     20  O   UNL     1       6.085   3.267  14.724  0.00  0.00    +0.000 OA
ATOM     21  C   UNL     1       6.336   4.071  13.574  0.00  0.00    +0.000 C 
ATOM     22  C   UNL     1       7.556   4.967  13.764  0.00  0.00    +0.000 C 
ATOM     23  O   UNL     1       7.642   5.649  15.024  0.00  0.00    +0.000 OA
ENDBRANCH  11  14
ENDBRANCH   6  11
BRANCH  10  24
ATOM     24  S   UNL     1       0.428  10.587  21.301  0.00  0.00    +0.000 S 
ATOM     25  O   UNL     1      -0.969  10.478  21.665  0.00  0.00    +0.000 OA
ATOM     26  O   UNL     1       1.468  10.241  22.251  0.00  0.00    +0.000 OA
BRANCH  24  27
ATOM     27  C   UNL     1       0.690  12.282  20.828  0.00  0.00    +0.000 A 
ATOM     28  C   UNL     1      -0.400  13.147  20.703  0.00  0.00    +0.000 A 
ATOM     29  C   UNL     1      -0.183  14.471  20.315  0.00  0.00    +0.000 A 
ATOM     30  C   UNL     1       1.115  14.929  20.078  0.00  0.00    +0.000 A 
ATOM     31  C   UNL     1       2.202  14.073  20.245  0.00  0.00    +0.000 A 
ATOM     32  C   UNL     1       1.995  12.749  20.626  0.00  0.00    +0.000 A 
ENDBRANCH  24  27
ENDBRANCH  10  24
TORSDOF 4
ENDMDL
