MODEL 1
REMARK VINA RESULT:      -5.8      0.000      0.000
REMARK  Name = 
REMARK  6 active torsions:
REMARK  status: ('A' for Active; 'I' for Inactive)
REMARK    1  A    between atoms: C_1  and  N_2
REMARK    2  A    between atoms: N_2  and  N_3
REMARK    3  A    between atoms: C_4  and  C_5
REMARK    4  A    between atoms: C_4  and  C_6
REMARK    5  A    between atoms: C_7  and  O_8
REMARK    6  A    between atoms: C_10  and  C_11
REMARK                            x       y       z     vdW  Elec       q    Type
REMARK                         _______ _______ _______ _____ _____    ______ ____
ROOT
ATOM      1  C   UNL     1       3.578   4.271  18.225  0.00  0.00    +0.000 A 
ATOM      2  C   UNL     1       4.290   3.628  19.174  0.00  0.00    +0.000 A 
ATOM      3  C   UNL     1       3.660   3.034  20.316  0.00  0.00    +0.000 A 
ATOM      4  C   UNL     1       2.334   3.105  20.449  0.00  0.00    +0.000 A 
ATOM      5  C   UNL     1       1.558   2.506  21.575  0.00  0.00    +0.000 C 
ATOM      6  O   UNL     1       1.546   3.776  19.487  0.00  0.00    +0.000 OA
ATOM      7  C   UNL     1       2.106   4.361  18.383  0.00  0.00    +0.000 A 
ATOM      8  O   UNL     1       1.397   4.923  17.555  0.00  0.00    +0.000 OA
ENDROOT
BRANCH   1  10
ATOM      9  N   UNL     1       4.812   4.101  16.158  0.00  0.00    +0.000 NA
ATOM     10  C   UNL     1       4.310   4.899  17.070  0.00  0.00    +0.000 C 
ATOM     11  C   UNL     1       4.463   6.412  17.069  0.00  0.00    +0.000 C 
BRANCH   9  13
ATOM     12  C   UNL     1       6.922   4.531  15.146  0.00  0.00    +0.000 C 
ATOM     13  N   UNL     1       5.469   4.660  15.122  0.00  0.00    +0.000 N 
ATOM     14  H   UNL     1       5.129   4.306  14.223  0.00  0.00    +0.000 HD
ENDBRANCH   9  13
ENDBRANCH   1  10
BRANCH   2  15
ATOM     15  O   UNL     1       5.658   3.453  19.163  0.00  0.00    +0.000 OA
ATOM     16  H   UNL     1       6.065   4.222  19.627  0.00  0.00    +0.000 HD
ENDBRANCH   2  15
TORSDOF 3
ENDMDL
MODEL 2
REMARK VINA RESULT:      -5.8      2.741      4.904
REMARK  Name = 
REMARK  6 active torsions:
REMARK  status: ('A' for Active; 'I' for Inactive)
REMARK    1  A    between atoms: C_1  and  N_2
REMARK    2  A    between atoms: N_2  and  N_3
REMARK    3  A    between atoms: C_4  and  C_5
REMARK    4  A    between atoms: C_4  and  C_6
REMARK    5  A    between atoms: C_7  and  O_8
REMARK    6  A    between atoms: C_10  and  C_11
REMARK                            x       y       z     vdW  Elec       q    Type
REMARK                         _______ _______ _______ _____ _____    ______ ____
ROOT
ATOM      1  C   UNL     1       3.895   5.092  18.598  0.00  0.00    +0.000 A 
ATOM      2  C   UNL     1       5.076   4.454  18.740  0.00  0.00    +0.000 A 
ATOM      3  C   UNL     1       6.309   5.048  18.315  0.00  0.00    +0.000 A 
ATOM      4  C   UNL     1       6.300   6.266  17.770  0.00  0.00    +0.000 A 
ATOM      5  C   UNL     1       7.515   7.003  17.311  0.00  0.00    +0.000 C 
ATOM      6  O   UNL     1       5.088   6.969  17.590  0.00  0.00    +0.000 OA
ATOM      7  C   UNL     1       3.887   6.439  17.978  0.00  0.00    +0.000 A 
ATOM      8  O   UNL     1       2.851   7.077  17.824  0.00  0.00    +0.000 OA
ENDROOT
BRANCH   1  10
ATOM      9  N   UNL     1       2.379   4.350  20.323  0.00  0.00    +0.000 NA
ATOM     10  C   UNL     1       2.636   4.393  19.038  0.00  0.00    +0.000 C 
ATOM     11  C   UNL     1       1.779   3.739  17.966  0.00  0.00    +0.000 C 
BRANCH   9  13
ATOM     12  C   UNL     1       1.437   2.605  21.638  0.00  0.00    +0.000 C 
ATOM     13  N   UNL     1       1.253   3.725  20.721  0.00  0.00    +0.000 N 
ATOM     14  H   UNL     1       0.585   4.378  21.142  0.00  0.00    +0.000 HD
ENDBRANCH   9  13
ENDBRANCH   1  10
BRANCH   2  15
ATOM     15  O   UNL     1       5.247   3.207  19.304  0.00  0.00    +0.000 OA
ATOM     16  H   UNL     1       6.020   3.254  19.912  0.00  0.00    +0.000 HD
ENDBRANCH   2  15
TORSDOF 3
ENDMDL
MODEL 3
REMARK VINA RESULT:      -5.8      3.151      5.276
REMARK  Name = 
REMARK  6 active torsions:
REMARK  status: ('A' for Active; 'I' for Inactive)
REMARK    1  A    between atoms: C_1  and  N_2
REMARK    2  A    between atoms: N_2  and  N_3
REMARK    3  A    between atoms: C_4  and  C_5
REMARK    4  A    between atoms: C_4  and  C_6
REMARK    5  A    between atoms: C_7  and  O_8
REMARK    6  A    between atoms: C_10  and  C_11
REMARK                            x       y       z     vdW  Elec       q    Type
REMARK                         _______ _______ _______ _____ _____    ______ ____
ROOT
ATOM      1  C   UNL     1       6.338   5.645  17.188  0.00  0.00    +0.000 A 
ATOM      2  C   UNL     1       7.339   5.663  18.094  0.00  0.00    +0.000 A 
ATOM      3  C   UNL     1       8.048   6.868  18.409  0.00  0.00    +0.000 A 
ATOM      4  C   UNL     1       7.713   8.008  17.803  0.00  0.00    +0.000 A 
ATOM      5  C   UNL     1       8.355   9.331  18.061  0.00  0.00    +0.000 C 
ATOM      6  O   UNL     1       6.680   8.038  16.840  0.00  0.00    +0.000 OA
ATOM      7  C   UNL     1       5.978   6.911  16.505  0.00  0.00    +0.000 A 
ATOM      8  O   UNL     1       5.075   6.968  15.677  0.00  0.00    +0.000 OA
ENDROOT
BRANCH   1  10
ATOM      9  N   UNL     1       4.878   3.825  17.805  0.00  0.00    +0.000 NA
ATOM     10  C   UNL     1       5.659   4.337  16.884  0.00  0.00    +0.000 C 
ATOM     11  C   UNL     1       5.968   3.673  15.551  0.00  0.00    +0.000 C 
BRANCH   9  13
ATOM     12  C   UNL     1       3.592   2.016  18.661  0.00  0.00    +0.000 C 
ATOM     13  N   UNL     1       4.269   2.653  17.536  0.00  0.00    +0.000 N 
ATOM     14  H   UNL     1       3.598   2.742  16.767  0.00  0.00    +0.000 HD
ENDBRANCH   9  13
ENDBRANCH   1  10
BRANCH   2  15
ATOM     15  O   UNL     1       7.781   4.574  18.816  0.00  0.00    +0.000 OA
ATOM     16  H   UNL     1       7.384   4.627  19.716  0.00  0.00    +0.000 HD
ENDBRANCH   2  15
TORSDOF 3
ENDMDL
MODEL 4
REMARK VINA RESULT:      -5.8      2.439      2.642
REMARK  Name = 
REMARK  6 active torsions:
REMARK  status: ('A' for Active; 'I' for Inactive)
REMARK    1  A    between atoms: C_1  and  N_2
REMARK    2  A    between atoms: N_2  and  N_3
REMARK    3  A    between atoms: C_4  and  C_5
REMARK    4  A    between atoms: C_4  and  C_6
REMARK    5  A    between atoms: C_7  and  O_8
REMARK    6  A    between atoms: C_10  and  C_11
REMARK                            x       y       z     vdW  Elec       q    Type
REMARK                         _______ _______ _______ _____ _____    ______ ____
ROOT
ATOM      1  C   UNL     1       4.560   4.284  18.874  0.00  0.00    +0.000 A 
ATOM      2  C   UNL     1       4.304   3.107  19.484  0.00  0.00    +0.000 A 
ATOM      3  C   UNL     1       2.965   2.684  19.772  0.00  0.00    +0.000 A 
ATOM      4  C   UNL     1       1.938   3.462  19.425  0.00  0.00    +0.000 A 
ATOM      5  C   UNL     1       0.501   3.123  19.646  0.00  0.00    +0.000 C 
ATOM      6  O   UNL     1       2.156   4.707  18.794  0.00  0.00    +0.000 OA
ATOM      7  C   UNL     1       3.417   5.153  18.503  0.00  0.00    +0.000 A 
ATOM      8  O   UNL     1       3.576   6.231  17.940  0.00  0.00    +0.000 OA
ENDROOT
BRANCH   1  10
ATOM      9  N   UNL     1       6.651   5.224  19.625  0.00  0.00    +0.000 NA
ATOM     10  C   UNL     1       5.992   4.679  18.632  0.00  0.00    +0.000 C 
ATOM     11  C   UNL     1       6.557   4.468  17.236  0.00  0.00    +0.000 C 
BRANCH   9  13
ATOM     12  C   UNL     1       8.137   6.872  18.766  0.00  0.00    +0.000 C 
ATOM     13  N   UNL     1       7.934   5.580  19.412  0.00  0.00    +0.000 N 
ATOM     14  H   UNL     1       8.480   5.564  20.279  0.00  0.00    +0.000 HD
ENDBRANCH   9  13
ENDBRANCH   1  10
BRANCH   2  15
ATOM     15  O   UNL     1       5.255   2.190  19.879  0.00  0.00    +0.000 OA
ATOM     16  H   UNL     1       5.874   2.053  19.125  0.00  0.00    +0.000 HD
ENDBRANCH   2  15
TORSDOF 3
ENDMDL
MODEL 5
REMARK VINA RESULT:      -5.8      2.239      2.397
REMARK  Name = 
REMARK  6 active torsions:
REMARK  status: ('A' for Active; 'I' for Inactive)
REMARK    1  A    between atoms: C_1  and  N_2
REMARK    2  A    between atoms: N_2  and  N_3
REMARK    3  A    between atoms: C_4  and  C_5
REMARK    4  A    between atoms: C_4  and  C_6
REMARK    5  A    between atoms: C_7  and  O_8
REMARK    6  A    between atoms: C_10  and  C_11
REMARK                            x       y       z     vdW  Elec       q    Type
REMARK                         _______ _______ _______ _____ _____    ______ ____
ROOT
ATOM      1  C   UNL     1       4.357   5.583  18.239  0.00  0.00    +0.000 A 
ATOM      2  C   UNL     1       4.598   4.385  18.813  0.00  0.00    +0.000 A 
ATOM      3  C   UNL     1       3.637   3.752  19.667  0.00  0.00    +0.000 A 
ATOM      4  C   UNL     1       2.468   4.351  19.901  0.00  0.00    +0.000 A 
ATOM      5  C   UNL     1       1.376   3.786  20.749  0.00  0.00    +0.000 C 
ATOM      6  O   UNL     1       2.174   5.610  19.332  0.00  0.00    +0.000 OA
ATOM      7  C   UNL     1       3.062   6.252  18.513  0.00  0.00    +0.000 A 
ATOM      8  O   UNL     1       2.775   7.338  18.019  0.00  0.00    +0.000 OA
ENDROOT
BRANCH   1  10
ATOM      9  N   UNL     1       6.502   6.656  17.974  0.00  0.00    +0.000 NA
ATOM     10  C   UNL     1       5.425   6.203  17.379  0.00  0.00    +0.000 C 
ATOM     11  C   UNL     1       5.157   6.310  15.886  0.00  0.00    +0.000 C 
BRANCH   9  13
ATOM     12  C   UNL     1       7.961   8.508  17.654  0.00  0.00    +0.000 C 
ATOM     13  N   UNL     1       7.461   7.212  17.207  0.00  0.00    +0.000 N 
ATOM     14  H   UNL     1       8.261   6.584  17.085  0.00  0.00    +0.000 HD
ENDBRANCH   9  13
ENDBRANCH   1  10
BRANCH   2  15
ATOM     15  O   UNL     1       5.745   3.637  18.647  0.00  0.00    +0.000 OA
ATOM     16  H   UNL     1       6.507   4.260  18.600  0.00  0.00    +0.000 HD
ENDBRANCH   2  15
TORSDOF 3
ENDMDL
MODEL 6
REMARK VINA RESULT:      -5.7      1.673      1.737
REMARK  Name = 
REMARK  6 active torsions:
REMARK  status: ('A' for Active; 'I' for Inactive)
REMARK    1  A    between atoms: C_1  and  N_2
REMARK    2  A    between atoms: N_2  and  N_3
REMARK    3  A    between atoms: C_4  and  C_5
REMARK    4  A    between atoms: C_4  and  C_6
REMARK    5  A    between atoms: C_7  and  O_8
REMARK    6  A    between atoms: C_10  and  C_11
REMARK                            x       y       z     vdW  Elec       q    Type
REMARK                         _______ _______ _______ _____ _____    ______ ____
ROOT
ATOM      1  C   UNL     1       4.612   4.751  18.443  0.00  0.00    +0.000 A 
ATOM      2  C   UNL     1       4.451   3.664  19.227  0.00  0.00    +0.000 A 
ATOM      3  C   UNL     1       3.233   3.427  19.944  0.00  0.00    +0.000 A 
ATOM      4  C   UNL     1       2.224   4.292  19.835  0.00  0.00    +0.000 A 
ATOM      5  C   UNL     1       0.899   4.146  20.508  0.00  0.00    +0.000 C 
ATOM      6  O   UNL     1       2.348   5.450  19.035  0.00  0.00    +0.000 OA
ATOM      7  C   UNL     1       3.494   5.719  18.335  0.00  0.00    +0.000 A 
ATOM      8  O   UNL     1       3.569   6.724  17.635  0.00  0.00    +0.000 OA
ENDROOT
BRANCH   1  10
ATOM      9  N   UNL     1       6.119   4.330  16.606  0.00  0.00    +0.000 NA
ATOM     10  C   UNL     1       5.930   4.952  17.745  0.00  0.00    +0.000 C 
ATOM     11  C   UNL     1       6.971   5.819  18.435  0.00  0.00    +0.000 C 
BRANCH   9  13
ATOM     12  C   UNL     1       7.219   4.899  14.574  0.00  0.00    +0.000 C 
ATOM     13  N   UNL     1       7.298   4.508  15.977  0.00  0.00    +0.000 N 
ATOM     14  H   UNL     1       7.891   5.185  16.467  0.00  0.00    +0.000 HD
ENDBRANCH   9  13
ENDBRANCH   1  10
BRANCH   2  15
ATOM     15  O   UNL     1       5.391   2.673  19.420  0.00  0.00    +0.000 OA
ATOM     16  H   UNL     1       5.874   2.874  20.254  0.00  0.00    +0.000 HD
ENDBRANCH   2  15
TORSDOF 3
ENDMDL
MODEL 7
REMARK VINA RESULT:      -5.6      2.181      2.556
REMARK  Name = 
REMARK  6 active torsions:
REMARK  status: ('A' for Active; 'I' for Inactive)
REMARK    1  A    between atoms: C_1  and  N_2
REMARK    2  A    between atoms: N_2  and  N_3
REMARK    3  A    between atoms: C_4  and  C_5
REMARK    4  A    between atoms: C_4  and  C_6
REMARK    5  A    between atoms: C_7  and  O_8
REMARK    6  A    between atoms: C_10  and  C_11
REMARK                            x       y       z     vdW  Elec       q    Type
REMARK                         _______ _______ _______ _____ _____    ______ ____
ROOT
ATOM      1  C   UNL     1       4.373   5.066  17.297  0.00  0.00    +0.000 A 
ATOM      2  C   UNL     1       4.468   3.729  17.139  0.00  0.00    +0.000 A 
ATOM      3  C   UNL     1       3.484   2.836  17.676  0.00  0.00    +0.000 A 
ATOM      4  C   UNL     1       2.438   3.329  18.342  0.00  0.00    +0.000 A 
ATOM      5  C   UNL     1       1.336   2.509  18.925  0.00  0.00    +0.000 C 
ATOM      6  O   UNL     1       2.301   4.721  18.542  0.00  0.00    +0.000 OA
ATOM      7  C   UNL     1       3.218   5.611  18.051  0.00  0.00    +0.000 A 
ATOM      8  O   UNL     1       3.065   6.815  18.225  0.00  0.00    +0.000 OA
ENDROOT
BRANCH   1  10
ATOM      9  N   UNL     1       6.549   6.097  17.449  0.00  0.00    +0.000 NA
ATOM     10  C   UNL     1       5.460   5.942  16.735  0.00  0.00    +0.000 C 
ATOM     11  C   UNL     1       5.198   6.629  15.404  0.00  0.00    +0.000 C 
BRANCH   9  13
ATOM     12  C   UNL     1       7.714   8.166  17.614  0.00  0.00    +0.000 C 
ATOM     13  N   UNL     1       7.526   6.881  16.949  0.00  0.00    +0.000 N 
ATOM     14  H   UNL     1       8.428   6.395  16.927  0.00  0.00    +0.000 HD
ENDBRANCH   9  13
ENDBRANCH   1  10
BRANCH   2  15
ATOM     15  O   UNL     1       5.473   3.075  16.458  0.00  0.00    +0.000 OA
ATOM     16  H   UNL     1       5.934   2.483  17.096  0.00  0.00    +0.000 HD
ENDBRANCH   2  15
TORSDOF 3
ENDMDL
MODEL 8
REMARK VINA RESULT:      -5.6      1.947      2.373
REMARK  Name = 
REMARK  6 active torsions:
REMARK  status: ('A' for Active; 'I' for Inactive)
REMARK    1  A    between atoms: C_1  and  N_2
REMARK    2  A    between atoms: N_2  and  N_3
REMARK    3  A    between atoms: C_4  and  C_5
REMARK    4  A    between atoms: C_4  and  C_6
REMARK    5  A    between atoms: C_7  and  O_8
REMARK    6  A    between atoms: C_10  and  C_11
REMARK                            x       y       z     vdW  Elec       q    Type
REMARK                         _______ _______ _______ _____ _____    ______ ____
ROOT
ATOM      1  C   UNL     1       4.746   4.537  17.495  0.00  0.00    +0.000 A 
ATOM      2  C   UNL     1       4.146   3.455  18.036  0.00  0.00    +0.000 A 
ATOM      3  C   UNL     1       3.129   3.580  19.037  0.00  0.00    +0.000 A 
ATOM      4  C   UNL     1       2.751   4.793  19.445  0.00  0.00    +0.000 A 
ATOM      5  C   UNL     1       1.687   5.057  20.460  0.00  0.00    +0.000 C 
ATOM      6  O   UNL     1       3.356   5.955  18.917  0.00  0.00    +0.000 OA
ATOM      7  C   UNL     1       4.335   5.883  17.962  0.00  0.00    +0.000 A 
ATOM      8  O   UNL     1       4.832   6.908  17.509  0.00  0.00    +0.000 OA
ENDROOT
BRANCH   1  10
ATOM      9  N   UNL     1       5.471   3.944  15.271  0.00  0.00    +0.000 NA
ATOM     10  C   UNL     1       5.830   4.330  16.472  0.00  0.00    +0.000 C 
ATOM     11  C   UNL     1       7.270   4.528  16.917  0.00  0.00    +0.000 C 
BRANCH   9  13
ATOM     12  C   UNL     1       5.985   3.593  12.975  0.00  0.00    +0.000 C 
ATOM     13  N   UNL     1       6.439   3.756  14.351  0.00  0.00    +0.000 N 
ATOM     14  H   UNL     1       7.134   4.508  14.374  0.00  0.00    +0.000 HD
ENDBRANCH   9  13
ENDBRANCH   1  10
BRANCH   2  15
ATOM     15  O   UNL     1       4.412   2.144  17.699  0.00  0.00    +0.000 OA
ATOM     16  H   UNL     1       3.601   1.616  17.881  0.00  0.00    +0.000 HD
ENDBRANCH   2  15
TORSDOF 3
ENDMDL
MODEL 9
REMARK VINA RESULT:      -5.6      1.888      2.835
REMARK  Name = 
REMARK  6 active torsions:
REMARK  status: ('A' for Active; 'I' for Inactive)
REMARK    1  A    between atoms: C_1  and  N_2
REMARK    2  A    between atoms: N_2  and  N_3
REMARK    3  A    between atoms: C_4  and  C_5
REMARK    4  A    between atoms: C_4  and  C_6
REMARK    5  A    between atoms: C_7  and  O_8
REMARK    6  A    between atoms: C_10  and  C_11
REMARK                            x       y       z     vdW  Elec       q    Type
REMARK                         _______ _______ _______ _____ _____    ______ ____
ROOT
ATOM      1  C   UNL     1       4.829   5.427  18.304  0.00  0.00    +0.000 A 
ATOM      2  C   UNL     1       3.794   6.282  18.168  0.00  0.00    +0.000 A 
ATOM      3  C   UNL     1       2.567   6.102  18.887  0.00  0.00    +0.000 A 
ATOM      4  C   UNL     1       2.439   5.069  19.722  0.00  0.00    +0.000 A 
ATOM      5  C   UNL     1       1.226   4.786  20.546  0.00  0.00    +0.000 C 
ATOM      6  O   UNL     1       3.491   4.141  19.891  0.00  0.00    +0.000 OA
ATOM      7  C   UNL     1       4.678   4.272  19.222  0.00  0.00    +0.000 A 
ATOM      8  O   UNL     1       5.580   3.460  19.399  0.00  0.00    +0.000 OA
ENDROOT
BRANCH   1  10
ATOM      9  N   UNL     1       6.060   5.296  16.233  0.00  0.00    +0.000 NA
ATOM     10  C   UNL     1       6.075   5.660  17.493  0.00  0.00    +0.000 C 
ATOM     11  C   UNL     1       7.281   6.252  18.204  0.00  0.00    +0.000 C 
BRANCH   9  13
ATOM     12  C   UNL     1       7.155   4.964  14.147  0.00  0.00    +0.000 C 
ATOM     13  N   UNL     1       7.174   5.502  15.503  0.00  0.00    +0.000 N 
ATOM     14  H   UNL     1       7.414   6.497  15.451  0.00  0.00    +0.000 HD
ENDBRANCH   9  13
ENDBRANCH   1  10
BRANCH   2  15
ATOM     15  O   UNL     1       3.786   7.403  17.364  0.00  0.00    +0.000 OA
ATOM     16  H   UNL     1       4.707   7.556  17.050  0.00  0.00    +0.000 HD
ENDBRANCH   2  15
TORSDOF 3
ENDMDL
