MODEL 1
REMARK VINA RESULT:      -7.3      0.000      0.000
REMARK  Name = 
REMARK  6 active torsions:
REMARK  status: ('A' for Active; 'I' for Inactive)
REMARK    1  A    between atoms: C_2  and  C_3
REMARK    2  A    between atoms: C_6  and  C_7
REMARK    3  A    between atoms: N_14  and  C_15
REMARK    4  A    between atoms: C_19  and  C_20
REMARK    5  A    between atoms: N_27  and  C_28
REMARK    6  A    between atoms: C_28  and  C_29
REMARK                            x       y       z     vdW  Elec       q    Type
REMARK                         _______ _______ _______ _____ _____    ______ ____
ROOT
ATOM      1  C   UNL     1       0.267  11.403  18.713  0.00  0.00    +0.000 C 
ATOM      2  C   UNL     1      -1.191  11.261  18.600  0.00  0.00    +0.000 C 
ATOM      3  C   UNL     1      -2.092  11.802  19.412  0.00  0.00    +0.000 C 
ATOM      4  C   UNL     1      -3.515  11.479  19.054  0.00  0.00    +0.000 C 
ATOM      5  C   UNL     1      -3.410  10.539  17.853  0.00  0.00    +0.000 C 
ATOM      6  C   UNL     1      -1.936  10.515  17.582  0.00  0.00    +0.000 C 
ATOM      7  O   UNL     1      -1.416   9.953  16.631  0.00  0.00    +0.000 OA
ATOM      8  N   UNL     1      -1.683  12.639  20.437  0.00  0.00    +0.000 N 
ATOM      9  C   UNL     1      -0.314  12.925  20.663  0.00  0.00    +0.000 C 
ATOM     10  O   UNL     1       0.083  13.649  21.581  0.00  0.00    +0.000 OA
ATOM     11  N   UNL     1       0.604  12.364  19.782  0.00  0.00    +0.000 N 
ENDROOT
BRANCH   1  15
ATOM     12  C   UNL     1       2.127   7.578  19.429  0.00  0.00    +0.000 A 
ATOM     13  C   UNL     1       1.388   8.195  20.440  0.00  0.00    +0.000 A 
ATOM     14  C   UNL     1       0.777   9.426  20.207  0.00  0.00    +0.000 A 
ATOM     15  C   UNL     1       0.918  10.062  18.962  0.00  0.00    +0.000 A 
ATOM     16  C   UNL     1       1.711   9.450  17.979  0.00  0.00    +0.000 A 
ATOM     17  C   UNL     1       2.284   8.206  18.193  0.00  0.00    +0.000 A 
BRANCH  12  19
ATOM     18  N   UNL     1       3.230   5.269  19.825  0.00  0.00    +0.000 NA
ATOM     19  C   UNL     1       2.728   6.298  19.645  0.00  0.00    +0.000 C 
ENDBRANCH  12  19
ENDBRANCH   1  15
BRANCH   8  20
ATOM     20  C   UNL     1      -2.629  13.323  21.267  0.00  0.00    +0.000 A 
ATOM     21  C   UNL     1      -3.116  14.580  20.907  0.00  0.00    +0.000 A 
ATOM     22  C   UNL     1      -4.049  15.225  21.723  0.00  0.00    +0.000 A 
ATOM     23  C   UNL     1      -4.486  14.629  22.901  0.00  0.00    +0.000 A 
ATOM     24  C   UNL     1      -4.001  13.364  23.280  0.00  0.00    +0.000 A 
ATOM     25  C   UNL     1      -3.080  12.717  22.453  0.00  0.00    +0.000 A 
BRANCH  24  26
ATOM     26  C   UNL     1      -4.456  12.706  24.567  0.00  0.00    +0.000 C 
ATOM     27  F   UNL     1      -3.990  13.327  25.686  0.00  0.00    +0.000 F 
ATOM     28  F   UNL     1      -5.812  12.681  24.692  0.00  0.00    +0.000 F 
ATOM     29  F   UNL     1      -4.044  11.414  24.659  0.00  0.00    +0.000 F 
ENDBRANCH  24  26
ENDBRANCH   8  20
BRANCH  11  30
ATOM     30  C   UNL     1       2.005  12.799  19.908  0.00  0.00    +0.000 C 
BRANCH  30  31
ATOM     31  C   UNL     1       2.628  13.699  18.809  0.00  0.00    +0.000 C 
ATOM     32  O   UNL     1       3.305  13.297  17.864  0.00  0.00    +0.000 OA
ATOM     33  N   UNL     1       2.263  15.038  18.937  0.00  0.00    +0.000 N 
ATOM     34  C   UNL     1       2.707  16.128  18.058  0.00  0.00    +0.000 C 
ATOM     35  C   UNL     1       3.379  16.741  19.284  0.00  0.00    +0.000 C 
ATOM     36  C   UNL     1       2.518  15.824  20.151  0.00  0.00    +0.000 C 
ENDBRANCH  30  31
ENDBRANCH  11  30
TORSDOF 6
ENDMDL
MODEL 2
REMARK VINA RESULT:      -7.2      0.090      1.027
REMARK  Name = 
REMARK  6 active torsions:
REMARK  status: ('A' for Active; 'I' for Inactive)
REMARK    1  A    between atoms: C_2  and  C_3
REMARK    2  A    between atoms: C_6  and  C_7
REMARK    3  A    between atoms: N_14  and  C_15
REMARK    4  A    between atoms: C_19  and  C_20
REMARK    5  A    between atoms: N_27  and  C_28
REMARK    6  A    between atoms: C_28  and  C_29
REMARK                            x       y       z     vdW  Elec       q    Type
REMARK                         _______ _______ _______ _____ _____    ______ ____
ROOT
ATOM      1  C   UNL     1       0.255  11.449  18.709  0.00  0.00    +0.000 C 
ATOM      2  C   UNL     1      -1.203  11.312  18.602  0.00  0.00    +0.000 C 
ATOM      3  C   UNL     1      -2.099  11.854  19.420  0.00  0.00    +0.000 C 
ATOM      4  C   UNL     1      -3.524  11.536  19.067  0.00  0.00    +0.000 C 
ATOM      5  C   UNL     1      -3.428  10.598  17.864  0.00  0.00    +0.000 C 
ATOM      6  C   UNL     1      -1.955  10.571  17.586  0.00  0.00    +0.000 C 
ATOM      7  O   UNL     1      -1.440  10.010  16.631  0.00  0.00    +0.000 OA
ATOM      8  N   UNL     1      -1.683  12.687  20.445  0.00  0.00    +0.000 N 
ATOM      9  C   UNL     1      -0.312  12.969  20.665  0.00  0.00    +0.000 C 
ATOM     10  O   UNL     1       0.092  13.689  21.584  0.00  0.00    +0.000 OA
ATOM     11  N   UNL     1       0.601  12.407  19.779  0.00  0.00    +0.000 N 
ENDROOT
BRANCH   1  15
ATOM     12  C   UNL     1       2.107   7.615  19.395  0.00  0.00    +0.000 A 
ATOM     13  C   UNL     1       2.242   8.244  18.155  0.00  0.00    +0.000 A 
ATOM     14  C   UNL     1       1.654   9.488  17.936  0.00  0.00    +0.000 A 
ATOM     15  C   UNL     1       0.904  10.106  18.952  0.00  0.00    +0.000 A 
ATOM     16  C   UNL     1       0.735   9.431  20.170  0.00  0.00    +0.000 A 
ATOM     17  C   UNL     1       1.356   8.214  20.406  0.00  0.00    +0.000 A 
BRANCH  12  19
ATOM     18  N   UNL     1       3.258   5.337  19.830  0.00  0.00    +0.000 NA
ATOM     19  C   UNL     1       2.738   6.355  19.643  0.00  0.00    +0.000 C 
ENDBRANCH  12  19
ENDBRANCH   1  15
BRANCH   8  20
ATOM     20  C   UNL     1      -2.623  13.372  21.281  0.00  0.00    +0.000 A 
ATOM     21  C   UNL     1      -3.097  14.638  20.934  0.00  0.00    +0.000 A 
ATOM     22  C   UNL     1      -4.024  15.283  21.755  0.00  0.00    +0.000 A 
ATOM     23  C   UNL     1      -4.469  14.679  22.926  0.00  0.00    +0.000 A 
ATOM     24  C   UNL     1      -3.998  13.406  23.292  0.00  0.00    +0.000 A 
ATOM     25  C   UNL     1      -3.082  12.758  22.460  0.00  0.00    +0.000 A 
BRANCH  24  26
ATOM     26  C   UNL     1      -4.462  12.738  24.571  0.00  0.00    +0.000 C 
ATOM     27  F   UNL     1      -4.077  11.436  24.672  0.00  0.00    +0.000 F 
ATOM     28  F   UNL     1      -3.984  13.354  25.687  0.00  0.00    +0.000 F 
ATOM     29  F   UNL     1      -5.815  12.737  24.690  0.00  0.00    +0.000 F 
ENDBRANCH  24  26
ENDBRANCH   8  20
BRANCH  11  30
ATOM     30  C   UNL     1       2.004  12.838  19.900  0.00  0.00    +0.000 C 
BRANCH  30  31
ATOM     31  C   UNL     1       2.646  13.678  18.765  0.00  0.00    +0.000 C 
ATOM     32  O   UNL     1       3.255  13.218  17.801  0.00  0.00    +0.000 OA
ATOM     33  N   UNL     1       2.384  15.041  18.889  0.00  0.00    +0.000 N 
ATOM     34  C   UNL     1       2.869  16.086  17.978  0.00  0.00    +0.000 C 
ATOM     35  C   UNL     1       3.632  16.663  19.168  0.00  0.00    +0.000 C 
ATOM     36  C   UNL     1       2.741  15.820  20.081  0.00  0.00    +0.000 C 
ENDBRANCH  30  31
ENDBRANCH  11  30
TORSDOF 6
ENDMDL
MODEL 3
REMARK VINA RESULT:      -7.2      1.556      2.000
REMARK  Name = 
REMARK  6 active torsions:
REMARK  status: ('A' for Active; 'I' for Inactive)
REMARK    1  A    between atoms: C_2  and  C_3
REMARK    2  A    between atoms: C_6  and  C_7
REMARK    3  A    between atoms: N_14  and  C_15
REMARK    4  A    between atoms: C_19  and  C_20
REMARK    5  A    between atoms: N_27  and  C_28
REMARK    6  A    between atoms: C_28  and  C_29
REMARK                            x       y       z     vdW  Elec       q    Type
REMARK                         _______ _______ _______ _____ _____    ______ ____
ROOT
ATOM      1  C   UNL     1      -1.179  12.229  18.765  0.00  0.00    +0.000 C 
ATOM      2  C   UNL     1      -2.580  11.860  18.522  0.00  0.00    +0.000 C 
ATOM      3  C   UNL     1      -3.625  12.255  19.240  0.00  0.00    +0.000 C 
ATOM      4  C   UNL     1      -4.941  11.713  18.760  0.00  0.00    +0.000 C 
ATOM      5  C   UNL     1      -4.581  10.798  17.589  0.00  0.00    +0.000 C 
ATOM      6  C   UNL     1      -3.102  11.005  17.453  0.00  0.00    +0.000 C 
ATOM      7  O   UNL     1      -2.415  10.529  16.563  0.00  0.00    +0.000 OA
ATOM      8  N   UNL     1      -3.448  13.148  20.284  0.00  0.00    +0.000 N 
ATOM      9  C   UNL     1      -2.167  13.646  20.629  0.00  0.00    +0.000 C 
ATOM     10  O   UNL     1      -1.974  14.425  21.567  0.00  0.00    +0.000 OA
ATOM     11  N   UNL     1      -1.095  13.234  19.844  0.00  0.00    +0.000 N 
ENDROOT
BRANCH   1  15
ATOM     12  C   UNL     1       1.181   8.745  19.710  0.00  0.00    +0.000 A 
ATOM     13  C   UNL     1       0.228   9.211  20.619  0.00  0.00    +0.000 A 
ATOM     14  C   UNL     1      -0.543  10.330  20.310  0.00  0.00    +0.000 A 
ATOM     15  C   UNL     1      -0.352  11.008  19.094  0.00  0.00    +0.000 A 
ATOM     16  C   UNL     1       0.649  10.556  18.220  0.00  0.00    +0.000 A 
ATOM     17  C   UNL     1       1.387   9.417  18.504  0.00  0.00    +0.000 A 
BRANCH  12  19
ATOM     18  N   UNL     1       2.590   6.639  20.242  0.00  0.00    +0.000 NA
ATOM     19  C   UNL     1       1.953   7.576  20.000  0.00  0.00    +0.000 C 
ENDBRANCH  12  19
ENDBRANCH   1  15
BRANCH   8  20
ATOM     20  C   UNL     1      -4.561  13.677  21.014  0.00  0.00    +0.000 A 
ATOM     21  C   UNL     1      -5.126  14.904  20.664  0.00  0.00    +0.000 A 
ATOM     22  C   UNL     1      -6.220  15.397  21.378  0.00  0.00    +0.000 A 
ATOM     23  C   UNL     1      -6.744  14.679  22.447  0.00  0.00    +0.000 A 
ATOM     24  C   UNL     1      -6.184  13.443  22.816  0.00  0.00    +0.000 A 
ATOM     25  C   UNL     1      -5.099  12.947  22.089  0.00  0.00    +0.000 A 
BRANCH  24  26
ATOM     26  C   UNL     1      -6.733  12.653  23.987  0.00  0.00    +0.000 C 
ATOM     27  F   UNL     1      -5.765  12.138  24.794  0.00  0.00    +0.000 F 
ATOM     28  F   UNL     1      -7.532  13.403  24.796  0.00  0.00    +0.000 F 
ATOM     29  F   UNL     1      -7.487  11.595  23.587  0.00  0.00    +0.000 F 
ENDBRANCH  24  26
ENDBRANCH   8  20
BRANCH  11  30
ATOM     30  C   UNL     1       0.203  13.883  20.089  0.00  0.00    +0.000 C 
BRANCH  30  31
ATOM     31  C   UNL     1       0.633  15.090  19.213  0.00  0.00    +0.000 C 
ATOM     32  O   UNL     1      -0.138  15.863  18.647  0.00  0.00    +0.000 OA
ATOM     33  N   UNL     1       2.012  15.283  19.200  0.00  0.00    +0.000 N 
ATOM     34  C   UNL     1       2.717  16.332  18.451  0.00  0.00    +0.000 C 
ATOM     35  C   UNL     1       3.398  15.210  17.670  0.00  0.00    +0.000 C 
ATOM     36  C   UNL     1       2.961  14.247  18.773  0.00  0.00    +0.000 C 
ENDBRANCH  30  31
ENDBRANCH  11  30
TORSDOF 6
ENDMDL
MODEL 4
REMARK VINA RESULT:      -7.1      1.570      2.270
REMARK  Name = 
REMARK  6 active torsions:
REMARK  status: ('A' for Active; 'I' for Inactive)
REMARK    1  A    between atoms: C_2  and  C_3
REMARK    2  A    between atoms: C_6  and  C_7
REMARK    3  A    between atoms: N_14  and  C_15
REMARK    4  A    between atoms: C_19  and  C_20
REMARK    5  A    between atoms: N_27  and  C_28
REMARK    6  A    between atoms: C_28  and  C_29
REMARK                            x       y       z     vdW  Elec       q    Type
REMARK                         _______ _______ _______ _____ _____    ______ ____
ROOT
ATOM      1  C   UNL     1      -1.212  12.256  18.780  0.00  0.00    +0.000 C 
ATOM      2  C   UNL     1      -2.612  11.888  18.527  0.00  0.00    +0.000 C 
ATOM      3  C   UNL     1      -3.661  12.276  19.244  0.00  0.00    +0.000 C 
ATOM      4  C   UNL     1      -4.974  11.737  18.753  0.00  0.00    +0.000 C 
ATOM      5  C   UNL     1      -4.608  10.833  17.575  0.00  0.00    +0.000 C 
ATOM      6  C   UNL     1      -3.129  11.042  17.448  0.00  0.00    +0.000 C 
ATOM      7  O   UNL     1      -2.437  10.576  16.556  0.00  0.00    +0.000 OA
ATOM      8  N   UNL     1      -3.489  13.158  20.297  0.00  0.00    +0.000 N 
ATOM      9  C   UNL     1      -2.210  13.654  20.652  0.00  0.00    +0.000 C 
ATOM     10  O   UNL     1      -2.021  14.425  21.599  0.00  0.00    +0.000 OA
ATOM     11  N   UNL     1      -1.134  13.250  19.869  0.00  0.00    +0.000 N 
ENDROOT
BRANCH   1  15
ATOM     12  C   UNL     1       1.147   8.762  19.690  0.00  0.00    +0.000 A 
ATOM     13  C   UNL     1       1.323   9.426  18.473  0.00  0.00    +0.000 A 
ATOM     14  C   UNL     1       0.569  10.561  18.183  0.00  0.00    +0.000 A 
ATOM     15  C   UNL     1      -0.386  11.032  19.101  0.00  0.00    +0.000 A 
ATOM     16  C   UNL     1      -0.584  10.317  20.292  0.00  0.00    +0.000 A 
ATOM     17  C   UNL     1       0.195   9.213  20.604  0.00  0.00    +0.000 A 
BRANCH  12  19
ATOM     18  N   UNL     1       2.597   6.695  20.265  0.00  0.00    +0.000 NA
ATOM     19  C   UNL     1       1.942   7.617  20.014  0.00  0.00    +0.000 C 
ENDBRANCH  12  19
ENDBRANCH   1  15
BRANCH   8  20
ATOM     20  C   UNL     1      -4.606  13.680  21.027  0.00  0.00    +0.000 A 
ATOM     21  C   UNL     1      -5.179  14.903  20.676  0.00  0.00    +0.000 A 
ATOM     22  C   UNL     1      -6.277  15.388  21.390  0.00  0.00    +0.000 A 
ATOM     23  C   UNL     1      -6.795  14.667  22.460  0.00  0.00    +0.000 A 
ATOM     24  C   UNL     1      -6.225  13.435  22.830  0.00  0.00    +0.000 A 
ATOM     25  C   UNL     1      -5.137  12.947  22.103  0.00  0.00    +0.000 A 
BRANCH  24  26
ATOM     26  C   UNL     1      -6.769  12.642  24.002  0.00  0.00    +0.000 C 
ATOM     27  F   UNL     1      -7.534  11.580  23.628  0.00  0.00    +0.000 F 
ATOM     28  F   UNL     1      -5.784  12.132  24.792  0.00  0.00    +0.000 F 
ATOM     29  F   UNL     1      -7.552  13.397  24.816  0.00  0.00    +0.000 F 
ENDBRANCH  24  26
ENDBRANCH   8  20
BRANCH  11  30
ATOM     30  C   UNL     1       0.163  13.898  20.126  0.00  0.00    +0.000 C 
BRANCH  30  31
ATOM     31  C   UNL     1       0.624  15.071  19.222  0.00  0.00    +0.000 C 
ATOM     32  O   UNL     1      -0.125  15.838  18.620  0.00  0.00    +0.000 OA
ATOM     33  N   UNL     1       2.007  15.244  19.226  0.00  0.00    +0.000 N 
ATOM     34  C   UNL     1       2.738  16.260  18.458  0.00  0.00    +0.000 C 
ATOM     35  C   UNL     1       3.415  15.106  17.721  0.00  0.00    +0.000 C 
ATOM     36  C   UNL     1       2.947  14.183  18.846  0.00  0.00    +0.000 C 
ENDBRANCH  30  31
ENDBRANCH  11  30
TORSDOF 6
ENDMDL
MODEL 5
REMARK VINA RESULT:      -6.9      1.279      1.682
REMARK  Name = 
REMARK  6 active torsions:
REMARK  status: ('A' for Active; 'I' for Inactive)
REMARK    1  A    between atoms: C_2  and  C_3
REMARK    2  A    between atoms: C_6  and  C_7
REMARK    3  A    between atoms: N_14  and  C_15
REMARK    4  A    between atoms: C_19  and  C_20
REMARK    5  A    between atoms: N_27  and  C_28
REMARK    6  A    between atoms: C_28  and  C_29
REMARK                            x       y       z     vdW  Elec       q    Type
REMARK                         _______ _______ _______ _____ _____    ______ ____
ROOT
ATOM      1  C   UNL     1      -0.543  11.880  19.327  0.00  0.00    +0.000 C 
ATOM      2  C   UNL     1      -1.947  11.725  18.925  0.00  0.00    +0.000 C 
ATOM      3  C   UNL     1      -3.000  12.218  19.568  0.00  0.00    +0.000 C 
ATOM      4  C   UNL     1      -4.319  11.894  18.926  0.00  0.00    +0.000 C 
ATOM      5  C   UNL     1      -3.963  11.009  17.731  0.00  0.00    +0.000 C 
ATOM      6  C   UNL     1      -2.464  11.016  17.752  0.00  0.00    +0.000 C 
ATOM      7  O   UNL     1      -1.757  10.504  16.898  0.00  0.00    +0.000 OA
ATOM      8  N   UNL     1      -2.816  13.013  20.687  0.00  0.00    +0.000 N 
ATOM      9  C   UNL     1      -1.523  13.307  21.187  0.00  0.00    +0.000 C 
ATOM     10  O   UNL     1      -1.327  13.994  22.195  0.00  0.00    +0.000 OA
ATOM     11  N   UNL     1      -0.439  12.797  20.480  0.00  0.00    +0.000 N 
ENDROOT
BRANCH   1  15
ATOM     12  C   UNL     1       1.226   8.050  20.220  0.00  0.00    +0.000 A 
ATOM     13  C   UNL     1       1.604   8.742  19.067  0.00  0.00    +0.000 A 
ATOM     14  C   UNL     1       1.042   9.985  18.783  0.00  0.00    +0.000 A 
ATOM     15  C   UNL     1       0.077  10.539  19.642  0.00  0.00    +0.000 A 
ATOM     16  C   UNL     1      -0.329   9.800  20.764  0.00  0.00    +0.000 A 
ATOM     17  C   UNL     1       0.260   8.584  21.073  0.00  0.00    +0.000 A 
BRANCH  12  19
ATOM     18  N   UNL     1       2.302   5.771  20.817  0.00  0.00    +0.000 NA
ATOM     19  C   UNL     1       1.824   6.790  20.541  0.00  0.00    +0.000 C 
ENDBRANCH  12  19
ENDBRANCH   1  15
BRANCH   8  20
ATOM     20  C   UNL     1      -3.919  13.648  21.345  0.00  0.00    +0.000 A 
ATOM     21  C   UNL     1      -4.269  14.964  21.042  0.00  0.00    +0.000 A 
ATOM     22  C   UNL     1      -5.356  15.561  21.684  0.00  0.00    +0.000 A 
ATOM     23  C   UNL     1      -6.087  14.856  22.634  0.00  0.00    +0.000 A 
ATOM     24  C   UNL     1      -5.745  13.529  22.953  0.00  0.00    +0.000 A 
ATOM     25  C   UNL     1      -4.665  12.933  22.298  0.00  0.00    +0.000 A 
BRANCH  24  26
ATOM     26  C   UNL     1      -6.522  12.751  23.996  0.00  0.00    +0.000 C 
ATOM     27  F   UNL     1      -7.346  13.530  24.749  0.00  0.00    +0.000 F 
ATOM     28  F   UNL     1      -7.316  11.789  23.448  0.00  0.00    +0.000 F 
ATOM     29  F   UNL     1      -5.707  12.112  24.875  0.00  0.00    +0.000 F 
ENDBRANCH  24  26
ENDBRANCH   8  20
BRANCH  11  30
ATOM     30  C   UNL     1       0.901  13.244  20.894  0.00  0.00    +0.000 C 
BRANCH  30  31
ATOM     31  C   UNL     1       1.814  13.973  19.874  0.00  0.00    +0.000 C 
ATOM     32  O   UNL     1       2.863  13.524  19.416  0.00  0.00    +0.000 OA
ATOM     33  N   UNL     1       1.275  15.181  19.436  0.00  0.00    +0.000 N 
ATOM     34  C   UNL     1       1.913  16.100  18.484  0.00  0.00    +0.000 C 
ATOM     35  C   UNL     1       1.941  17.129  19.612  0.00  0.00    +0.000 C 
ATOM     36  C   UNL     1       0.911  16.272  20.348  0.00  0.00    +0.000 C 
ENDBRANCH  30  31
ENDBRANCH  11  30
TORSDOF 6
ENDMDL
MODEL 6
REMARK VINA RESULT:      -6.9      1.345      1.574
REMARK  Name = 
REMARK  6 active torsions:
REMARK  status: ('A' for Active; 'I' for Inactive)
REMARK    1  A    between atoms: C_2  and  C_3
REMARK    2  A    between atoms: C_6  and  C_7
REMARK    3  A    between atoms: N_14  and  C_15
REMARK    4  A    between atoms: C_19  and  C_20
REMARK    5  A    between atoms: N_27  and  C_28
REMARK    6  A    between atoms: C_28  and  C_29
REMARK                            x       y       z     vdW  Elec       q    Type
REMARK                         _______ _______ _______ _____ _____    ______ ____
ROOT
ATOM      1  C   UNL     1      -0.785  12.024  18.843  0.00  0.00    +0.000 C 
ATOM      2  C   UNL     1      -2.191  11.733  18.533  0.00  0.00    +0.000 C 
ATOM      3  C   UNL     1      -3.244  12.162  19.219  0.00  0.00    +0.000 C 
ATOM      4  C   UNL     1      -4.564  11.699  18.671  0.00  0.00    +0.000 C 
ATOM      5  C   UNL     1      -4.201  10.797  17.492  0.00  0.00    +0.000 C 
ATOM      6  C   UNL     1      -2.710  10.932  17.421  0.00  0.00    +0.000 C 
ATOM      7  O   UNL     1      -2.010  10.445  16.547  0.00  0.00    +0.000 OA
ATOM      8  N   UNL     1      -3.067  13.018  20.293  0.00  0.00    +0.000 N 
ATOM      9  C   UNL     1      -1.778  13.442  20.703  0.00  0.00    +0.000 C 
ATOM     10  O   UNL     1      -1.586  14.187  21.669  0.00  0.00    +0.000 OA
ATOM     11  N   UNL     1      -0.696  12.996  19.951  0.00  0.00    +0.000 N 
ENDROOT
BRANCH   1  15
ATOM     12  C   UNL     1       1.358   8.403  19.787  0.00  0.00    +0.000 A 
ATOM     13  C   UNL     1       0.396   8.896  20.671  0.00  0.00    +0.000 A 
ATOM     14  C   UNL     1      -0.305  10.060  20.363  0.00  0.00    +0.000 A 
ATOM     15  C   UNL     1      -0.033  10.755  19.171  0.00  0.00    +0.000 A 
ATOM     16  C   UNL     1       0.975  10.272  18.325  0.00  0.00    +0.000 A 
ATOM     17  C   UNL     1       1.644   9.090  18.607  0.00  0.00    +0.000 A 
BRANCH  12  19
ATOM     18  N   UNL     1       2.631   6.213  20.326  0.00  0.00    +0.000 NA
ATOM     19  C   UNL     1       2.058   7.188  20.076  0.00  0.00    +0.000 C 
ENDBRANCH  12  19
ENDBRANCH   1  15
BRANCH   8  20
ATOM     20  C   UNL     1      -4.182  13.584  20.991  0.00  0.00    +0.000 A 
ATOM     21  C   UNL     1      -4.726  14.807  20.595  0.00  0.00    +0.000 A 
ATOM     22  C   UNL     1      -5.822  15.336  21.280  0.00  0.00    +0.000 A 
ATOM     23  C   UNL     1      -6.369  14.659  22.364  0.00  0.00    +0.000 A 
ATOM     24  C   UNL     1      -5.830  13.428  22.779  0.00  0.00    +0.000 A 
ATOM     25  C   UNL     1      -4.743  12.896  22.082  0.00  0.00    +0.000 A 
BRANCH  24  26
ATOM     26  C   UNL     1      -6.404  12.683  23.967  0.00  0.00    +0.000 C 
ATOM     27  F   UNL     1      -5.455  12.096  24.748  0.00  0.00    +0.000 F 
ATOM     28  F   UNL     1      -7.120  13.492  24.797  0.00  0.00    +0.000 F 
ATOM     29  F   UNL     1      -7.247  11.686  23.592  0.00  0.00    +0.000 F 
ENDBRANCH  24  26
ENDBRANCH   8  20
BRANCH  11  30
ATOM     30  C   UNL     1       0.621  13.572  20.266  0.00  0.00    +0.000 C 
BRANCH  30  31
ATOM     31  C   UNL     1       1.308  14.515  19.243  0.00  0.00    +0.000 C 
ATOM     32  O   UNL     1       2.036  14.150  18.322  0.00  0.00    +0.000 OA
ATOM     33  N   UNL     1       0.941  15.849  19.408  0.00  0.00    +0.000 N 
ATOM     34  C   UNL     1       1.436  16.973  18.602  0.00  0.00    +0.000 C 
ATOM     35  C   UNL     1       2.040  17.530  19.889  0.00  0.00    +0.000 C 
ATOM     36  C   UNL     1       1.129  16.581  20.666  0.00  0.00    +0.000 C 
ENDBRANCH  30  31
ENDBRANCH  11  30
TORSDOF 6
ENDMDL
MODEL 7
REMARK VINA RESULT:      -6.8      1.469      1.930
REMARK  Name = 
REMARK  6 active torsions:
REMARK  status: ('A' for Active; 'I' for Inactive)
REMARK    1  A    between atoms: C_2  and  C_3
REMARK    2  A    between atoms: C_6  and  C_7
REMARK    3  A    between atoms: N_14  and  C_15
REMARK    4  A    between atoms: C_19  and  C_20
REMARK    5  A    between atoms: N_27  and  C_28
REMARK    6  A    between atoms: C_28  and  C_29
REMARK                            x       y       z     vdW  Elec       q    Type
REMARK                         _______ _______ _______ _____ _____    ______ ____
ROOT
ATOM      1  C   UNL     1       0.223  11.621  18.935  0.00  0.00    +0.000 C 
ATOM      2  C   UNL     1      -1.236  11.452  18.881  0.00  0.00    +0.000 C 
ATOM      3  C   UNL     1      -2.098  11.829  19.819  0.00  0.00    +0.000 C 
ATOM      4  C   UNL     1      -3.532  11.522  19.493  0.00  0.00    +0.000 C 
ATOM      5  C   UNL     1      -3.479  10.787  18.153  0.00  0.00    +0.000 C 
ATOM      6  C   UNL     1      -2.023  10.854  17.800  0.00  0.00    +0.000 C 
ATOM      7  O   UNL     1      -1.548  10.466  16.744  0.00  0.00    +0.000 OA
ATOM      8  N   UNL     1      -1.648  12.506  20.940  0.00  0.00    +0.000 N 
ATOM      9  C   UNL     1      -0.275  12.797  21.132  0.00  0.00    +0.000 C 
ATOM     10  O   UNL     1       0.161  13.378  22.131  0.00  0.00    +0.000 OA
ATOM     11  N   UNL     1       0.602  12.411  20.124  0.00  0.00    +0.000 N 
ENDROOT
BRANCH   1  15
ATOM     12  C   UNL     1       2.208   7.792  18.927  0.00  0.00    +0.000 A 
ATOM     13  C   UNL     1       1.464   8.190  20.039  0.00  0.00    +0.000 A 
ATOM     14  C   UNL     1       0.812   9.422  20.039  0.00  0.00    +0.000 A 
ATOM     15  C   UNL     1       0.918  10.279  18.930  0.00  0.00    +0.000 A 
ATOM     16  C   UNL     1       1.716   9.883  17.847  0.00  0.00    +0.000 A 
ATOM     17  C   UNL     1       2.329   8.639  17.825  0.00  0.00    +0.000 A 
BRANCH  12  19
ATOM     18  N   UNL     1       3.386   5.487  18.881  0.00  0.00    +0.000 NA
ATOM     19  C   UNL     1       2.850   6.514  18.901  0.00  0.00    +0.000 C 
ENDBRANCH  12  19
ENDBRANCH   1  15
BRANCH   8  20
ATOM     20  C   UNL     1      -2.557  13.020  21.920  0.00  0.00    +0.000 A 
ATOM     21  C   UNL     1      -2.915  12.256  23.032  0.00  0.00    +0.000 A 
ATOM     22  C   UNL     1      -3.791  12.780  23.984  0.00  0.00    +0.000 A 
ATOM     23  C   UNL     1      -4.324  14.054  23.826  0.00  0.00    +0.000 A 
ATOM     24  C   UNL     1      -3.977  14.835  22.709  0.00  0.00    +0.000 A 
ATOM     25  C   UNL     1      -3.088  14.313  21.767  0.00  0.00    +0.000 A 
BRANCH  24  26
ATOM     26  C   UNL     1      -4.558  16.222  22.513  0.00  0.00    +0.000 C 
ATOM     27  F   UNL     1      -4.905  16.485  21.222  0.00  0.00    +0.000 F 
ATOM     28  F   UNL     1      -5.685  16.427  23.250  0.00  0.00    +0.000 F 
ATOM     29  F   UNL     1      -3.688  17.201  22.872  0.00  0.00    +0.000 F 
ENDBRANCH  24  26
ENDBRANCH   8  20
BRANCH  11  30
ATOM     30  C   UNL     1       1.998  12.865  20.239  0.00  0.00    +0.000 C 
BRANCH  30  31
ATOM     31  C   UNL     1       2.611  13.747  19.120  0.00  0.00    +0.000 C 
ATOM     32  O   UNL     1       3.314  13.335  18.199  0.00  0.00    +0.000 OA
ATOM     33  N   UNL     1       2.204  15.077  19.198  0.00  0.00    +0.000 N 
ATOM     34  C   UNL     1       2.629  16.150  18.289  0.00  0.00    +0.000 C 
ATOM     35  C   UNL     1       3.263  16.824  19.504  0.00  0.00    +0.000 C 
ATOM     36  C   UNL     1       2.416  15.910  20.389  0.00  0.00    +0.000 C 
ENDBRANCH  30  31
ENDBRANCH  11  30
TORSDOF 6
ENDMDL
MODEL 8
REMARK VINA RESULT:      -6.7      1.747      2.252
REMARK  Name = 
REMARK  6 active torsions:
REMARK  status: ('A' for Active; 'I' for Inactive)
REMARK    1  A    between atoms: C_2  and  C_3
REMARK    2  A    between atoms: C_6  and  C_7
REMARK    3  A    between atoms: N_14  and  C_15
REMARK    4  A    between atoms: C_19  and  C_20
REMARK    5  A    between atoms: N_27  and  C_28
REMARK    6  A    between atoms: C_28  and  C_29
REMARK                            x       y       z     vdW  Elec       q    Type
REMARK                         _______ _______ _______ _____ _____    ______ ____
ROOT
ATOM      1  C   UNL     1       0.083  12.113  19.301  0.00  0.00    +0.000 C 
ATOM      2  C   UNL     1      -1.377  11.996  19.182  0.00  0.00    +0.000 C 
ATOM      3  C   UNL     1      -2.260  12.263  20.137  0.00  0.00    +0.000 C 
ATOM      4  C   UNL     1      -3.690  12.046  19.730  0.00  0.00    +0.000 C 
ATOM      5  C   UNL     1      -3.610  11.506  18.302  0.00  0.00    +0.000 C 
ATOM      6  C   UNL     1      -2.143  11.579  18.004  0.00  0.00    +0.000 C 
ATOM      7  O   UNL     1      -1.643  11.330  16.918  0.00  0.00    +0.000 OA
ATOM      8  N   UNL     1      -1.831  12.761  21.356  0.00  0.00    +0.000 N 
ATOM      9  C   UNL     1      -0.458  12.982  21.628  0.00  0.00    +0.000 C 
ATOM     10  O   UNL     1      -0.041  13.404  22.711  0.00  0.00    +0.000 OA
ATOM     11  N   UNL     1       0.442  12.717  20.600  0.00  0.00    +0.000 N 
ENDROOT
BRANCH   1  15
ATOM     12  C   UNL     1       1.973   8.268  18.808  0.00  0.00    +0.000 A 
ATOM     13  C   UNL     1       1.229   8.538  19.959  0.00  0.00    +0.000 A 
ATOM     14  C   UNL     1       0.608   9.776  20.115  0.00  0.00    +0.000 A 
ATOM     15  C   UNL     1       0.745  10.766  19.126  0.00  0.00    +0.000 A 
ATOM     16  C   UNL     1       1.542  10.493  18.005  0.00  0.00    +0.000 A 
ATOM     17  C   UNL     1       2.124   9.247  17.826  0.00  0.00    +0.000 A 
BRANCH  12  19
ATOM     18  N   UNL     1       3.066   5.944  18.480  0.00  0.00    +0.000 NA
ATOM     19  C   UNL     1       2.583   6.988  18.621  0.00  0.00    +0.000 C 
ENDBRANCH  12  19
ENDBRANCH   1  15
BRANCH   8  20
ATOM     20  C   UNL     1      -2.759  13.158  22.372  0.00  0.00    +0.000 A 
ATOM     21  C   UNL     1      -3.172  12.255  23.353  0.00  0.00    +0.000 A 
ATOM     22  C   UNL     1      -4.066  12.665  24.344  0.00  0.00    +0.000 A 
ATOM     23  C   UNL     1      -4.561  13.964  24.353  0.00  0.00    +0.000 A 
ATOM     24  C   UNL     1      -4.159  14.885  23.368  0.00  0.00    +0.000 A 
ATOM     25  C   UNL     1      -3.252  14.474  22.388  0.00  0.00    +0.000 A 
BRANCH  24  26
ATOM     26  C   UNL     1      -4.699  16.301  23.354  0.00  0.00    +0.000 C 
ATOM     27  F   UNL     1      -5.366  16.636  24.493  0.00  0.00    +0.000 F 
ATOM     28  F   UNL     1      -3.718  17.234  23.209  0.00  0.00    +0.000 F 
ATOM     29  F   UNL     1      -5.573  16.510  22.335  0.00  0.00    +0.000 F 
ENDBRANCH  24  26
ENDBRANCH   8  20
BRANCH  11  30
ATOM     30  C   UNL     1       1.844  13.109  20.820  0.00  0.00    +0.000 C 
BRANCH  30  31
ATOM     31  C   UNL     1       2.308  14.537  20.431  0.00  0.00    +0.000 C 
ATOM     32  O   UNL     1       1.886  15.579  20.928  0.00  0.00    +0.000 OA
ATOM     33  N   UNL     1       3.348  14.532  19.503  0.00  0.00    +0.000 N 
ATOM     34  C   UNL     1       3.986  15.727  18.935  0.00  0.00    +0.000 C 
ATOM     35  C   UNL     1       3.476  15.259  17.574  0.00  0.00    +0.000 C 
ATOM     36  C   UNL     1       3.248  13.880  18.192  0.00  0.00    +0.000 C 
ENDBRANCH  30  31
ENDBRANCH  11  30
TORSDOF 6
ENDMDL
MODEL 9
REMARK VINA RESULT:      -6.7      0.839      1.409
REMARK  Name = 
REMARK  6 active torsions:
REMARK  status: ('A' for Active; 'I' for Inactive)
REMARK    1  A    between atoms: C_2  and  C_3
REMARK    2  A    between atoms: C_6  and  C_7
REMARK    3  A    between atoms: N_14  and  C_15
REMARK    4  A    between atoms: C_19  and  C_20
REMARK    5  A    between atoms: N_27  and  C_28
REMARK    6  A    between atoms: C_28  and  C_29
REMARK                            x       y       z     vdW  Elec       q    Type
REMARK                         _______ _______ _______ _____ _____    ______ ____
ROOT
ATOM      1  C   UNL     1      -0.023  11.634  18.520  0.00  0.00    +0.000 C 
ATOM      2  C   UNL     1      -1.473  11.404  18.471  0.00  0.00    +0.000 C 
ATOM      3  C   UNL     1      -2.369  11.898  19.318  0.00  0.00    +0.000 C 
ATOM      4  C   UNL     1      -3.784  11.488  19.025  0.00  0.00    +0.000 C 
ATOM      5  C   UNL     1      -3.675  10.544  17.827  0.00  0.00    +0.000 C 
ATOM      6  C   UNL     1      -2.215  10.605  17.492  0.00  0.00    +0.000 C 
ATOM      7  O   UNL     1      -1.703  10.067  16.523  0.00  0.00    +0.000 OA
ATOM      8  N   UNL     1      -1.967  12.767  20.319  0.00  0.00    +0.000 N 
ATOM      9  C   UNL     1      -0.609  13.138  20.482  0.00  0.00    +0.000 C 
ATOM     10  O   UNL     1      -0.217  13.892  21.378  0.00  0.00    +0.000 OA
ATOM     11  N   UNL     1       0.302  12.624  19.566  0.00  0.00    +0.000 N 
ENDROOT
BRANCH   1  15
ATOM     12  C   UNL     1       2.092   7.932  19.166  0.00  0.00    +0.000 A 
ATOM     13  C   UNL     1       2.188   8.585  17.936  0.00  0.00    +0.000 A 
ATOM     14  C   UNL     1       1.514   9.787  17.729  0.00  0.00    +0.000 A 
ATOM     15  C   UNL     1       0.718  10.337  18.749  0.00  0.00    +0.000 A 
ATOM     16  C   UNL     1       0.592   9.636  19.957  0.00  0.00    +0.000 A 
ATOM     17  C   UNL     1       1.296   8.462  20.182  0.00  0.00    +0.000 A 
BRANCH  12  19
ATOM     18  N   UNL     1       3.405   5.739  19.587  0.00  0.00    +0.000 NA
ATOM     19  C   UNL     1       2.810   6.716  19.402  0.00  0.00    +0.000 C 
ENDBRANCH  12  19
ENDBRANCH   1  15
BRANCH   8  20
ATOM     20  C   UNL     1      -2.915  13.402  21.185  0.00  0.00    +0.000 A 
ATOM     21  C   UNL     1      -3.498  14.621  20.835  0.00  0.00    +0.000 A 
ATOM     22  C   UNL     1      -4.431  15.216  21.686  0.00  0.00    +0.000 A 
ATOM     23  C   UNL     1      -4.775  14.610  22.889  0.00  0.00    +0.000 A 
ATOM     24  C   UNL     1      -4.194  13.383  23.258  0.00  0.00    +0.000 A 
ATOM     25  C   UNL     1      -3.272  12.784  22.397  0.00  0.00    +0.000 A 
BRANCH  24  26
ATOM     26  C   UNL     1      -4.547  12.715  24.572  0.00  0.00    +0.000 C 
ATOM     27  F   UNL     1      -5.889  12.631  24.793  0.00  0.00    +0.000 F 
ATOM     28  F   UNL     1      -4.077  11.440  24.654  0.00  0.00    +0.000 F 
ATOM     29  F   UNL     1      -4.034  13.377  25.642  0.00  0.00    +0.000 F 
ENDBRANCH  24  26
ENDBRANCH   8  20
BRANCH  11  30
ATOM     30  C   UNL     1       1.679  13.143  19.627  0.00  0.00    +0.000 C 
BRANCH  30  31
ATOM     31  C   UNL     1       1.990  14.554  19.064  0.00  0.00    +0.000 C 
ATOM     32  O   UNL     1       1.148  15.365  18.682  0.00  0.00    +0.000 OA
ATOM     33  N   UNL     1       3.346  14.869  19.117  0.00  0.00    +0.000 N 
ATOM     34  C   UNL     1       3.946  16.124  18.643  0.00  0.00    +0.000 C 
ATOM     35  C   UNL     1       4.721  15.283  17.632  0.00  0.00    +0.000 C 
ATOM     36  C   UNL     1       4.383  14.053  18.474  0.00  0.00    +0.000 C 
ENDBRANCH  30  31
ENDBRANCH  11  30
TORSDOF 6
ENDMDL
