MODEL 1
REMARK VINA RESULT:      -7.9      0.000      0.000
REMARK  Name = 
REMARK  7 active torsions:
REMARK  status: ('A' for Active; 'I' for Inactive)
REMARK    1  A    between atoms: C_1  and  C_2
REMARK    2  A    between atoms: C_2  and  C_3
REMARK    3  A    between atoms: C_11  and  N_12
REMARK    4  A    between atoms: C_13  and  C_14
REMARK    5  A    between atoms: C_16  and  C_17
REMARK    6  A    between atoms: C_19  and  C_20
REMARK    7  A    between atoms: C_25  and  C_26
REMARK                            x       y       z     vdW  Elec       q    Type
REMARK                         _______ _______ _______ _____ _____    ______ ____
ROOT
ATOM      1  C   UNL     1       1.919   1.443  21.931  0.00  0.00    +0.000 C 
ATOM      2  C   UNL     1       2.385   2.455  20.871  0.00  0.00    +0.000 C 
ATOM      3  C   UNL     1       3.879   2.183  20.581  0.00  0.00    +0.000 C 
ATOM      4  C   UNL     1       1.566   2.285  19.580  0.00  0.00    +0.000 C 
ATOM      5  C   UNL     1       1.890   3.363  18.557  0.00  0.00    +0.000 C 
ATOM      6  O   UNL     1       1.757   3.166  17.352  0.00  0.00    +0.000 OA
ATOM      7  C   UNL     1       2.274   4.709  19.052  0.00  0.00    +0.000 C 
ATOM      8  C   UNL     1       2.291   4.944  20.374  0.00  0.00    +0.000 C 
ATOM      9  C   UNL     1       2.167   3.881  21.423  0.00  0.00    +0.000 C 
ATOM     10  O   UNL     1       2.479   6.225  20.876  0.00  0.00    +0.000 OA
ATOM     11  C   UNL     1       2.324   7.324  20.027  0.00  0.00    +0.000 C 
ATOM     12  C   UNL     1       2.374   7.171  18.687  0.00  0.00    +0.000 C 
ATOM     13  C   UNL     1       2.605   5.801  18.069  0.00  0.00    +0.000 C 
ENDROOT
BRANCH  13  14
ATOM     14  C   UNL     1       4.060   5.673  17.589  0.00  0.00    +0.000 A 
ATOM     15  C   UNL     1       4.357   5.269  16.271  0.00  0.00    +0.000 A 
ATOM     16  C   UNL     1       5.676   5.067  15.841  0.00  0.00    +0.000 A 
ATOM     17  C   UNL     1       6.722   5.308  16.743  0.00  0.00    +0.000 A 
ATOM     18  C   UNL     1       6.459   5.713  18.062  0.00  0.00    +0.000 A 
ATOM     19  C   UNL     1       5.126   5.901  18.472  0.00  0.00    +0.000 A 
BRANCH  16  20
ATOM     20  C   UNL     1       5.969   4.539  14.455  0.00  0.00    +0.000 C 
ATOM     21  F   UNL     1       4.859   4.433  13.671  0.00  0.00    +0.000 F 
ATOM     22  F   UNL     1       6.843   5.320  13.766  0.00  0.00    +0.000 F 
ATOM     23  F   UNL     1       6.519   3.293  14.489  0.00  0.00    +0.000 F 
ENDBRANCH  16  20
BRANCH  18  24
ATOM     24  C   UNL     1       7.587   5.894  19.054  0.00  0.00    +0.000 C 
ATOM     25  F   UNL     1       7.179   5.826  20.352  0.00  0.00    +0.000 F 
ATOM     26  F   UNL     1       8.565   4.960  18.919  0.00  0.00    +0.000 F 
ATOM     27  F   UNL     1       8.197   7.104  18.921  0.00  0.00    +0.000 F 
ENDBRANCH  18  24
ENDBRANCH  13  14
BRANCH  11  28
ATOM     28  N   UNL     1       2.153   8.503  20.709  0.00  0.00    +0.000 N 
ATOM     29  H   UNL     1       2.968   9.108  20.652  0.00  0.00    +0.000 HD
ATOM     30  H   UNL     1       1.277   8.992  20.540  0.00  0.00    +0.000 HD
ENDBRANCH  11  28
BRANCH  12  31
ATOM     31  C   UNL     1       2.205   8.279  17.808  0.00  0.00    +0.000 C 
ATOM     32  N   UNL     1       2.071   9.190  17.099  0.00  0.00    +0.000 NA
ENDBRANCH  12  31
TORSDOF 5
ENDMDL
MODEL 2
REMARK VINA RESULT:      -7.4      0.212      3.193
REMARK  Name = 
REMARK  7 active torsions:
REMARK  status: ('A' for Active; 'I' for Inactive)
REMARK    1  A    between atoms: C_1  and  C_2
REMARK    2  A    between atoms: C_2  and  C_3
REMARK    3  A    between atoms: C_11  and  N_12
REMARK    4  A    between atoms: C_13  and  C_14
REMARK    5  A    between atoms: C_16  and  C_17
REMARK    6  A    between atoms: C_19  and  C_20
REMARK    7  A    between atoms: C_25  and  C_26
REMARK                            x       y       z     vdW  Elec       q    Type
REMARK                         _______ _______ _______ _____ _____    ______ ____
ROOT
ATOM      1  C   UNL     1       1.534   1.506  22.095  0.00  0.00    +0.000 C 
ATOM      2  C   UNL     1       2.092   2.451  21.018  0.00  0.00    +0.000 C 
ATOM      3  C   UNL     1       3.570   2.069  20.772  0.00  0.00    +0.000 C 
ATOM      4  C   UNL     1       1.292   2.298  19.712  0.00  0.00    +0.000 C 
ATOM      5  C   UNL     1       1.711   3.320  18.668  0.00  0.00    +0.000 C 
ATOM      6  O   UNL     1       1.592   3.097  17.465  0.00  0.00    +0.000 OA
ATOM      7  C   UNL     1       2.177   4.652  19.132  0.00  0.00    +0.000 C 
ATOM      8  C   UNL     1       2.181   4.925  20.447  0.00  0.00    +0.000 C 
ATOM      9  C   UNL     1       1.961   3.905  21.523  0.00  0.00    +0.000 C 
ATOM     10  O   UNL     1       2.446   6.204  20.917  0.00  0.00    +0.000 OA
ATOM     11  C   UNL     1       2.386   7.285  20.033  0.00  0.00    +0.000 C 
ATOM     12  C   UNL     1       2.455   7.088  18.699  0.00  0.00    +0.000 C 
ATOM     13  C   UNL     1       2.604   5.688  18.126  0.00  0.00    +0.000 C 
ENDROOT
BRANCH  13  14
ATOM     14  C   UNL     1       4.057   5.446  17.686  0.00  0.00    +0.000 A 
ATOM     15  C   UNL     1       5.133   5.686  18.565  0.00  0.00    +0.000 A 
ATOM     16  C   UNL     1       6.466   5.549  18.154  0.00  0.00    +0.000 A 
ATOM     17  C   UNL     1       6.726   5.130  16.842  0.00  0.00    +0.000 A 
ATOM     18  C   UNL     1       5.677   4.880  15.942  0.00  0.00    +0.000 A 
ATOM     19  C   UNL     1       4.347   5.032  16.376  0.00  0.00    +0.000 A 
BRANCH  16  20
ATOM     20  C   UNL     1       7.605   5.907  19.081  0.00  0.00    +0.000 C 
ATOM     21  F   UNL     1       8.662   5.051  18.996  0.00  0.00    +0.000 F 
ATOM     22  F   UNL     1       8.108   7.149  18.846  0.00  0.00    +0.000 F 
ATOM     23  F   UNL     1       7.224   5.894  20.389  0.00  0.00    +0.000 F 
ENDBRANCH  16  20
BRANCH  18  24
ATOM     24  C   UNL     1       5.964   4.505  14.505  0.00  0.00    +0.000 C 
ATOM     25  F   UNL     1       6.412   3.226  14.362  0.00  0.00    +0.000 F 
ATOM     26  F   UNL     1       4.872   4.611  13.703  0.00  0.00    +0.000 F 
ATOM     27  F   UNL     1       6.922   5.297  13.950  0.00  0.00    +0.000 F 
ENDBRANCH  18  24
ENDBRANCH  13  14
BRANCH  11  28
ATOM     28  N   UNL     1       2.282   8.493  20.676  0.00  0.00    +0.000 N 
ATOM     29  H   UNL     1       1.368   8.921  20.556  0.00  0.00    +0.000 HD
ATOM     30  H   UNL     1       2.613   8.516  21.638  0.00  0.00    +0.000 HD
ENDBRANCH  11  28
BRANCH  12  31
ATOM     31  C   UNL     1       2.382   8.178  17.785  0.00  0.00    +0.000 C 
ATOM     32  N   UNL     1       2.319   9.074  17.048  0.00  0.00    +0.000 NA
ENDBRANCH  12  31
TORSDOF 5
ENDMDL
MODEL 3
REMARK VINA RESULT:      -7.1      0.916      3.106
REMARK  Name = 
REMARK  7 active torsions:
REMARK  status: ('A' for Active; 'I' for Inactive)
REMARK    1  A    between atoms: C_1  and  C_2
REMARK    2  A    between atoms: C_2  and  C_3
REMARK    3  A    between atoms: C_11  and  N_12
REMARK    4  A    between atoms: C_13  and  C_14
REMARK    5  A    between atoms: C_16  and  C_17
REMARK    6  A    between atoms: C_19  and  C_20
REMARK    7  A    between atoms: C_25  and  C_26
REMARK                            x       y       z     vdW  Elec       q    Type
REMARK                         _______ _______ _______ _____ _____    ______ ____
ROOT
ATOM      1  C   UNL     1       1.822   1.631  21.689  0.00  0.00    +0.000 C 
ATOM      2  C   UNL     1       2.284   2.674  20.658  0.00  0.00    +0.000 C 
ATOM      3  C   UNL     1       3.763   2.381  20.316  0.00  0.00    +0.000 C 
ATOM      4  C   UNL     1       1.427   2.576  19.383  0.00  0.00    +0.000 C 
ATOM      5  C   UNL     1       1.749   3.687  18.396  0.00  0.00    +0.000 C 
ATOM      6  O   UNL     1       1.580   3.542  17.188  0.00  0.00    +0.000 OA
ATOM      7  C   UNL     1       2.178   5.003  18.933  0.00  0.00    +0.000 C 
ATOM      8  C   UNL     1       2.236   5.184  20.263  0.00  0.00    +0.000 C 
ATOM      9  C   UNL     1       2.114   4.082  21.271  0.00  0.00    +0.000 C 
ATOM     10  O   UNL     1       2.468   6.438  20.810  0.00  0.00    +0.000 OA
ATOM     11  C   UNL     1       2.317   7.574  20.010  0.00  0.00    +0.000 C 
ATOM     12  C   UNL     1       2.328   7.474  18.663  0.00  0.00    +0.000 C 
ATOM     13  C   UNL     1       2.509   6.126  17.986  0.00  0.00    +0.000 C 
ENDROOT
BRANCH  13  14
ATOM     14  C   UNL     1       3.947   5.984  17.461  0.00  0.00    +0.000 A 
ATOM     15  C   UNL     1       4.973   6.840  17.913  0.00  0.00    +0.000 A 
ATOM     16  C   UNL     1       6.271   6.779  17.385  0.00  0.00    +0.000 A 
ATOM     17  C   UNL     1       6.555   5.814  16.408  0.00  0.00    +0.000 A 
ATOM     18  C   UNL     1       5.556   4.945  15.939  0.00  0.00    +0.000 A 
ATOM     19  C   UNL     1       4.259   5.032  16.478  0.00  0.00    +0.000 A 
BRANCH  16  20
ATOM     20  C   UNL     1       7.330   7.770  17.810  0.00  0.00    +0.000 C 
ATOM     21  F   UNL     1       6.829   9.005  18.100  0.00  0.00    +0.000 F 
ATOM     22  F   UNL     1       8.013   7.372  18.916  0.00  0.00    +0.000 F 
ATOM     23  F   UNL     1       8.264   7.969  16.838  0.00  0.00    +0.000 F 
ENDBRANCH  16  20
BRANCH  18  24
ATOM     24  C   UNL     1       5.847   3.960  14.828  0.00  0.00    +0.000 C 
ATOM     25  F   UNL     1       5.867   2.664  15.249  0.00  0.00    +0.000 F 
ATOM     26  F   UNL     1       4.936   4.014  13.822  0.00  0.00    +0.000 F 
ATOM     27  F   UNL     1       7.061   4.181  14.253  0.00  0.00    +0.000 F 
ENDBRANCH  18  24
ENDBRANCH  13  14
BRANCH  11  28
ATOM     28  N   UNL     1       2.192   8.728  20.743  0.00  0.00    +0.000 N 
ATOM     29  H   UNL     1       3.011   8.917  21.315  0.00  0.00    +0.000 HD
ATOM     30  H   UNL     1       1.860   9.545  20.234  0.00  0.00    +0.000 HD
ENDBRANCH  11  28
BRANCH  12  31
ATOM     31  C   UNL     1       2.162   8.620  17.835  0.00  0.00    +0.000 C 
ATOM     32  N   UNL     1       2.032   9.561  17.166  0.00  0.00    +0.000 NA
ENDBRANCH  12  31
TORSDOF 5
ENDMDL
MODEL 4
REMARK VINA RESULT:      -7.0      0.862      3.209
REMARK  Name = 
REMARK  7 active torsions:
REMARK  status: ('A' for Active; 'I' for Inactive)
REMARK    1  A    between atoms: C_1  and  C_2
REMARK    2  A    between atoms: C_2  and  C_3
REMARK    3  A    between atoms: C_11  and  N_12
REMARK    4  A    between atoms: C_13  and  C_14
REMARK    5  A    between atoms: C_16  and  C_17
REMARK    6  A    between atoms: C_19  and  C_20
REMARK    7  A    between atoms: C_25  and  C_26
REMARK                            x       y       z     vdW  Elec       q    Type
REMARK                         _______ _______ _______ _____ _____    ______ ____
ROOT
ATOM      1  C   UNL     1       2.415   1.374  21.547  0.00  0.00    +0.000 C 
ATOM      2  C   UNL     1       2.767   2.457  20.513  0.00  0.00    +0.000 C 
ATOM      3  C   UNL     1       4.251   2.276  20.123  0.00  0.00    +0.000 C 
ATOM      4  C   UNL     1       1.879   2.306  19.265  0.00  0.00    +0.000 C 
ATOM      5  C   UNL     1       2.087   3.446  18.281  0.00  0.00    +0.000 C 
ATOM      6  O   UNL     1       1.891   3.299  17.076  0.00  0.00    +0.000 OA
ATOM      7  C   UNL     1       2.436   4.785  18.818  0.00  0.00    +0.000 C 
ATOM      8  C   UNL     1       2.522   4.959  20.147  0.00  0.00    +0.000 C 
ATOM      9  C   UNL     1       2.514   3.843  21.147  0.00  0.00    +0.000 C 
ATOM     10  O   UNL     1       2.678   6.222  20.700  0.00  0.00    +0.000 OA
ATOM     11  C   UNL     1       2.419   7.350  19.917  0.00  0.00    +0.000 C 
ATOM     12  C   UNL     1       2.395   7.263  18.570  0.00  0.00    +0.000 C 
ATOM     13  C   UNL     1       2.653   5.938  17.873  0.00  0.00    +0.000 C 
ENDROOT
BRANCH  13  14
ATOM     14  C   UNL     1       4.080   5.906  17.303  0.00  0.00    +0.000 A 
ATOM     15  C   UNL     1       5.094   6.730  17.835  0.00  0.00    +0.000 A 
ATOM     16  C   UNL     1       6.378   6.775  17.275  0.00  0.00    +0.000 A 
ATOM     17  C   UNL     1       6.663   5.950  16.178  0.00  0.00    +0.000 A 
ATOM     18  C   UNL     1       5.676   5.116  15.626  0.00  0.00    +0.000 A 
ATOM     19  C   UNL     1       4.392   5.095  16.201  0.00  0.00    +0.000 A 
BRANCH  16  20
ATOM     20  C   UNL     1       7.420   7.737  17.797  0.00  0.00    +0.000 C 
ATOM     21  F   UNL     1       8.061   7.287  18.913  0.00  0.00    +0.000 F 
ATOM     22  F   UNL     1       8.394   8.007  16.888  0.00  0.00    +0.000 F 
ATOM     23  F   UNL     1       6.879   8.939  18.141  0.00  0.00    +0.000 F 
ENDBRANCH  16  20
BRANCH  18  24
ATOM     24  C   UNL     1       5.966   4.288  14.393  0.00  0.00    +0.000 C 
ATOM     25  F   UNL     1       6.992   4.778  13.643  0.00  0.00    +0.000 F 
ATOM     26  F   UNL     1       6.297   3.002  14.687  0.00  0.00    +0.000 F 
ATOM     27  F   UNL     1       4.894   4.222  13.556  0.00  0.00    +0.000 F 
ENDBRANCH  18  24
ENDBRANCH  13  14
BRANCH  11  28
ATOM     28  N   UNL     1       2.233   8.486  20.666  0.00  0.00    +0.000 N 
ATOM     29  H   UNL     1       1.402   8.438  21.249  0.00  0.00    +0.000 HD
ATOM     30  H   UNL     1       3.052   8.832  21.163  0.00  0.00    +0.000 HD
ENDBRANCH  11  28
BRANCH  12  31
ATOM     31  C   UNL     1       2.119   8.401  17.759  0.00  0.00    +0.000 C 
ATOM     32  N   UNL     1       1.902   9.326  17.091  0.00  0.00    +0.000 NA
ENDBRANCH  12  31
TORSDOF 5
ENDMDL
MODEL 5
REMARK VINA RESULT:      -6.8      8.784     11.319
REMARK  Name = 
REMARK  7 active torsions:
REMARK  status: ('A' for Active; 'I' for Inactive)
REMARK    1  A    between atoms: C_1  and  C_2
REMARK    2  A    between atoms: C_2  and  C_3
REMARK    3  A    between atoms: C_11  and  N_12
REMARK    4  A    between atoms: C_13  and  C_14
REMARK    5  A    between atoms: C_16  and  C_17
REMARK    6  A    between atoms: C_19  and  C_20
REMARK    7  A    between atoms: C_25  and  C_26
REMARK                            x       y       z     vdW  Elec       q    Type
REMARK                         _______ _______ _______ _____ _____    ______ ____
ROOT
ATOM      1  C   UNL     1       1.464   8.881  22.248  0.00  0.00    +0.000 C 
ATOM      2  C   UNL     1       0.324   9.825  21.832  0.00  0.00    +0.000 C 
ATOM      3  C   UNL     1      -0.624   9.040  20.897  0.00  0.00    +0.000 C 
ATOM      4  C   UNL     1      -0.450  10.301  23.075  0.00  0.00    +0.000 C 
ATOM      5  C   UNL     1      -1.490  11.353  22.726  0.00  0.00    +0.000 C 
ATOM      6  O   UNL     1      -2.503  11.506  23.404  0.00  0.00    +0.000 OA
ATOM      7  C   UNL     1      -1.208  12.275  21.596  0.00  0.00    +0.000 C 
ATOM      8  C   UNL     1      -0.038  12.177  20.944  0.00  0.00    +0.000 C 
ATOM      9  C   UNL     1       0.935  11.051  21.118  0.00  0.00    +0.000 C 
ATOM     10  O   UNL     1       0.340  13.119  19.997  0.00  0.00    +0.000 OA
ATOM     11  C   UNL     1      -0.327  14.346  19.946  0.00  0.00    +0.000 C 
ATOM     12  C   UNL     1      -1.543  14.493  20.514  0.00  0.00    +0.000 C 
ATOM     13  C   UNL     1      -2.217  13.328  21.219  0.00  0.00    +0.000 C 
ENDROOT
BRANCH  13  14
ATOM     14  C   UNL     1      -3.314  12.728  20.324  0.00  0.00    +0.000 A 
ATOM     15  C   UNL     1      -4.663  12.720  20.734  0.00  0.00    +0.000 A 
ATOM     16  C   UNL     1      -5.663  12.103  19.968  0.00  0.00    +0.000 A 
ATOM     17  C   UNL     1      -5.308  11.513  18.748  0.00  0.00    +0.000 A 
ATOM     18  C   UNL     1      -3.973  11.506  18.310  0.00  0.00    +0.000 A 
ATOM     19  C   UNL     1      -2.986  12.123  19.100  0.00  0.00    +0.000 A 
BRANCH  16  20
ATOM     20  C   UNL     1      -7.086  12.018  20.473  0.00  0.00    +0.000 C 
ATOM     21  F   UNL     1      -7.891  13.006  19.988  0.00  0.00    +0.000 F 
ATOM     22  F   UNL     1      -7.692  10.845  20.148  0.00  0.00    +0.000 F 
ATOM     23  F   UNL     1      -7.154  12.118  21.829  0.00  0.00    +0.000 F 
ENDBRANCH  16  20
BRANCH  18  24
ATOM     24  C   UNL     1      -3.583  10.798  17.031  0.00  0.00    +0.000 C 
ATOM     25  F   UNL     1      -2.440  11.286  16.472  0.00  0.00    +0.000 F 
ATOM     26  F   UNL     1      -3.374   9.466  17.207  0.00  0.00    +0.000 F 
ATOM     27  F   UNL     1      -4.542  10.907  16.071  0.00  0.00    +0.000 F 
ENDBRANCH  18  24
ENDBRANCH  13  14
BRANCH  11  28
ATOM     28  N   UNL     1       0.374  15.305  19.257  0.00  0.00    +0.000 N 
ATOM     29  H   UNL     1       0.351  15.158  18.251  0.00  0.00    +0.000 HD
ATOM     30  H   UNL     1       0.193  16.269  19.527  0.00  0.00    +0.000 HD
ENDBRANCH  11  28
BRANCH  12  31
ATOM     31  C   UNL     1      -2.229  15.741  20.482  0.00  0.00    +0.000 C 
ATOM     32  N   UNL     1      -2.786  16.759  20.445  0.00  0.00    +0.000 NA
ENDBRANCH  12  31
TORSDOF 5
ENDMDL
MODEL 6
REMARK VINA RESULT:      -6.8      8.154     11.190
REMARK  Name = 
REMARK  7 active torsions:
REMARK  status: ('A' for Active; 'I' for Inactive)
REMARK    1  A    between atoms: C_1  and  C_2
REMARK    2  A    between atoms: C_2  and  C_3
REMARK    3  A    between atoms: C_11  and  N_12
REMARK    4  A    between atoms: C_13  and  C_14
REMARK    5  A    between atoms: C_16  and  C_17
REMARK    6  A    between atoms: C_19  and  C_20
REMARK    7  A    between atoms: C_25  and  C_26
REMARK                            x       y       z     vdW  Elec       q    Type
REMARK                         _______ _______ _______ _____ _____    ______ ____
ROOT
ATOM      1  C   UNL     1       3.557  14.909  18.532  0.00  0.00    +0.000 C 
ATOM      2  C   UNL     1       2.229  14.360  19.079  0.00  0.00    +0.000 C 
ATOM      3  C   UNL     1       2.492  13.814  20.501  0.00  0.00    +0.000 C 
ATOM      4  C   UNL     1       1.176  15.480  19.138  0.00  0.00    +0.000 C 
ATOM      5  C   UNL     1      -0.194  14.950  19.531  0.00  0.00    +0.000 C 
ATOM      6  O   UNL     1      -1.019  15.660  20.100  0.00  0.00    +0.000 OA
ATOM      7  C   UNL     1      -0.561  13.573  19.115  0.00  0.00    +0.000 C 
ATOM      8  C   UNL     1       0.305  12.853  18.383  0.00  0.00    +0.000 C 
ATOM      9  C   UNL     1       1.728  13.247  18.130  0.00  0.00    +0.000 C 
ATOM     10  O   UNL     1      -0.057  11.632  17.832  0.00  0.00    +0.000 OA
ATOM     11  C   UNL     1      -1.410  11.291  17.752  0.00  0.00    +0.000 C 
ATOM     12  C   UNL     1      -2.326  11.920  18.518  0.00  0.00    +0.000 C 
ATOM     13  C   UNL     1      -1.908  13.012  19.489  0.00  0.00    +0.000 C 
ENDROOT
BRANCH  13  14
ATOM     14  C   UNL     1      -1.886  12.466  20.926  0.00  0.00    +0.000 A 
ATOM     15  C   UNL     1      -1.034  11.400  21.284  0.00  0.00    +0.000 A 
ATOM     16  C   UNL     1      -1.060  10.835  22.568  0.00  0.00    +0.000 A 
ATOM     17  C   UNL     1      -1.935  11.373  23.522  0.00  0.00    +0.000 A 
ATOM     18  C   UNL     1      -2.794  12.436  23.197  0.00  0.00    +0.000 A 
ATOM     19  C   UNL     1      -2.755  12.980  21.900  0.00  0.00    +0.000 A 
BRANCH  16  20
ATOM     20  C   UNL     1      -0.212   9.630  22.903  0.00  0.00    +0.000 C 
ATOM     21  F   UNL     1      -0.742   8.455  22.459  0.00  0.00    +0.000 F 
ATOM     22  F   UNL     1       1.039   9.701  22.374  0.00  0.00    +0.000 F 
ATOM     23  F   UNL     1      -0.048   9.477  24.246  0.00  0.00    +0.000 F 
ENDBRANCH  16  20
BRANCH  18  24
ATOM     24  C   UNL     1      -3.792  12.959  24.206  0.00  0.00    +0.000 C 
ATOM     25  F   UNL     1      -3.274  13.912  25.031  0.00  0.00    +0.000 F 
ATOM     26  F   UNL     1      -4.886  13.520  23.626  0.00  0.00    +0.000 F 
ATOM     27  F   UNL     1      -4.258  11.976  25.024  0.00  0.00    +0.000 F 
ENDBRANCH  18  24
ENDBRANCH  13  14
BRANCH  11  28
ATOM     28  N   UNL     1      -1.650  10.273  16.862  0.00  0.00    +0.000 N 
ATOM     29  H   UNL     1      -2.640  10.062  16.768  0.00  0.00    +0.000 HD
ATOM     30  H   UNL     1      -1.167  10.340  15.968  0.00  0.00    +0.000 HD
ENDBRANCH  11  28
BRANCH  12  31
ATOM     31  C   UNL     1      -3.710  11.593  18.437  0.00  0.00    +0.000 C 
ATOM     32  N   UNL     1      -4.838  11.320  18.381  0.00  0.00    +0.000 NA
ENDBRANCH  12  31
TORSDOF 5
ENDMDL
MODEL 7
REMARK VINA RESULT:      -6.8      8.795     11.333
REMARK  Name = 
REMARK  7 active torsions:
REMARK  status: ('A' for Active; 'I' for Inactive)
REMARK    1  A    between atoms: C_1  and  C_2
REMARK    2  A    between atoms: C_2  and  C_3
REMARK    3  A    between atoms: C_11  and  N_12
REMARK    4  A    between atoms: C_13  and  C_14
REMARK    5  A    between atoms: C_16  and  C_17
REMARK    6  A    between atoms: C_19  and  C_20
REMARK    7  A    between atoms: C_25  and  C_26
REMARK                            x       y       z     vdW  Elec       q    Type
REMARK                         _______ _______ _______ _____ _____    ______ ____
ROOT
ATOM      1  C   UNL     1       1.509   8.947  22.258  0.00  0.00    +0.000 C 
ATOM      2  C   UNL     1       0.366   9.889  21.845  0.00  0.00    +0.000 C 
ATOM      3  C   UNL     1      -0.566   9.112  20.888  0.00  0.00    +0.000 C 
ATOM      4  C   UNL     1      -0.424  10.340  23.087  0.00  0.00    +0.000 C 
ATOM      5  C   UNL     1      -1.470  11.389  22.743  0.00  0.00    +0.000 C 
ATOM      6  O   UNL     1      -2.491  11.523  23.413  0.00  0.00    +0.000 OA
ATOM      7  C   UNL     1      -1.182  12.331  21.631  0.00  0.00    +0.000 C 
ATOM      8  C   UNL     1      -0.005  12.252  20.990  0.00  0.00    +0.000 C 
ATOM      9  C   UNL     1       0.975  11.131  21.157  0.00  0.00    +0.000 C 
ATOM     10  O   UNL     1       0.376  13.212  20.062  0.00  0.00    +0.000 OA
ATOM     11  C   UNL     1      -0.301  14.434  20.023  0.00  0.00    +0.000 C 
ATOM     12  C   UNL     1      -1.523  14.563  20.581  0.00  0.00    +0.000 C 
ATOM     13  C   UNL     1      -2.196  13.381  21.260  0.00  0.00    +0.000 C 
ENDROOT
BRANCH  13  14
ATOM     14  C   UNL     1      -3.278  12.787  20.344  0.00  0.00    +0.000 A 
ATOM     15  C   UNL     1      -4.640  12.827  20.708  0.00  0.00    +0.000 A 
ATOM     16  C   UNL     1      -5.631  12.217  19.925  0.00  0.00    +0.000 A 
ATOM     17  C   UNL     1      -5.252  11.584  18.733  0.00  0.00    +0.000 A 
ATOM     18  C   UNL     1      -3.904  11.530  18.341  0.00  0.00    +0.000 A 
ATOM     19  C   UNL     1      -2.927  12.142  19.148  0.00  0.00    +0.000 A 
BRANCH  16  20
ATOM     20  C   UNL     1      -7.071  12.184  20.383  0.00  0.00    +0.000 C 
ATOM     21  F   UNL     1      -7.267  11.427  21.500  0.00  0.00    +0.000 F 
ATOM     22  F   UNL     1      -7.561  13.418  20.675  0.00  0.00    +0.000 F 
ATOM     23  F   UNL     1      -7.898  11.663  19.434  0.00  0.00    +0.000 F 
ENDBRANCH  16  20
BRANCH  18  24
ATOM     24  C   UNL     1      -3.491  10.777  17.095  0.00  0.00    +0.000 C 
ATOM     25  F   UNL     1      -4.409  10.854  16.091  0.00  0.00    +0.000 F 
ATOM     26  F   UNL     1      -2.322  11.227  16.569  0.00  0.00    +0.000 F 
ATOM     27  F   UNL     1      -3.314   9.449  17.334  0.00  0.00    +0.000 F 
ENDBRANCH  18  24
ENDBRANCH  13  14
BRANCH  11  28
ATOM     28  N   UNL     1       0.400  15.409  19.357  0.00  0.00    +0.000 N 
ATOM     29  H   UNL     1      -0.208  16.074  18.886  0.00  0.00    +0.000 HD
ATOM     30  H   UNL     1       1.153  15.853  19.880  0.00  0.00    +0.000 HD
ENDBRANCH  11  28
BRANCH  12  31
ATOM     31  C   UNL     1      -2.219  15.806  20.561  0.00  0.00    +0.000 C 
ATOM     32  N   UNL     1      -2.786  16.819  20.556  0.00  0.00    +0.000 NA
ENDBRANCH  12  31
TORSDOF 5
ENDMDL
MODEL 8
REMARK VINA RESULT:      -6.8      9.186     12.000
REMARK  Name = 
REMARK  7 active torsions:
REMARK  status: ('A' for Active; 'I' for Inactive)
REMARK    1  A    between atoms: C_1  and  C_2
REMARK    2  A    between atoms: C_2  and  C_3
REMARK    3  A    between atoms: C_11  and  N_12
REMARK    4  A    between atoms: C_13  and  C_14
REMARK    5  A    between atoms: C_16  and  C_17
REMARK    6  A    between atoms: C_19  and  C_20
REMARK    7  A    between atoms: C_25  and  C_26
REMARK                            x       y       z     vdW  Elec       q    Type
REMARK                         _______ _______ _______ _____ _____    ______ ____
ROOT
ATOM      1  C   UNL     1      -3.549  16.243  24.801  0.00  0.00    +0.000 C 
ATOM      2  C   UNL     1      -3.288  15.304  23.612  0.00  0.00    +0.000 C 
ATOM      3  C   UNL     1      -4.631  15.079  22.881  0.00  0.00    +0.000 C 
ATOM      4  C   UNL     1      -2.271  15.939  22.648  0.00  0.00    +0.000 C 
ATOM      5  C   UNL     1      -1.869  14.982  21.537  0.00  0.00    +0.000 C 
ATOM      6  O   UNL     1      -1.493  15.391  20.441  0.00  0.00    +0.000 OA
ATOM      7  C   UNL     1      -1.838  13.528  21.837  0.00  0.00    +0.000 C 
ATOM      8  C   UNL     1      -2.129  13.106  23.078  0.00  0.00    +0.000 C 
ATOM      9  C   UNL     1      -2.709  13.976  24.152  0.00  0.00    +0.000 C 
ATOM     10  O   UNL     1      -1.952  11.781  23.450  0.00  0.00    +0.000 OA
ATOM     11  C   UNL     1      -1.167  10.945  22.651  0.00  0.00    +0.000 C 
ATOM     12  C   UNL     1      -0.898  11.270  21.369  0.00  0.00    +0.000 C 
ATOM     13  C   UNL     1      -1.448  12.550  20.761  0.00  0.00    +0.000 C 
ENDROOT
BRANCH  13  14
ATOM     14  C   UNL     1      -2.650  12.235  19.856  0.00  0.00    +0.000 A 
ATOM     15  C   UNL     1      -3.971  12.427  20.311  0.00  0.00    +0.000 A 
ATOM     16  C   UNL     1      -5.080  12.068  19.530  0.00  0.00    +0.000 A 
ATOM     17  C   UNL     1      -4.858  11.537  18.252  0.00  0.00    +0.000 A 
ATOM     18  C   UNL     1      -3.555  11.335  17.769  0.00  0.00    +0.000 A 
ATOM     19  C   UNL     1      -2.459  11.696  18.575  0.00  0.00    +0.000 A 
BRANCH  16  20
ATOM     20  C   UNL     1      -6.485  12.189  20.074  0.00  0.00    +0.000 C 
ATOM     21  F   UNL     1      -6.531  12.663  21.352  0.00  0.00    +0.000 F 
ATOM     22  F   UNL     1      -7.267  13.021  19.337  0.00  0.00    +0.000 F 
ATOM     23  F   UNL     1      -7.128  10.989  20.102  0.00  0.00    +0.000 F 
ENDBRANCH  16  20
BRANCH  18  24
ATOM     24  C   UNL     1      -3.321  10.688  16.422  0.00  0.00    +0.000 C 
ATOM     25  F   UNL     1      -4.404  10.756  15.597  0.00  0.00    +0.000 F 
ATOM     26  F   UNL     1      -2.292  11.251  15.736  0.00  0.00    +0.000 F 
ATOM     27  F   UNL     1      -3.023   9.364  16.533  0.00  0.00    +0.000 F 
ENDBRANCH  18  24
ENDBRANCH  13  14
BRANCH  11  28
ATOM     28  N   UNL     1      -0.759   9.810  23.309  0.00  0.00    +0.000 N 
ATOM     29  H   UNL     1      -1.442   9.059  23.251  0.00  0.00    +0.000 HD
ATOM     30  H   UNL     1       0.193   9.503  23.120  0.00  0.00    +0.000 HD
ENDBRANCH  11  28
BRANCH  12  31
ATOM     31  C   UNL     1      -0.089  10.435  20.547  0.00  0.00    +0.000 C 
ATOM     32  N   UNL     1       0.581   9.757  19.882  0.00  0.00    +0.000 NA
ENDBRANCH  12  31
TORSDOF 5
ENDMDL
MODEL 9
REMARK VINA RESULT:      -6.8      7.781     10.536
REMARK  Name = 
REMARK  7 active torsions:
REMARK  status: ('A' for Active; 'I' for Inactive)
REMARK    1  A    between atoms: C_1  and  C_2
REMARK    2  A    between atoms: C_2  and  C_3
REMARK    3  A    between atoms: C_11  and  N_12
REMARK    4  A    between atoms: C_13  and  C_14
REMARK    5  A    between atoms: C_16  and  C_17
REMARK    6  A    between atoms: C_19  and  C_20
REMARK    7  A    between atoms: C_25  and  C_26
REMARK                            x       y       z     vdW  Elec       q    Type
REMARK                         _______ _______ _______ _____ _____    ______ ____
ROOT
ATOM      1  C   UNL     1       2.794   8.232  17.843  0.00  0.00    +0.000 C 
ATOM      2  C   UNL     1       1.680   9.185  18.306  0.00  0.00    +0.000 C 
ATOM      3  C   UNL     1       0.415   8.877  17.472  0.00  0.00    +0.000 C 
ATOM      4  C   UNL     1       1.383   8.967  19.800  0.00  0.00    +0.000 C 
ATOM      5  C   UNL     1       0.394   9.991  20.337  0.00  0.00    +0.000 C 
ATOM      6  O   UNL     1      -0.337   9.739  21.292  0.00  0.00    +0.000 OA
ATOM      7  C   UNL     1       0.401  11.353  19.745  0.00  0.00    +0.000 C 
ATOM      8  C   UNL     1       1.294  11.650  18.787  0.00  0.00    +0.000 C 
ATOM      9  C   UNL     1       2.157  10.640  18.094  0.00  0.00    +0.000 C 
ATOM     10  O   UNL     1       1.451  12.949  18.325  0.00  0.00    +0.000 OA
ATOM     11  C   UNL     1       0.925  14.009  19.069  0.00  0.00    +0.000 C 
ATOM     12  C   UNL     1      -0.032  13.793  19.996  0.00  0.00    +0.000 C 
ATOM     13  C   UNL     1      -0.566  12.392  20.249  0.00  0.00    +0.000 C 
ENDROOT
BRANCH  13  14
ATOM     14  C   UNL     1      -1.940  12.218  19.582  0.00  0.00    +0.000 A 
ATOM     15  C   UNL     1      -3.127  12.556  20.264  0.00  0.00    +0.000 A 
ATOM     16  C   UNL     1      -4.392  12.327  19.703  0.00  0.00    +0.000 A 
ATOM     17  C   UNL     1      -4.467  11.780  18.415  0.00  0.00    +0.000 A 
ATOM     18  C   UNL     1      -3.303  11.434  17.708  0.00  0.00    +0.000 A 
ATOM     19  C   UNL     1      -2.046  11.666  18.296  0.00  0.00    +0.000 A 
BRANCH  16  20
ATOM     20  C   UNL     1      -5.652  12.604  20.490  0.00  0.00    +0.000 C 
ATOM     21  F   UNL     1      -5.413  13.032  21.762  0.00  0.00    +0.000 F 
ATOM     22  F   UNL     1      -6.436  13.555  19.915  0.00  0.00    +0.000 F 
ATOM     23  F   UNL     1      -6.432  11.494  20.614  0.00  0.00    +0.000 F 
ENDBRANCH  16  20
BRANCH  18  24
ATOM     24  C   UNL     1      -3.392  10.769  16.352  0.00  0.00    +0.000 C 
ATOM     25  F   UNL     1      -2.580  11.340  15.418  0.00  0.00    +0.000 F 
ATOM     26  F   UNL     1      -3.056   9.453  16.386  0.00  0.00    +0.000 F 
ATOM     27  F   UNL     1      -4.649  10.827  15.833  0.00  0.00    +0.000 F 
ENDBRANCH  18  24
ENDBRANCH  13  14
BRANCH  11  28
ATOM     28  N   UNL     1       1.469  15.222  18.725  0.00  0.00    +0.000 N 
ATOM     29  H   UNL     1       1.273  15.477  17.760  0.00  0.00    +0.000 HD
ATOM     30  H   UNL     1       1.313  15.983  19.382  0.00  0.00    +0.000 HD
ENDBRANCH  11  28
BRANCH  12  31
ATOM     31  C   UNL     1      -0.568  14.860  20.772  0.00  0.00    +0.000 C 
ATOM     32  N   UNL     1      -1.004  15.725  21.413  0.00  0.00    +0.000 NA
ENDBRANCH  12  31
TORSDOF 5
ENDMDL
