MODEL 1
REMARK VINA RESULT:      -5.8      0.000      0.000
REMARK  Name = 
REMARK  11 active torsions:
REMARK  status: ('A' for Active; 'I' for Inactive)
REMARK    1  A    between atoms: C_1  and  O_2
REMARK    2  A    between atoms: O_2  and  C_3
REMARK    3  A    between atoms: C_3  and  C_4
REMARK    4  A    between atoms: C_4  and  N_5
REMARK    5  A    between atoms: N_5  and  C_6
REMARK    6  A    between atoms: C_6  and  C_7
REMARK    7  A    between atoms: C_7  and  O_8
REMARK    8  A    between atoms: O_8  and  C_9
REMARK    9  A    between atoms: C_10  and  C_12
REMARK   10  A    between atoms: N_15  and  C_16
REMARK   11  A    between atoms: C_17  and  C_18
REMARK                            x       y       z     vdW  Elec       q    Type
REMARK                         _______ _______ _______ _____ _____    ______ ____
ROOT
ATOM      1  N   UNL     1       5.984   4.687  17.391  0.00  0.00    +0.000 N 
ATOM      2  C   UNL     1       5.445   4.317  18.644  0.00  0.00    +0.000 C 
ATOM      3  O   UNL     1       5.962   4.707  19.693  0.00  0.00    +0.000 OA
ENDROOT
BRANCH   2   4
ATOM      4  C   UNL     1       4.252   3.465  18.732  0.00  0.00    +0.000 A 
ATOM      5  C   UNL     1       4.085   2.110  19.093  0.00  0.00    +0.000 A 
ATOM      6  N   UNL     1       2.813   1.707  19.079  0.00  0.00    +0.000 NA
ATOM      7  N   UNL     1       2.131   2.825  18.780  0.00  0.00    +0.000 N 
ATOM      8  C   UNL     1       0.688   2.774  18.749  0.00  0.00    +0.000 C 
ATOM      9  C   UNL     1       2.937   3.912  18.573  0.00  0.00    +0.000 A 
ATOM     10  C   UNL     1       2.422   5.275  18.269  0.00  0.00    +0.000 C 
ENDBRANCH   2   4
BRANCH   1  11
ATOM     11  C   UNL     1       7.277   5.398  17.412  0.00  0.00    +0.000 C 
BRANCH  11  12
ATOM     12  C   UNL     1       7.199   6.934  17.346  0.00  0.00    +0.000 C 
BRANCH  12  14
ATOM     13  C   UNL     1       8.187   9.009  17.963  0.00  0.00    +0.000 C 
ATOM     14  O   UNL     1       8.095   7.615  18.226  0.00  0.00    +0.000 OA
ENDBRANCH  12  14
ENDBRANCH  11  12
ENDBRANCH   1  11
BRANCH   1  15
ATOM     15  C   UNL     1       5.429   4.211  16.114  0.00  0.00    +0.000 C 
BRANCH  15  16
ATOM     16  C   UNL     1       6.320   4.044  14.879  0.00  0.00    +0.000 C 
BRANCH  16  17
ATOM     17  O   UNL     1       5.533   3.997  13.687  0.00  0.00    +0.000 OA
ATOM     18  C   UNL     1       6.285   3.517  12.578  0.00  0.00    +0.000 C 
ENDBRANCH  16  17
ENDBRANCH  15  16
ENDBRANCH   1  15
TORSDOF 7
ENDMDL
MODEL 2
REMARK VINA RESULT:      -5.5      2.827      6.303
REMARK  Name = 
REMARK  11 active torsions:
REMARK  status: ('A' for Active; 'I' for Inactive)
REMARK    1  A    between atoms: C_1  and  O_2
REMARK    2  A    between atoms: O_2  and  C_3
REMARK    3  A    between atoms: C_3  and  C_4
REMARK    4  A    between atoms: C_4  and  N_5
REMARK    5  A    between atoms: N_5  and  C_6
REMARK    6  A    between atoms: C_6  and  C_7
REMARK    7  A    between atoms: C_7  and  O_8
REMARK    8  A    between atoms: O_8  and  C_9
REMARK    9  A    between atoms: C_10  and  C_12
REMARK   10  A    between atoms: N_15  and  C_16
REMARK   11  A    between atoms: C_17  and  C_18
REMARK                            x       y       z     vdW  Elec       q    Type
REMARK                         _______ _______ _______ _____ _____    ______ ____
ROOT
ATOM      1  N   UNL     1       2.668   4.866  18.598  0.00  0.00    +0.000 N 
ATOM      2  C   UNL     1       3.899   4.393  18.089  0.00  0.00    +0.000 C 
ATOM      3  O   UNL     1       3.957   3.337  17.455  0.00  0.00    +0.000 OA
ENDROOT
BRANCH   2   4
ATOM      4  C   UNL     1       5.142   5.148  18.294  0.00  0.00    +0.000 A 
ATOM      5  C   UNL     1       6.177   5.021  19.248  0.00  0.00    +0.000 A 
ATOM      6  N   UNL     1       7.170   5.895  19.076  0.00  0.00    +0.000 NA
ATOM      7  N   UNL     1       6.823   6.553  17.958  0.00  0.00    +0.000 N 
ATOM      8  C   UNL     1       7.724   7.548  17.426  0.00  0.00    +0.000 C 
ATOM      9  C   UNL     1       5.625   6.141  17.438  0.00  0.00    +0.000 A 
ATOM     10  C   UNL     1       5.040   6.686  16.182  0.00  0.00    +0.000 C 
ENDBRANCH   2   4
BRANCH   1  11
ATOM     11  C   UNL     1       1.514   3.953  18.488  0.00  0.00    +0.000 C 
BRANCH  11  12
ATOM     12  C   UNL     1       0.902   3.482  19.820  0.00  0.00    +0.000 C 
BRANCH  12  14
ATOM     13  C   UNL     1       2.342   2.855  21.606  0.00  0.00    +0.000 C 
ATOM     14  O   UNL     1       1.614   2.425  20.464  0.00  0.00    +0.000 OA
ENDBRANCH  12  14
ENDBRANCH  11  12
ENDBRANCH   1  11
BRANCH   1  15
ATOM     15  C   UNL     1       2.557   6.095  19.397  0.00  0.00    +0.000 C 
BRANCH  15  16
ATOM     16  C   UNL     1       2.318   7.453  18.729  0.00  0.00    +0.000 C 
BRANCH  16  17
ATOM     17  O   UNL     1       1.783   8.392  19.664  0.00  0.00    +0.000 OA
ATOM     18  C   UNL     1       1.394   7.761  20.879  0.00  0.00    +0.000 C 
ENDBRANCH  16  17
ENDBRANCH  15  16
ENDBRANCH   1  15
TORSDOF 7
ENDMDL
MODEL 3
REMARK VINA RESULT:      -5.5      2.090      3.695
REMARK  Name = 
REMARK  11 active torsions:
REMARK  status: ('A' for Active; 'I' for Inactive)
REMARK    1  A    between atoms: C_1  and  O_2
REMARK    2  A    between atoms: O_2  and  C_3
REMARK    3  A    between atoms: C_3  and  C_4
REMARK    4  A    between atoms: C_4  and  N_5
REMARK    5  A    between atoms: N_5  and  C_6
REMARK    6  A    between atoms: C_6  and  C_7
REMARK    7  A    between atoms: C_7  and  O_8
REMARK    8  A    between atoms: O_8  and  C_9
REMARK    9  A    between atoms: C_10  and  C_12
REMARK   10  A    between atoms: N_15  and  C_16
REMARK   11  A    between atoms: C_17  and  C_18
REMARK                            x       y       z     vdW  Elec       q    Type
REMARK                         _______ _______ _______ _____ _____    ______ ____
ROOT
ATOM      1  N   UNL     1       5.304   5.648  18.002  0.00  0.00    +0.000 N 
ATOM      2  C   UNL     1       5.021   4.724  19.034  0.00  0.00    +0.000 C 
ATOM      3  O   UNL     1       5.930   4.191  19.672  0.00  0.00    +0.000 OA
ENDROOT
BRANCH   2   4
ATOM      4  C   UNL     1       3.635   4.379  19.380  0.00  0.00    +0.000 A 
ATOM      5  C   UNL     1       2.668   5.036  20.173  0.00  0.00    +0.000 A 
ATOM      6  N   UNL     1       1.495   4.405  20.215  0.00  0.00    +0.000 NA
ATOM      7  N   UNL     1       1.666   3.363  19.384  0.00  0.00    +0.000 N 
ATOM      8  C   UNL     1       0.549   2.484  19.129  0.00  0.00    +0.000 C 
ATOM      9  C   UNL     1       2.923   3.302  18.845  0.00  0.00    +0.000 A 
ATOM     10  C   UNL     1       3.350   2.267  17.865  0.00  0.00    +0.000 C 
ENDBRANCH   2   4
BRANCH   1  11
ATOM     11  C   UNL     1       6.722   5.794  17.619  0.00  0.00    +0.000 C 
BRANCH  11  12
ATOM     12  C   UNL     1       7.217   4.851  16.507  0.00  0.00    +0.000 C 
BRANCH  12  14
ATOM     13  C   UNL     1       6.722   4.588  14.195  0.00  0.00    +0.000 C 
ATOM     14  O   UNL     1       7.257   5.434  15.204  0.00  0.00    +0.000 OA
ENDBRANCH  12  14
ENDBRANCH  11  12
ENDBRANCH   1  11
BRANCH   1  15
ATOM     15  C   UNL     1       4.255   6.275  17.185  0.00  0.00    +0.000 C 
BRANCH  15  16
ATOM     16  C   UNL     1       3.714   7.668  17.526  0.00  0.00    +0.000 C 
BRANCH  16  17
ATOM     17  O   UNL     1       2.318   7.611  17.827  0.00  0.00    +0.000 OA
ATOM     18  C   UNL     1       1.733   8.908  17.858  0.00  0.00    +0.000 C 
ENDBRANCH  16  17
ENDBRANCH  15  16
ENDBRANCH   1  15
TORSDOF 7
ENDMDL
MODEL 4
REMARK VINA RESULT:      -5.5      2.519      5.999
REMARK  Name = 
REMARK  11 active torsions:
REMARK  status: ('A' for Active; 'I' for Inactive)
REMARK    1  A    between atoms: C_1  and  O_2
REMARK    2  A    between atoms: O_2  and  C_3
REMARK    3  A    between atoms: C_3  and  C_4
REMARK    4  A    between atoms: C_4  and  N_5
REMARK    5  A    between atoms: N_5  and  C_6
REMARK    6  A    between atoms: C_6  and  C_7
REMARK    7  A    between atoms: C_7  and  O_8
REMARK    8  A    between atoms: O_8  and  C_9
REMARK    9  A    between atoms: C_10  and  C_12
REMARK   10  A    between atoms: N_15  and  C_16
REMARK   11  A    between atoms: C_17  and  C_18
REMARK                            x       y       z     vdW  Elec       q    Type
REMARK                         _______ _______ _______ _____ _____    ______ ____
ROOT
ATOM      1  N   UNL     1       2.712   4.116  17.806  0.00  0.00    +0.000 N 
ATOM      2  C   UNL     1       4.004   3.831  17.308  0.00  0.00    +0.000 C 
ATOM      3  O   UNL     1       4.378   2.667  17.152  0.00  0.00    +0.000 OA
ENDROOT
BRANCH   2   4
ATOM      4  C   UNL     1       4.935   4.912  16.957  0.00  0.00    +0.000 A 
ATOM      5  C   UNL     1       5.095   5.674  15.779  0.00  0.00    +0.000 A 
ATOM      6  N   UNL     1       6.049   6.601  15.869  0.00  0.00    +0.000 NA
ATOM      7  N   UNL     1       6.470   6.500  17.141  0.00  0.00    +0.000 N 
ATOM      8  C   UNL     1       7.473   7.422  17.619  0.00  0.00    +0.000 C 
ATOM      9  C   UNL     1       5.831   5.514  17.845  0.00  0.00    +0.000 A 
ATOM     10  C   UNL     1       6.089   5.229  19.283  0.00  0.00    +0.000 C 
ENDBRANCH   2   4
BRANCH   1  11
ATOM     11  C   UNL     1       1.923   2.967  18.289  0.00  0.00    +0.000 C 
BRANCH  11  12
ATOM     12  C   UNL     1       2.384   2.348  19.622  0.00  0.00    +0.000 C 
BRANCH  12  14
ATOM     13  C   UNL     1       2.020   3.350  21.748  0.00  0.00    +0.000 C 
ATOM     14  O   UNL     1       1.482   2.540  20.712  0.00  0.00    +0.000 OA
ENDBRANCH  12  14
ENDBRANCH  11  12
ENDBRANCH   1  11
BRANCH   1  15
ATOM     15  C   UNL     1       2.238   5.486  18.051  0.00  0.00    +0.000 C 
BRANCH  15  16
ATOM     16  C   UNL     1       2.431   6.158  19.414  0.00  0.00    +0.000 C 
BRANCH  16  17
ATOM     17  O   UNL     1       2.499   7.578  19.276  0.00  0.00    +0.000 OA
ATOM     18  C   UNL     1       2.805   7.963  17.941  0.00  0.00    +0.000 C 
ENDBRANCH  16  17
ENDBRANCH  15  16
ENDBRANCH   1  15
TORSDOF 7
ENDMDL
MODEL 5
REMARK VINA RESULT:      -5.4      2.704      6.449
REMARK  Name = 
REMARK  11 active torsions:
REMARK  status: ('A' for Active; 'I' for Inactive)
REMARK    1  A    between atoms: C_1  and  O_2
REMARK    2  A    between atoms: O_2  and  C_3
REMARK    3  A    between atoms: C_3  and  C_4
REMARK    4  A    between atoms: C_4  and  N_5
REMARK    5  A    between atoms: N_5  and  C_6
REMARK    6  A    between atoms: C_6  and  C_7
REMARK    7  A    between atoms: C_7  and  O_8
REMARK    8  A    between atoms: O_8  and  C_9
REMARK    9  A    between atoms: C_10  and  C_12
REMARK   10  A    between atoms: N_15  and  C_16
REMARK   11  A    between atoms: C_17  and  C_18
REMARK                            x       y       z     vdW  Elec       q    Type
REMARK                         _______ _______ _______ _____ _____    ______ ____
ROOT
ATOM      1  N   UNL     1       3.552   4.323  18.967  0.00  0.00    +0.000 N 
ATOM      2  C   UNL     1       4.411   4.221  17.849  0.00  0.00    +0.000 C 
ATOM      3  O   UNL     1       4.520   3.160  17.232  0.00  0.00    +0.000 OA
ENDROOT
BRANCH   2   4
ATOM      4  C   UNL     1       5.193   5.376  17.389  0.00  0.00    +0.000 A 
ATOM      5  C   UNL     1       4.992   6.290  16.330  0.00  0.00    +0.000 A 
ATOM      6  N   UNL     1       5.928   7.236  16.258  0.00  0.00    +0.000 NA
ATOM      7  N   UNL     1       6.711   6.989  17.321  0.00  0.00    +0.000 N 
ATOM      8  C   UNL     1       7.811   7.882  17.601  0.00  0.00    +0.000 C 
ATOM      9  C   UNL     1       6.313   5.895  18.043  0.00  0.00    +0.000 A 
ATOM     10  C   UNL     1       6.990   5.437  19.287  0.00  0.00    +0.000 C 
ENDBRANCH   2   4
BRANCH   1  11
ATOM     11  C   UNL     1       2.947   3.067  19.452  0.00  0.00    +0.000 C 
BRANCH  11  12
ATOM     12  C   UNL     1       3.598   2.449  20.703  0.00  0.00    +0.000 C 
BRANCH  12  14
ATOM     13  C   UNL     1       1.428   2.698  21.645  0.00  0.00    +0.000 C 
ATOM     14  O   UNL     1       2.819   2.554  21.896  0.00  0.00    +0.000 OA
ENDBRANCH  12  14
ENDBRANCH  11  12
ENDBRANCH   1  11
BRANCH   1  15
ATOM     15  C   UNL     1       3.423   5.554  19.762  0.00  0.00    +0.000 C 
BRANCH  15  16
ATOM     16  C   UNL     1       2.268   6.532  19.523  0.00  0.00    +0.000 C 
BRANCH  16  17
ATOM     17  O   UNL     1       1.567   6.798  20.740  0.00  0.00    +0.000 OA
ATOM     18  C   UNL     1       1.358   8.192  20.932  0.00  0.00    +0.000 C 
ENDBRANCH  16  17
ENDBRANCH  15  16
ENDBRANCH   1  15
TORSDOF 7
ENDMDL
MODEL 6
REMARK VINA RESULT:      -5.4      1.839      3.825
REMARK  Name = 
REMARK  11 active torsions:
REMARK  status: ('A' for Active; 'I' for Inactive)
REMARK    1  A    between atoms: C_1  and  O_2
REMARK    2  A    between atoms: O_2  and  C_3
REMARK    3  A    between atoms: C_3  and  C_4
REMARK    4  A    between atoms: C_4  and  N_5
REMARK    5  A    between atoms: N_5  and  C_6
REMARK    6  A    between atoms: C_6  and  C_7
REMARK    7  A    between atoms: C_7  and  O_8
REMARK    8  A    between atoms: O_8  and  C_9
REMARK    9  A    between atoms: C_10  and  C_12
REMARK   10  A    between atoms: N_15  and  C_16
REMARK   11  A    between atoms: C_17  and  C_18
REMARK                            x       y       z     vdW  Elec       q    Type
REMARK                         _______ _______ _______ _____ _____    ______ ____
ROOT
ATOM      1  N   UNL     1       6.186   4.686  17.478  0.00  0.00    +0.000 N 
ATOM      2  C   UNL     1       4.971   3.962  17.480  0.00  0.00    +0.000 C 
ATOM      3  O   UNL     1       4.770   3.064  16.660  0.00  0.00    +0.000 OA
ENDROOT
BRANCH   2   4
ATOM      4  C   UNL     1       3.919   4.255  18.463  0.00  0.00    +0.000 A 
ATOM      5  C   UNL     1       2.871   5.203  18.470  0.00  0.00    +0.000 A 
ATOM      6  N   UNL     1       2.093   5.129  19.550  0.00  0.00    +0.000 NA
ATOM      7  N   UNL     1       2.586   4.077  20.224  0.00  0.00    +0.000 N 
ATOM      8  C   UNL     1       1.927   3.656  21.438  0.00  0.00    +0.000 C 
ATOM      9  C   UNL     1       3.672   3.506  19.616  0.00  0.00    +0.000 A 
ATOM     10  C   UNL     1       4.374   2.303  20.142  0.00  0.00    +0.000 C 
ENDBRANCH   2   4
BRANCH   1  11
ATOM     11  C   UNL     1       7.101   4.435  16.349  0.00  0.00    +0.000 C 
BRANCH  11  12
ATOM     12  C   UNL     1       6.744   5.136  15.026  0.00  0.00    +0.000 C 
BRANCH  12  14
ATOM     13  C   UNL     1       7.828   5.154  12.908  0.00  0.00    +0.000 C 
ATOM     14  O   UNL     1       7.866   5.581  14.263  0.00  0.00    +0.000 OA
ENDBRANCH  12  14
ENDBRANCH  11  12
ENDBRANCH   1  11
BRANCH   1  15
ATOM     15  C   UNL     1       6.454   5.795  18.407  0.00  0.00    +0.000 C 
BRANCH  15  16
ATOM     16  C   UNL     1       7.852   6.013  18.994  0.00  0.00    +0.000 C 
BRANCH  16  17
ATOM     17  O   UNL     1       8.356   7.303  18.640  0.00  0.00    +0.000 OA
ATOM     18  C   UNL     1       7.633   7.870  17.553  0.00  0.00    +0.000 C 
ENDBRANCH  16  17
ENDBRANCH  15  16
ENDBRANCH   1  15
TORSDOF 7
ENDMDL
MODEL 7
REMARK VINA RESULT:      -5.4      2.239      3.839
REMARK  Name = 
REMARK  11 active torsions:
REMARK  status: ('A' for Active; 'I' for Inactive)
REMARK    1  A    between atoms: C_1  and  O_2
REMARK    2  A    between atoms: O_2  and  C_3
REMARK    3  A    between atoms: C_3  and  C_4
REMARK    4  A    between atoms: C_4  and  N_5
REMARK    5  A    between atoms: N_5  and  C_6
REMARK    6  A    between atoms: C_6  and  C_7
REMARK    7  A    between atoms: C_7  and  O_8
REMARK    8  A    between atoms: O_8  and  C_9
REMARK    9  A    between atoms: C_10  and  C_12
REMARK   10  A    between atoms: N_15  and  C_16
REMARK   11  A    between atoms: C_17  and  C_18
REMARK                            x       y       z     vdW  Elec       q    Type
REMARK                         _______ _______ _______ _____ _____    ______ ____
ROOT
ATOM      1  N   UNL     1       4.423   5.465  17.316  0.00  0.00    +0.000 N 
ATOM      2  C   UNL     1       3.827   4.187  17.416  0.00  0.00    +0.000 C 
ATOM      3  O   UNL     1       4.143   3.280  16.643  0.00  0.00    +0.000 OA
ENDROOT
BRANCH   2   4
ATOM      4  C   UNL     1       2.820   3.901  18.447  0.00  0.00    +0.000 A 
ATOM      5  C   UNL     1       1.419   4.081  18.473  0.00  0.00    +0.000 A 
ATOM      6  N   UNL     1       0.849   3.659  19.602  0.00  0.00    +0.000 NA
ATOM      7  N   UNL     1       1.870   3.129  20.294  0.00  0.00    +0.000 N 
ATOM      8  C   UNL     1       1.600   2.499  21.565  0.00  0.00    +0.000 C 
ATOM      9  C   UNL     1       3.073   3.233  19.648  0.00  0.00    +0.000 A 
ATOM     10  C   UNL     1       4.349   2.687  20.187  0.00  0.00    +0.000 C 
ENDBRANCH   2   4
BRANCH   1  11
ATOM     11  C   UNL     1       5.290   5.699  16.145  0.00  0.00    +0.000 C 
BRANCH  11  12
ATOM     12  C   UNL     1       6.795   5.457  16.366  0.00  0.00    +0.000 C 
BRANCH  12  14
ATOM     13  C   UNL     1       7.576   7.362  17.558  0.00  0.00    +0.000 C 
ATOM     14  O   UNL     1       7.600   6.637  16.336  0.00  0.00    +0.000 OA
ENDBRANCH  12  14
ENDBRANCH  11  12
ENDBRANCH   1  11
BRANCH   1  15
ATOM     15  C   UNL     1       4.046   6.589  18.186  0.00  0.00    +0.000 C 
BRANCH  15  16
ATOM     16  C   UNL     1       3.134   7.710  17.677  0.00  0.00    +0.000 C 
BRANCH  16  17
ATOM     17  O   UNL     1       1.967   7.825  18.494  0.00  0.00    +0.000 OA
ATOM     18  C   UNL     1       2.208   7.378  19.823  0.00  0.00    +0.000 C 
ENDBRANCH  16  17
ENDBRANCH  15  16
ENDBRANCH   1  15
TORSDOF 7
ENDMDL
MODEL 8
REMARK VINA RESULT:      -5.4      2.591      5.966
REMARK  Name = 
REMARK  11 active torsions:
REMARK  status: ('A' for Active; 'I' for Inactive)
REMARK    1  A    between atoms: C_1  and  O_2
REMARK    2  A    between atoms: O_2  and  C_3
REMARK    3  A    between atoms: C_3  and  C_4
REMARK    4  A    between atoms: C_4  and  N_5
REMARK    5  A    between atoms: N_5  and  C_6
REMARK    6  A    between atoms: C_6  and  C_7
REMARK    7  A    between atoms: C_7  and  O_8
REMARK    8  A    between atoms: O_8  and  C_9
REMARK    9  A    between atoms: C_10  and  C_12
REMARK   10  A    between atoms: N_15  and  C_16
REMARK   11  A    between atoms: C_17  and  C_18
REMARK                            x       y       z     vdW  Elec       q    Type
REMARK                         _______ _______ _______ _____ _____    ______ ____
ROOT
ATOM      1  N   UNL     1       3.675   5.529  18.896  0.00  0.00    +0.000 N 
ATOM      2  C   UNL     1       4.948   4.936  18.737  0.00  0.00    +0.000 C 
ATOM      3  O   UNL     1       5.356   4.092  19.537  0.00  0.00    +0.000 OA
ENDROOT
BRANCH   2   4
ATOM      4  C   UNL     1       5.818   5.304  17.611  0.00  0.00    +0.000 A 
ATOM      5  C   UNL     1       6.890   6.218  17.506  0.00  0.00    +0.000 A 
ATOM      6  N   UNL     1       7.456   6.239  16.299  0.00  0.00    +0.000 NA
ATOM      7  N   UNL     1       6.801   5.280  15.625  0.00  0.00    +0.000 N 
ATOM      8  C   UNL     1       7.209   4.973  14.274  0.00  0.00    +0.000 C 
ATOM      9  C   UNL     1       5.817   4.676  16.363  0.00  0.00    +0.000 A 
ATOM     10  C   UNL     1       4.977   3.556  15.857  0.00  0.00    +0.000 C 
ENDBRANCH   2   4
BRANCH   1  11
ATOM     11  C   UNL     1       2.956   5.222  20.147  0.00  0.00    +0.000 C 
BRANCH  11  12
ATOM     12  C   UNL     1       1.803   4.207  20.026  0.00  0.00    +0.000 C 
BRANCH  12  14
ATOM     13  C   UNL     1       2.088   2.225  18.741  0.00  0.00    +0.000 C 
ATOM     14  O   UNL     1       2.211   2.838  20.017  0.00  0.00    +0.000 OA
ENDBRANCH  12  14
ENDBRANCH  11  12
ENDBRANCH   1  11
BRANCH   1  15
ATOM     15  C   UNL     1       3.164   6.572  17.994  0.00  0.00    +0.000 C 
BRANCH  15  16
ATOM     16  C   UNL     1       2.429   7.800  18.541  0.00  0.00    +0.000 C 
BRANCH  16  17
ATOM     17  O   UNL     1       2.242   8.779  17.517  0.00  0.00    +0.000 OA
ATOM     18  C   UNL     1       1.517   9.907  17.994  0.00  0.00    +0.000 C 
ENDBRANCH  16  17
ENDBRANCH  15  16
ENDBRANCH   1  15
TORSDOF 7
ENDMDL
MODEL 9
REMARK VINA RESULT:      -5.4      0.896      1.079
REMARK  Name = 
REMARK  11 active torsions:
REMARK  status: ('A' for Active; 'I' for Inactive)
REMARK    1  A    between atoms: C_1  and  O_2
REMARK    2  A    between atoms: O_2  and  C_3
REMARK    3  A    between atoms: C_3  and  C_4
REMARK    4  A    between atoms: C_4  and  N_5
REMARK    5  A    between atoms: N_5  and  C_6
REMARK    6  A    between atoms: C_6  and  C_7
REMARK    7  A    between atoms: C_7  and  O_8
REMARK    8  A    between atoms: O_8  and  C_9
REMARK    9  A    between atoms: C_10  and  C_12
REMARK   10  A    between atoms: N_15  and  C_16
REMARK   11  A    between atoms: C_17  and  C_18
REMARK                            x       y       z     vdW  Elec       q    Type
REMARK                         _______ _______ _______ _____ _____    ______ ____
ROOT
ATOM      1  N   UNL     1       6.028   4.389  17.431  0.00  0.00    +0.000 N 
ATOM      2  C   UNL     1       5.385   4.169  18.671  0.00  0.00    +0.000 C 
ATOM      3  O   UNL     1       5.820   4.675  19.707  0.00  0.00    +0.000 OA
ENDROOT
BRANCH   2   4
ATOM      4  C   UNL     1       4.177   3.337  18.758  0.00  0.00    +0.000 A 
ATOM      5  C   UNL     1       3.988   1.983  19.113  0.00  0.00    +0.000 A 
ATOM      6  N   UNL     1       2.710   1.603  19.101  0.00  0.00    +0.000 NA
ATOM      7  N   UNL     1       2.046   2.733  18.809  0.00  0.00    +0.000 N 
ATOM      8  C   UNL     1       0.602   2.707  18.781  0.00  0.00    +0.000 C 
ATOM      9  C   UNL     1       2.871   3.807  18.605  0.00  0.00    +0.000 A 
ATOM     10  C   UNL     1       2.378   5.180  18.307  0.00  0.00    +0.000 C 
ENDBRANCH   2   4
BRANCH   1  11
ATOM     11  C   UNL     1       7.324   5.093  17.476  0.00  0.00    +0.000 C 
BRANCH  11  12
ATOM     12  C   UNL     1       7.260   6.626  17.351  0.00  0.00    +0.000 C 
BRANCH  12  14
ATOM     13  C   UNL     1       5.036   7.398  17.012  0.00  0.00    +0.000 C 
ATOM     14  O   UNL     1       6.293   7.109  16.417  0.00  0.00    +0.000 OA
ENDBRANCH  12  14
ENDBRANCH  11  12
ENDBRANCH   1  11
BRANCH   1  15
ATOM     15  C   UNL     1       5.572   3.772  16.177  0.00  0.00    +0.000 C 
BRANCH  15  16
ATOM     16  C   UNL     1       6.371   3.934  14.879  0.00  0.00    +0.000 C 
BRANCH  16  17
ATOM     17  O   UNL     1       5.497   4.044  13.754  0.00  0.00    +0.000 OA
ATOM     18  C   UNL     1       6.066   3.460  12.588  0.00  0.00    +0.000 C 
ENDBRANCH  16  17
ENDBRANCH  15  16
ENDBRANCH   1  15
TORSDOF 7
ENDMDL
