MODEL 1
REMARK VINA RESULT:      -7.4      0.000      0.000
REMARK  Name = 
REMARK  15 active torsions:
REMARK  status: ('A' for Active; 'I' for Inactive)
REMARK    1  A    between atoms: C_1  and  N_2
REMARK    2  A    between atoms: N_2  and  C_3
REMARK    3  A    between atoms: C_3  and  C_4
REMARK    4  A    between atoms: C_4  and  C_5
REMARK    5  A    between atoms: C_4  and  N_12
REMARK    6  A    between atoms: C_5  and  C_6
REMARK    7  A    between atoms: C_19  and  C_20
REMARK    8  A    between atoms: C_20  and  O_21
REMARK    9  A    between atoms: C_20  and  C_22
REMARK   10  A    between atoms: C_20  and  C_28
REMARK   11  A    between atoms: C_22  and  C_23
REMARK   12  A    between atoms: C_23  and  C_24
REMARK   13  A    between atoms: C_24  and  C_25
REMARK   14  A    between atoms: C_25  and  O_26
REMARK   15  A    between atoms: O_26  and  C_27
REMARK                            x       y       z     vdW  Elec       q    Type
REMARK                         _______ _______ _______ _____ _____    ______ ____
ROOT
ATOM      1  N   UNL     1       2.314   7.499  18.558  0.00  0.00    +0.000 N 
ATOM      2  C   UNL     1       2.016   7.405  19.895  0.00  0.00    +0.000 C 
ATOM      3  O   UNL     1       2.170   6.374  20.540  0.00  0.00    +0.000 OA
ATOM      4  N   UNL     1       1.559   8.592  20.445  0.00  0.00    +0.000 N 
ATOM      5  C   UNL     1       1.347   8.665  21.881  0.00  0.00    +0.000 C 
ATOM      6  C   UNL     1      -0.139   8.782  22.179  0.00  0.00    +0.000 C 
ATOM      7  C   UNL     1      -0.727   9.999  21.463  0.00  0.00    +0.000 C 
ATOM      8  C   UNL     1      -0.476   9.946  19.930  0.00  0.00    +0.000 C 
ATOM      9  C   UNL     1       1.034   9.729  19.685  0.00  0.00    +0.000 C 
ATOM     10  H   UNL     1       2.743   8.385  18.353  0.00  0.00    +0.000 HD
ENDROOT
BRANCH   1  11
ATOM     11  C   UNL     1       2.908   6.382  17.825  0.00  0.00    +0.000 C 
BRANCH  11  12
ATOM     12  C   UNL     1       2.027   5.112  17.977  0.00  0.00    +0.000 C 
BRANCH  12  14
ATOM     13  C   UNL     1       2.769   2.812  17.658  0.00  0.00    +0.000 C 
ATOM     14  N   UNL     1       2.825   3.992  18.504  0.00  0.00    +0.000 NA
ATOM     15  H   UNL     1       3.793   4.259  18.658  0.00  0.00    +0.000 HD
ENDBRANCH  12  14
ENDBRANCH  11  12
BRANCH  11  16
ATOM     16  C   UNL     1       4.407   6.172  18.147  0.00  0.00    +0.000 C 
BRANCH  16  17
ATOM     17  C   UNL     1       5.494   6.718  17.185  0.00  0.00    +0.000 C 
ATOM     18  C   UNL     1       6.940   6.335  17.525  0.00  0.00    +0.000 C 
ATOM     19  C   UNL     1       7.221   4.844  17.353  0.00  0.00    +0.000 C 
ATOM     20  C   UNL     1       6.869   4.360  15.948  0.00  0.00    +0.000 C 
ATOM     21  C   UNL     1       5.453   4.750  15.539  0.00  0.00    +0.000 C 
ATOM     22  C   UNL     1       5.195   6.244  15.741  0.00  0.00    +0.000 C 
ENDBRANCH  16  17
ENDBRANCH  11  16
ENDBRANCH   1  11
BRANCH   8  23
ATOM     23  C   UNL     1      -1.012  11.222  19.187  0.00  0.00    +0.000 C 
BRANCH  23  24
ATOM     24  C   UNL     1      -2.025  10.926  18.072  0.00  0.00    +0.000 A 
ATOM     25  C   UNL     1      -3.228  11.651  17.997  0.00  0.00    +0.000 A 
ATOM     26  C   UNL     1      -4.142  11.444  16.961  0.00  0.00    +0.000 A 
ATOM     27  C   UNL     1      -3.866  10.512  15.968  0.00  0.00    +0.000 A 
ATOM     28  C   UNL     1      -2.690   9.776  16.018  0.00  0.00    +0.000 A 
ATOM     29  C   UNL     1      -1.788   9.974  17.064  0.00  0.00    +0.000 A 
ENDBRANCH  23  24
BRANCH  23  30
ATOM     30  O   UNL     1      -1.737  11.991  20.175  0.00  0.00    +0.000 OA
ATOM     31  H   UNL     1      -1.306  11.899  21.036  0.00  0.00    +0.000 HD
ENDBRANCH  23  30
BRANCH  23  32
ATOM     32  C   UNL     1       0.123  12.162  18.649  0.00  0.00    +0.000 C 
BRANCH  32  33
ATOM     33  C   UNL     1      -0.120  13.680  18.583  0.00  0.00    +0.000 C 
BRANCH  33  34
ATOM     34  C   UNL     1       0.943  14.542  19.254  0.00  0.00    +0.000 C 
BRANCH  34  35
ATOM     35  C   UNL     1       1.196  14.142  20.700  0.00  0.00    +0.000 C 
BRANCH  35  36
ATOM     36  O   UNL     1       2.528  13.631  20.781  0.00  0.00    +0.000 OA
ATOM     37  C   UNL     1       3.406  14.310  19.897  0.00  0.00    +0.000 C 
ENDBRANCH  35  36
ENDBRANCH  34  35
ENDBRANCH  33  34
ENDBRANCH  32  33
ENDBRANCH  23  32
ENDBRANCH   8  23
TORSDOF 13
ENDMDL
MODEL 2
REMARK VINA RESULT:      -7.3      1.742      3.833
REMARK  Name = 
REMARK  15 active torsions:
REMARK  status: ('A' for Active; 'I' for Inactive)
REMARK    1  A    between atoms: C_1  and  N_2
REMARK    2  A    between atoms: N_2  and  C_3
REMARK    3  A    between atoms: C_3  and  C_4
REMARK    4  A    between atoms: C_4  and  C_5
REMARK    5  A    between atoms: C_4  and  N_12
REMARK    6  A    between atoms: C_5  and  C_6
REMARK    7  A    between atoms: C_19  and  C_20
REMARK    8  A    between atoms: C_20  and  O_21
REMARK    9  A    between atoms: C_20  and  C_22
REMARK   10  A    between atoms: C_20  and  C_28
REMARK   11  A    between atoms: C_22  and  C_23
REMARK   12  A    between atoms: C_23  and  C_24
REMARK   13  A    between atoms: C_24  and  C_25
REMARK   14  A    between atoms: C_25  and  O_26
REMARK   15  A    between atoms: O_26  and  C_27
REMARK                            x       y       z     vdW  Elec       q    Type
REMARK                         _______ _______ _______ _____ _____    ______ ____
ROOT
ATOM      1  N   UNL     1       2.380   7.355  18.493  0.00  0.00    +0.000 N 
ATOM      2  C   UNL     1       1.984   7.302  19.807  0.00  0.00    +0.000 C 
ATOM      3  O   UNL     1       1.999   6.267  20.465  0.00  0.00    +0.000 OA
ATOM      4  N   UNL     1       1.600   8.530  20.319  0.00  0.00    +0.000 N 
ATOM      5  C   UNL     1       1.299   8.637  21.737  0.00  0.00    +0.000 C 
ATOM      6  C   UNL     1      -0.187   8.891  21.932  0.00  0.00    +0.000 C 
ATOM      7  C   UNL     1      -0.612  10.149  21.172  0.00  0.00    +0.000 C 
ATOM      8  C   UNL     1      -0.263  10.058  19.660  0.00  0.00    +0.000 C 
ATOM      9  C   UNL     1       1.234   9.703  19.520  0.00  0.00    +0.000 C 
ATOM     10  H   UNL     1       2.900   8.197  18.315  0.00  0.00    +0.000 HD
ENDROOT
BRANCH   1  11
ATOM     11  C   UNL     1       2.918   6.181  17.807  0.00  0.00    +0.000 C 
BRANCH  11  12
ATOM     12  C   UNL     1       1.973   4.964  18.004  0.00  0.00    +0.000 C 
BRANCH  12  14
ATOM     13  C   UNL     1       2.096   2.555  18.357  0.00  0.00    +0.000 C 
ATOM     14  N   UNL     1       2.695   3.849  18.637  0.00  0.00    +0.000 NA
ATOM     15  H   UNL     1       3.677   3.837  18.374  0.00  0.00    +0.000 HD
ENDBRANCH  12  14
ENDBRANCH  11  12
BRANCH  11  16
ATOM     16  C   UNL     1       4.404   5.908  18.144  0.00  0.00    +0.000 C 
BRANCH  16  17
ATOM     17  C   UNL     1       5.527   6.605  17.334  0.00  0.00    +0.000 C 
ATOM     18  C   UNL     1       6.958   6.146  17.645  0.00  0.00    +0.000 C 
ATOM     19  C   UNL     1       7.233   4.706  17.213  0.00  0.00    +0.000 C 
ATOM     20  C   UNL     1       6.926   4.491  15.733  0.00  0.00    +0.000 C 
ATOM     21  C   UNL     1       5.527   4.969  15.356  0.00  0.00    +0.000 C 
ATOM     22  C   UNL     1       5.275   6.405  15.819  0.00  0.00    +0.000 C 
ENDBRANCH  16  17
ENDBRANCH  11  16
ENDBRANCH   1  11
BRANCH   8  23
ATOM     23  C   UNL     1      -0.629  11.369  18.877  0.00  0.00    +0.000 C 
BRANCH  23  24
ATOM     24  C   UNL     1      -1.247  12.474  19.744  0.00  0.00    +0.000 A 
ATOM     25  C   UNL     1      -2.634  12.495  19.982  0.00  0.00    +0.000 A 
ATOM     26  C   UNL     1      -3.216  13.454  20.815  0.00  0.00    +0.000 A 
ATOM     27  C   UNL     1      -2.421  14.408  21.438  0.00  0.00    +0.000 A 
ATOM     28  C   UNL     1      -1.051  14.417  21.217  0.00  0.00    +0.000 A 
ATOM     29  C   UNL     1      -0.475  13.469  20.371  0.00  0.00    +0.000 A 
ENDBRANCH  23  24
BRANCH  23  30
ATOM     30  O   UNL     1       0.621  11.913  18.391  0.00  0.00    +0.000 OA
ATOM     31  H   UNL     1       0.633  11.880  17.424  0.00  0.00    +0.000 HD
ENDBRANCH  23  30
BRANCH  23  32
ATOM     32  C   UNL     1      -1.517  11.118  17.608  0.00  0.00    +0.000 C 
BRANCH  32  33
ATOM     33  C   UNL     1      -2.319   9.810  17.493  0.00  0.00    +0.000 C 
BRANCH  33  34
ATOM     34  C   UNL     1      -3.368   9.782  16.388  0.00  0.00    +0.000 C 
BRANCH  34  35
ATOM     35  C   UNL     1      -3.103  10.812  15.300  0.00  0.00    +0.000 C 
BRANCH  35  36
ATOM     36  O   UNL     1      -2.722  10.105  14.118  0.00  0.00    +0.000 OA
ATOM     37  C   UNL     1      -3.834   9.865  13.268  0.00  0.00    +0.000 C 
ENDBRANCH  35  36
ENDBRANCH  34  35
ENDBRANCH  33  34
ENDBRANCH  32  33
ENDBRANCH  23  32
ENDBRANCH   8  23
TORSDOF 13
ENDMDL
MODEL 3
REMARK VINA RESULT:      -7.3      0.670      1.109
REMARK  Name = 
REMARK  15 active torsions:
REMARK  status: ('A' for Active; 'I' for Inactive)
REMARK    1  A    between atoms: C_1  and  N_2
REMARK    2  A    between atoms: N_2  and  C_3
REMARK    3  A    between atoms: C_3  and  C_4
REMARK    4  A    between atoms: C_4  and  C_5
REMARK    5  A    between atoms: C_4  and  N_12
REMARK    6  A    between atoms: C_5  and  C_6
REMARK    7  A    between atoms: C_19  and  C_20
REMARK    8  A    between atoms: C_20  and  O_21
REMARK    9  A    between atoms: C_20  and  C_22
REMARK   10  A    between atoms: C_20  and  C_28
REMARK   11  A    between atoms: C_22  and  C_23
REMARK   12  A    between atoms: C_23  and  C_24
REMARK   13  A    between atoms: C_24  and  C_25
REMARK   14  A    between atoms: C_25  and  O_26
REMARK   15  A    between atoms: O_26  and  C_27
REMARK                            x       y       z     vdW  Elec       q    Type
REMARK                         _______ _______ _______ _____ _____    ______ ____
ROOT
ATOM      1  N   UNL     1       2.288   7.336  18.598  0.00  0.00    +0.000 N 
ATOM      2  C   UNL     1       1.972   7.265  19.933  0.00  0.00    +0.000 C 
ATOM      3  O   UNL     1       2.062   6.230  20.584  0.00  0.00    +0.000 OA
ATOM      4  N   UNL     1       1.575   8.478  20.473  0.00  0.00    +0.000 N 
ATOM      5  C   UNL     1       1.353   8.569  21.907  0.00  0.00    +0.000 C 
ATOM      6  C   UNL     1      -0.127   8.769  22.189  0.00  0.00    +0.000 C 
ATOM      7  C   UNL     1      -0.641  10.013  21.462  0.00  0.00    +0.000 C 
ATOM      8  C   UNL     1      -0.377   9.938  19.932  0.00  0.00    +0.000 C 
ATOM      9  C   UNL     1       1.121   9.638  19.703  0.00  0.00    +0.000 C 
ATOM     10  H   UNL     1       2.766   8.197  18.394  0.00  0.00    +0.000 HD
ENDROOT
BRANCH   1  11
ATOM     11  C   UNL     1       2.826   6.184  17.877  0.00  0.00    +0.000 C 
BRANCH  11  12
ATOM     12  C   UNL     1       1.903   4.950  18.069  0.00  0.00    +0.000 C 
BRANCH  12  14
ATOM     13  C   UNL     1       2.568   2.612  17.879  0.00  0.00    +0.000 C 
ATOM     14  N   UNL     1       2.656   3.833  18.663  0.00  0.00    +0.000 NA
ATOM     15  H   UNL     1       3.631   4.073  18.815  0.00  0.00    +0.000 HD
ENDBRANCH  12  14
ENDBRANCH  11  12
BRANCH  11  16
ATOM     16  C   UNL     1       4.323   5.926  18.175  0.00  0.00    +0.000 C 
BRANCH  16  17
ATOM     17  C   UNL     1       5.418   6.630  17.332  0.00  0.00    +0.000 C 
ATOM     18  C   UNL     1       6.867   6.271  17.685  0.00  0.00    +0.000 C 
ATOM     19  C   UNL     1       7.224   4.824  17.350  0.00  0.00    +0.000 C 
ATOM     20  C   UNL     1       6.949   4.498  15.884  0.00  0.00    +0.000 C 
ATOM     21  C   UNL     1       5.532   4.873  15.464  0.00  0.00    +0.000 C 
ATOM     22  C   UNL     1       5.196   6.320  15.830  0.00  0.00    +0.000 C 
ENDBRANCH  16  17
ENDBRANCH  11  16
ENDBRANCH   1  11
BRANCH   8  23
ATOM     23  C   UNL     1      -0.836  11.238  19.177  0.00  0.00    +0.000 C 
BRANCH  23  24
ATOM     24  C   UNL     1      -1.897  11.001  18.094  0.00  0.00    +0.000 A 
ATOM     25  C   UNL     1      -1.692  10.023  17.104  0.00  0.00    +0.000 A 
ATOM     26  C   UNL     1      -2.664   9.745  16.140  0.00  0.00    +0.000 A 
ATOM     27  C   UNL     1      -3.872  10.433  16.154  0.00  0.00    +0.000 A 
ATOM     28  C   UNL     1      -4.100  11.409  17.114  0.00  0.00    +0.000 A 
ATOM     29  C   UNL     1      -3.120  11.696  18.064  0.00  0.00    +0.000 A 
ENDBRANCH  23  24
BRANCH  23  30
ATOM     30  O   UNL     1      -1.475  12.077  20.168  0.00  0.00    +0.000 OA
ATOM     31  H   UNL     1      -0.963  12.054  20.989  0.00  0.00    +0.000 HD
ENDBRANCH  23  30
BRANCH  23  32
ATOM     32  C   UNL     1       0.352  12.080  18.594  0.00  0.00    +0.000 C 
BRANCH  32  33
ATOM     33  C   UNL     1       0.257  13.616  18.582  0.00  0.00    +0.000 C 
BRANCH  33  34
ATOM     34  C   UNL     1       1.164  14.335  19.574  0.00  0.00    +0.000 C 
BRANCH  34  35
ATOM     35  C   UNL     1       1.826  15.568  18.978  0.00  0.00    +0.000 C 
BRANCH  35  36
ATOM     36  O   UNL     1       2.774  15.125  18.007  0.00  0.00    +0.000 OA
ATOM     37  C   UNL     1       3.956  14.626  18.615  0.00  0.00    +0.000 C 
ENDBRANCH  35  36
ENDBRANCH  34  35
ENDBRANCH  33  34
ENDBRANCH  32  33
ENDBRANCH  23  32
ENDBRANCH   8  23
TORSDOF 13
ENDMDL
MODEL 4
REMARK VINA RESULT:      -7.2      1.759      4.804
REMARK  Name = 
REMARK  15 active torsions:
REMARK  status: ('A' for Active; 'I' for Inactive)
REMARK    1  A    between atoms: C_1  and  N_2
REMARK    2  A    between atoms: N_2  and  C_3
REMARK    3  A    between atoms: C_3  and  C_4
REMARK    4  A    between atoms: C_4  and  C_5
REMARK    5  A    between atoms: C_4  and  N_12
REMARK    6  A    between atoms: C_5  and  C_6
REMARK    7  A    between atoms: C_19  and  C_20
REMARK    8  A    between atoms: C_20  and  O_21
REMARK    9  A    between atoms: C_20  and  C_22
REMARK   10  A    between atoms: C_20  and  C_28
REMARK   11  A    between atoms: C_22  and  C_23
REMARK   12  A    between atoms: C_23  and  C_24
REMARK   13  A    between atoms: C_24  and  C_25
REMARK   14  A    between atoms: C_25  and  O_26
REMARK   15  A    between atoms: O_26  and  C_27
REMARK                            x       y       z     vdW  Elec       q    Type
REMARK                         _______ _______ _______ _____ _____    ______ ____
ROOT
ATOM      1  N   UNL     1       2.308   7.008  18.869  0.00  0.00    +0.000 N 
ATOM      2  C   UNL     1       1.990   7.165  20.196  0.00  0.00    +0.000 C 
ATOM      3  O   UNL     1       2.097   6.261  21.017  0.00  0.00    +0.000 OA
ATOM      4  N   UNL     1       1.571   8.446  20.516  0.00  0.00    +0.000 N 
ATOM      5  C   UNL     1       1.344   8.782  21.912  0.00  0.00    +0.000 C 
ATOM      6  C   UNL     1      -0.140   9.002  22.156  0.00  0.00    +0.000 C 
ATOM      7  C   UNL     1      -0.674  10.090  21.224  0.00  0.00    +0.000 C 
ATOM      8  C   UNL     1      -0.405   9.755  19.730  0.00  0.00    +0.000 C 
ATOM      9  C   UNL     1       1.098   9.446  19.556  0.00  0.00    +0.000 C 
ATOM     10  H   UNL     1       2.772   7.828  18.518  0.00  0.00    +0.000 HD
ENDROOT
BRANCH   1  11
ATOM     11  C   UNL     1       2.868   5.757  18.359  0.00  0.00    +0.000 C 
BRANCH  11  12
ATOM     12  C   UNL     1       4.008   6.053  17.345  0.00  0.00    +0.000 C 
BRANCH  12  14
ATOM     13  C   UNL     1       6.005   4.670  17.151  0.00  0.00    +0.000 C 
ATOM     14  N   UNL     1       5.314   5.690  17.920  0.00  0.00    +0.000 NA
ATOM     15  H   UNL     1       5.915   6.502  18.033  0.00  0.00    +0.000 HD
ENDBRANCH  12  14
ENDBRANCH  11  12
BRANCH  11  16
ATOM     16  C   UNL     1       1.790   4.771  17.850  0.00  0.00    +0.000 C 
BRANCH  16  17
ATOM     17  C   UNL     1       1.992   3.242  18.015  0.00  0.00    +0.000 C 
ATOM     18  C   UNL     1       3.303   2.811  18.686  0.00  0.00    +0.000 C 
ATOM     19  C   UNL     1       3.379   3.205  20.160  0.00  0.00    +0.000 C 
ATOM     20  C   UNL     1       2.187   2.671  20.951  0.00  0.00    +0.000 C 
ATOM     21  C   UNL     1       0.854   3.035  20.306  0.00  0.00    +0.000 C 
ATOM     22  C   UNL     1       0.815   2.647  18.827  0.00  0.00    +0.000 C 
ENDBRANCH  16  17
ENDBRANCH  11  16
ENDBRANCH   1  11
BRANCH   8  23
ATOM     23  C   UNL     1      -0.885  10.895  18.761  0.00  0.00    +0.000 C 
BRANCH  23  24
ATOM     24  C   UNL     1      -0.266  12.270  19.045  0.00  0.00    +0.000 A 
ATOM     25  C   UNL     1       0.994  12.603  18.516  0.00  0.00    +0.000 A 
ATOM     26  C   UNL     1       1.556  13.867  18.710  0.00  0.00    +0.000 A 
ATOM     27  C   UNL     1       0.863  14.832  19.430  0.00  0.00    +0.000 A 
ATOM     28  C   UNL     1      -0.379  14.532  19.971  0.00  0.00    +0.000 A 
ATOM     29  C   UNL     1      -0.930  13.262  19.790  0.00  0.00    +0.000 A 
ENDBRANCH  23  24
BRANCH  23  30
ATOM     30  O   UNL     1      -0.420  10.526  17.442  0.00  0.00    +0.000 OA
ATOM     31  H   UNL     1       0.048  11.273  17.043  0.00  0.00    +0.000 HD
ENDBRANCH  23  30
BRANCH  23  32
ATOM     32  C   UNL     1      -2.445  11.017  18.655  0.00  0.00    +0.000 C 
BRANCH  32  33
ATOM     33  C   UNL     1      -3.210  10.109  17.675  0.00  0.00    +0.000 C 
BRANCH  33  34
ATOM     34  C   UNL     1      -3.808  10.814  16.463  0.00  0.00    +0.000 C 
BRANCH  34  35
ATOM     35  C   UNL     1      -4.947  11.753  16.832  0.00  0.00    +0.000 C 
BRANCH  35  36
ATOM     36  O   UNL     1      -5.807  11.057  17.736  0.00  0.00    +0.000 OA
ATOM     37  C   UNL     1      -6.956  11.823  18.063  0.00  0.00    +0.000 C 
ENDBRANCH  35  36
ENDBRANCH  34  35
ENDBRANCH  33  34
ENDBRANCH  32  33
ENDBRANCH  23  32
ENDBRANCH   8  23
TORSDOF 13
ENDMDL
MODEL 5
REMARK VINA RESULT:      -7.1      2.572      9.341
REMARK  Name = 
REMARK  15 active torsions:
REMARK  status: ('A' for Active; 'I' for Inactive)
REMARK    1  A    between atoms: C_1  and  N_2
REMARK    2  A    between atoms: N_2  and  C_3
REMARK    3  A    between atoms: C_3  and  C_4
REMARK    4  A    between atoms: C_4  and  C_5
REMARK    5  A    between atoms: C_4  and  N_12
REMARK    6  A    between atoms: C_5  and  C_6
REMARK    7  A    between atoms: C_19  and  C_20
REMARK    8  A    between atoms: C_20  and  O_21
REMARK    9  A    between atoms: C_20  and  C_22
REMARK   10  A    between atoms: C_20  and  C_28
REMARK   11  A    between atoms: C_22  and  C_23
REMARK   12  A    between atoms: C_23  and  C_24
REMARK   13  A    between atoms: C_24  and  C_25
REMARK   14  A    between atoms: C_25  and  O_26
REMARK   15  A    between atoms: O_26  and  C_27
REMARK                            x       y       z     vdW  Elec       q    Type
REMARK                         _______ _______ _______ _____ _____    ______ ____
ROOT
ATOM      1  N   UNL     1       1.747   8.023  19.755  0.00  0.00    +0.000 N 
ATOM      2  C   UNL     1       1.370   6.869  20.398  0.00  0.00    +0.000 C 
ATOM      3  O   UNL     1       0.683   6.868  21.414  0.00  0.00    +0.000 OA
ATOM      4  N   UNL     1       1.813   5.716  19.771  0.00  0.00    +0.000 N 
ATOM      5  C   UNL     1       1.360   4.428  20.269  0.00  0.00    +0.000 C 
ATOM      6  C   UNL     1       2.523   3.679  20.899  0.00  0.00    +0.000 C 
ATOM      7  C   UNL     1       3.660   3.522  19.889  0.00  0.00    +0.000 C 
ATOM      8  C   UNL     1       4.128   4.893  19.325  0.00  0.00    +0.000 C 
ATOM      9  C   UNL     1       2.895   5.651  18.786  0.00  0.00    +0.000 C 
ATOM     10  H   UNL     1       1.699   7.902  18.758  0.00  0.00    +0.000 HD
ENDROOT
BRANCH   1  11
ATOM     11  C   UNL     1       1.288   9.336  20.206  0.00  0.00    +0.000 C 
BRANCH  11  12
ATOM     12  C   UNL     1       1.463   9.466  21.744  0.00  0.00    +0.000 C 
BRANCH  12  14
ATOM     13  C   UNL     1      -0.428   9.823  23.240  0.00  0.00    +0.000 C 
ATOM     14  N   UNL     1       0.492  10.428  22.292  0.00  0.00    +0.000 NA
ATOM     15  H   UNL     1       0.952  11.226  22.721  0.00  0.00    +0.000 HD
ENDBRANCH  12  14
ENDBRANCH  11  12
BRANCH  11  16
ATOM     16  C   UNL     1      -0.121   9.701  19.681  0.00  0.00    +0.000 C 
BRANCH  16  17
ATOM     17  C   UNL     1      -0.279  10.471  18.345  0.00  0.00    +0.000 C 
ATOM     18  C   UNL     1      -1.302   9.893  17.358  0.00  0.00    +0.000 C 
ATOM     19  C   UNL     1      -2.743  10.008  17.852  0.00  0.00    +0.000 C 
ATOM     20  C   UNL     1      -3.110  11.448  18.199  0.00  0.00    +0.000 C 
ATOM     21  C   UNL     1      -2.102  12.090  19.148  0.00  0.00    +0.000 C 
ATOM     22  C   UNL     1      -0.668  11.942  18.637  0.00  0.00    +0.000 C 
ENDBRANCH  16  17
ENDBRANCH  11  16
ENDBRANCH   1  11
BRANCH   8  23
ATOM     23  C   UNL     1       5.248   4.745  18.233  0.00  0.00    +0.000 C 
BRANCH  23  24
ATOM     24  C   UNL     1       6.245   5.911  18.188  0.00  0.00    +0.000 A 
ATOM     25  C   UNL     1       7.379   5.907  19.019  0.00  0.00    +0.000 A 
ATOM     26  C   UNL     1       8.333   6.926  18.958  0.00  0.00    +0.000 A 
ATOM     27  C   UNL     1       8.179   7.968  18.052  0.00  0.00    +0.000 A 
ATOM     28  C   UNL     1       7.066   8.004  17.223  0.00  0.00    +0.000 A 
ATOM     29  C   UNL     1       6.106   6.994  17.300  0.00  0.00    +0.000 A 
ENDBRANCH  23  24
BRANCH  23  30
ATOM     30  O   UNL     1       6.026   3.585  18.607  0.00  0.00    +0.000 OA
ATOM     31  H   UNL     1       5.972   3.453  19.564  0.00  0.00    +0.000 HD
ENDBRANCH  23  30
BRANCH  23  32
ATOM     32  C   UNL     1       4.692   4.453  16.796  0.00  0.00    +0.000 C 
BRANCH  32  33
ATOM     33  C   UNL     1       5.594   3.754  15.763  0.00  0.00    +0.000 C 
BRANCH  33  34
ATOM     34  C   UNL     1       5.385   4.184  14.316  0.00  0.00    +0.000 C 
BRANCH  34  35
ATOM     35  C   UNL     1       6.560   3.822  13.420  0.00  0.00    +0.000 C 
BRANCH  35  36
ATOM     36  O   UNL     1       6.090   3.805  12.072  0.00  0.00    +0.000 OA
ATOM     37  C   UNL     1       5.415   2.595  11.765  0.00  0.00    +0.000 C 
ENDBRANCH  35  36
ENDBRANCH  34  35
ENDBRANCH  33  34
ENDBRANCH  32  33
ENDBRANCH  23  32
ENDBRANCH   8  23
TORSDOF 13
ENDMDL
MODEL 6
REMARK VINA RESULT:      -7.1      0.821      1.325
REMARK  Name = 
REMARK  15 active torsions:
REMARK  status: ('A' for Active; 'I' for Inactive)
REMARK    1  A    between atoms: C_1  and  N_2
REMARK    2  A    between atoms: N_2  and  C_3
REMARK    3  A    between atoms: C_3  and  C_4
REMARK    4  A    between atoms: C_4  and  C_5
REMARK    5  A    between atoms: C_4  and  N_12
REMARK    6  A    between atoms: C_5  and  C_6
REMARK    7  A    between atoms: C_19  and  C_20
REMARK    8  A    between atoms: C_20  and  O_21
REMARK    9  A    between atoms: C_20  and  C_22
REMARK   10  A    between atoms: C_20  and  C_28
REMARK   11  A    between atoms: C_22  and  C_23
REMARK   12  A    between atoms: C_23  and  C_24
REMARK   13  A    between atoms: C_24  and  C_25
REMARK   14  A    between atoms: C_25  and  O_26
REMARK   15  A    between atoms: O_26  and  C_27
REMARK                            x       y       z     vdW  Elec       q    Type
REMARK                         _______ _______ _______ _____ _____    ______ ____
ROOT
ATOM      1  N   UNL     1       2.249   7.416  18.718  0.00  0.00    +0.000 N 
ATOM      2  C   UNL     1       1.941   7.376  20.056  0.00  0.00    +0.000 C 
ATOM      3  O   UNL     1       2.058   6.362  20.736  0.00  0.00    +0.000 OA
ATOM      4  N   UNL     1       1.519   8.594  20.563  0.00  0.00    +0.000 N 
ATOM      5  C   UNL     1       1.302   8.722  21.995  0.00  0.00    +0.000 C 
ATOM      6  C   UNL     1      -0.181   8.896  22.279  0.00  0.00    +0.000 C 
ATOM      7  C   UNL     1      -0.727  10.106  21.520  0.00  0.00    +0.000 C 
ATOM      8  C   UNL     1      -0.469   9.994  19.991  0.00  0.00    +0.000 C 
ATOM      9  C   UNL     1       1.034   9.721  19.762  0.00  0.00    +0.000 C 
ATOM     10  H   UNL     1       2.706   8.280  18.487  0.00  0.00    +0.000 HD
ENDROOT
BRANCH   1  11
ATOM     11  C   UNL     1       2.810   6.256  18.027  0.00  0.00    +0.000 C 
BRANCH  11  12
ATOM     12  C   UNL     1       1.775   5.098  17.993  0.00  0.00    +0.000 C 
BRANCH  12  14
ATOM     13  C   UNL     1       1.912   2.673  18.198  0.00  0.00    +0.000 C 
ATOM     14  N   UNL     1       2.256   3.956  18.788  0.00  0.00    +0.000 NA
ATOM     15  H   UNL     1       3.258   4.002  18.948  0.00  0.00    +0.000 HD
ENDBRANCH  12  14
ENDBRANCH  11  12
BRANCH  11  16
ATOM     16  C   UNL     1       4.211   5.857  18.549  0.00  0.00    +0.000 C 
BRANCH  16  17
ATOM     17  C   UNL     1       5.296   5.353  17.562  0.00  0.00    +0.000 C 
ATOM     18  C   UNL     1       5.904   6.417  16.638  0.00  0.00    +0.000 C 
ATOM     19  C   UNL     1       6.747   7.449  17.386  0.00  0.00    +0.000 C 
ATOM     20  C   UNL     1       7.845   6.789  18.216  0.00  0.00    +0.000 C 
ATOM     21  C   UNL     1       7.303   5.692  19.126  0.00  0.00    +0.000 C 
ATOM     22  C   UNL     1       6.448   4.685  18.353  0.00  0.00    +0.000 C 
ENDBRANCH  16  17
ENDBRANCH  11  16
ENDBRANCH   1  11
BRANCH   8  23
ATOM     23  C   UNL     1      -0.961  11.260  19.202  0.00  0.00    +0.000 C 
BRANCH  23  24
ATOM     24  C   UNL     1      -1.984  10.961  18.097  0.00  0.00    +0.000 A 
ATOM     25  C   UNL     1      -3.201  11.664  18.049  0.00  0.00    +0.000 A 
ATOM     26  C   UNL     1      -4.124  11.454  17.022  0.00  0.00    +0.000 A 
ATOM     27  C   UNL     1      -3.845  10.541  16.013  0.00  0.00    +0.000 A 
ATOM     28  C   UNL     1      -2.656   9.826  16.037  0.00  0.00    +0.000 A 
ATOM     29  C   UNL     1      -1.743  10.026  17.073  0.00  0.00    +0.000 A 
ENDBRANCH  23  24
BRANCH  23  30
ATOM     30  O   UNL     1      -1.658  12.089  20.161  0.00  0.00    +0.000 OA
ATOM     31  H   UNL     1      -1.351  11.877  21.054  0.00  0.00    +0.000 HD
ENDBRANCH  23  30
BRANCH  23  32
ATOM     32  C   UNL     1       0.206  12.140  18.633  0.00  0.00    +0.000 C 
BRANCH  32  33
ATOM     33  C   UNL     1       0.002  13.657  18.473  0.00  0.00    +0.000 C 
BRANCH  33  34
ATOM     34  C   UNL     1       1.155  14.527  18.960  0.00  0.00    +0.000 C 
BRANCH  34  35
ATOM     35  C   UNL     1       2.219  13.730  19.700  0.00  0.00    +0.000 C 
BRANCH  35  36
ATOM     36  O   UNL     1       3.246  14.641  20.096  0.00  0.00    +0.000 OA
ATOM     37  C   UNL     1       3.836  14.264  21.331  0.00  0.00    +0.000 C 
ENDBRANCH  35  36
ENDBRANCH  34  35
ENDBRANCH  33  34
ENDBRANCH  32  33
ENDBRANCH  23  32
ENDBRANCH   8  23
TORSDOF 13
ENDMDL
MODEL 7
REMARK VINA RESULT:      -7.1      1.332      2.703
REMARK  Name = 
REMARK  15 active torsions:
REMARK  status: ('A' for Active; 'I' for Inactive)
REMARK    1  A    between atoms: C_1  and  N_2
REMARK    2  A    between atoms: N_2  and  C_3
REMARK    3  A    between atoms: C_3  and  C_4
REMARK    4  A    between atoms: C_4  and  C_5
REMARK    5  A    between atoms: C_4  and  N_12
REMARK    6  A    between atoms: C_5  and  C_6
REMARK    7  A    between atoms: C_19  and  C_20
REMARK    8  A    between atoms: C_20  and  O_21
REMARK    9  A    between atoms: C_20  and  C_22
REMARK   10  A    between atoms: C_20  and  C_28
REMARK   11  A    between atoms: C_22  and  C_23
REMARK   12  A    between atoms: C_23  and  C_24
REMARK   13  A    between atoms: C_24  and  C_25
REMARK   14  A    between atoms: C_25  and  O_26
REMARK   15  A    between atoms: O_26  and  C_27
REMARK                            x       y       z     vdW  Elec       q    Type
REMARK                         _______ _______ _______ _____ _____    ______ ____
ROOT
ATOM      1  N   UNL     1       2.273   7.691  19.162  0.00  0.00    +0.000 N 
ATOM      2  C   UNL     1       1.888   7.709  20.480  0.00  0.00    +0.000 C 
ATOM      3  O   UNL     1       2.012   6.741  21.223  0.00  0.00    +0.000 OA
ATOM      4  N   UNL     1       1.379   8.930  20.892  0.00  0.00    +0.000 N 
ATOM      5  C   UNL     1       1.071   9.124  22.299  0.00  0.00    +0.000 C 
ATOM      6  C   UNL     1      -0.433   9.239  22.488  0.00  0.00    +0.000 C 
ATOM      7  C   UNL     1      -0.988  10.377  21.631  0.00  0.00    +0.000 C 
ATOM      8  C   UNL     1      -0.634  10.195  20.128  0.00  0.00    +0.000 C 
ATOM      9  C   UNL     1       0.891   9.986  20.002  0.00  0.00    +0.000 C 
ATOM     10  H   UNL     1       2.702   8.564  18.908  0.00  0.00    +0.000 HD
ENDROOT
BRANCH   1  11
ATOM     11  C   UNL     1       2.928   6.526  18.571  0.00  0.00    +0.000 C 
BRANCH  11  12
ATOM     12  C   UNL     1       3.889   6.969  17.434  0.00  0.00    +0.000 C 
BRANCH  12  14
ATOM     13  C   UNL     1       5.403   5.422  16.312  0.00  0.00    +0.000 C 
ATOM     14  N   UNL     1       5.152   6.215  17.504  0.00  0.00    +0.000 NA
ATOM     15  H   UNL     1       5.945   6.824  17.685  0.00  0.00    +0.000 HD
ENDBRANCH  12  14
ENDBRANCH  11  12
BRANCH  11  16
ATOM     16  C   UNL     1       1.937   5.403  18.181  0.00  0.00    +0.000 C 
BRANCH  16  17
ATOM     17  C   UNL     1       1.684   4.217  19.147  0.00  0.00    +0.000 C 
ATOM     18  C   UNL     1       1.202   2.915  18.494  0.00  0.00    +0.000 C 
ATOM     19  C   UNL     1       2.261   2.259  17.611  0.00  0.00    +0.000 C 
ATOM     20  C   UNL     1       3.560   2.010  18.374  0.00  0.00    +0.000 C 
ATOM     21  C   UNL     1       4.066   3.264  19.080  0.00  0.00    +0.000 C 
ATOM     22  C   UNL     1       2.978   3.909  19.941  0.00  0.00    +0.000 C 
ENDBRANCH  16  17
ENDBRANCH  11  16
ENDBRANCH   1  11
BRANCH   8  23
ATOM     23  C   UNL     1      -1.137  11.391  19.241  0.00  0.00    +0.000 C 
BRANCH  23  24
ATOM     24  C   UNL     1      -2.076  10.981  18.099  0.00  0.00    +0.000 A 
ATOM     25  C   UNL     1      -3.341  11.583  17.971  0.00  0.00    +0.000 A 
ATOM     26  C   UNL     1      -4.193  11.272  16.908  0.00  0.00    +0.000 A 
ATOM     27  C   UNL     1      -3.792  10.358  15.942  0.00  0.00    +0.000 A 
ATOM     28  C   UNL     1      -2.553   9.741  16.045  0.00  0.00    +0.000 A 
ATOM     29  C   UNL     1      -1.712  10.041  17.117  0.00  0.00    +0.000 A 
ENDBRANCH  23  24
BRANCH  23  30
ATOM     30  O   UNL     1      -1.929  12.234  20.110  0.00  0.00    +0.000 OA
ATOM     31  H   UNL     1      -1.977  11.835  20.990  0.00  0.00    +0.000 HD
ENDBRANCH  23  30
BRANCH  23  32
ATOM     32  C   UNL     1       0.020  12.296  18.691  0.00  0.00    +0.000 C 
BRANCH  32  33
ATOM     33  C   UNL     1      -0.245  13.791  18.435  0.00  0.00    +0.000 C 
BRANCH  33  34
ATOM     34  C   UNL     1       0.465  14.751  19.381  0.00  0.00    +0.000 C 
BRANCH  34  35
ATOM     35  C   UNL     1      -0.499  15.506  20.285  0.00  0.00    +0.000 C 
BRANCH  35  36
ATOM     36  O   UNL     1      -0.952  14.598  21.290  0.00  0.00    +0.000 OA
ATOM     37  C   UNL     1       0.083  14.260  22.200  0.00  0.00    +0.000 C 
ENDBRANCH  35  36
ENDBRANCH  34  35
ENDBRANCH  33  34
ENDBRANCH  32  33
ENDBRANCH  23  32
ENDBRANCH   8  23
TORSDOF 13
ENDMDL
MODEL 8
REMARK VINA RESULT:      -7.1      1.325      3.768
REMARK  Name = 
REMARK  15 active torsions:
REMARK  status: ('A' for Active; 'I' for Inactive)
REMARK    1  A    between atoms: C_1  and  N_2
REMARK    2  A    between atoms: N_2  and  C_3
REMARK    3  A    between atoms: C_3  and  C_4
REMARK    4  A    between atoms: C_4  and  C_5
REMARK    5  A    between atoms: C_4  and  N_12
REMARK    6  A    between atoms: C_5  and  C_6
REMARK    7  A    between atoms: C_19  and  C_20
REMARK    8  A    between atoms: C_20  and  O_21
REMARK    9  A    between atoms: C_20  and  C_22
REMARK   10  A    between atoms: C_20  and  C_28
REMARK   11  A    between atoms: C_22  and  C_23
REMARK   12  A    between atoms: C_23  and  C_24
REMARK   13  A    between atoms: C_24  and  C_25
REMARK   14  A    between atoms: C_25  and  O_26
REMARK   15  A    between atoms: O_26  and  C_27
REMARK                            x       y       z     vdW  Elec       q    Type
REMARK                         _______ _______ _______ _____ _____    ______ ____
ROOT
ATOM      1  N   UNL     1       2.315   7.054  18.579  0.00  0.00    +0.000 N 
ATOM      2  C   UNL     1       2.010   7.100  19.917  0.00  0.00    +0.000 C 
ATOM      3  O   UNL     1       2.055   6.114  20.644  0.00  0.00    +0.000 OA
ATOM      4  N   UNL     1       1.679   8.368  20.366  0.00  0.00    +0.000 N 
ATOM      5  C   UNL     1       1.477   8.579  21.790  0.00  0.00    +0.000 C 
ATOM      6  C   UNL     1       0.011   8.874  22.066  0.00  0.00    +0.000 C 
ATOM      7  C   UNL     1      -0.447  10.083  21.251  0.00  0.00    +0.000 C 
ATOM      8  C   UNL     1      -0.203   9.881  19.729  0.00  0.00    +0.000 C 
ATOM      9  C   UNL     1       1.275   9.489  19.513  0.00  0.00    +0.000 C 
ATOM     10  H   UNL     1       2.834   7.872  18.307  0.00  0.00    +0.000 HD
ENDROOT
BRANCH   1  11
ATOM     11  C   UNL     1       2.788   5.826  17.943  0.00  0.00    +0.000 C 
BRANCH  11  12
ATOM     12  C   UNL     1       1.806   4.658  18.233  0.00  0.00    +0.000 C 
BRANCH  12  14
ATOM     13  C   UNL     1       2.261   2.264  18.279  0.00  0.00    +0.000 C 
ATOM     14  N   UNL     1       2.506   3.552  18.906  0.00  0.00    +0.000 NA
ATOM     15  H   UNL     1       3.507   3.720  18.966  0.00  0.00    +0.000 HD
ENDBRANCH  12  14
ENDBRANCH  11  12
BRANCH  11  16
ATOM     16  C   UNL     1       4.273   5.515  18.252  0.00  0.00    +0.000 C 
BRANCH  16  17
ATOM     17  C   UNL     1       5.394   6.407  17.661  0.00  0.00    +0.000 C 
ATOM     18  C   UNL     1       6.831   5.957  17.957  0.00  0.00    +0.000 C 
ATOM     19  C   UNL     1       7.203   4.646  17.266  0.00  0.00    +0.000 C 
ATOM     20  C   UNL     1       6.980   4.718  15.758  0.00  0.00    +0.000 C 
ATOM     21  C   UNL     1       5.577   5.201  15.403  0.00  0.00    +0.000 C 
ATOM     22  C   UNL     1       5.226   6.504  16.124  0.00  0.00    +0.000 C 
ENDBRANCH  16  17
ENDBRANCH  11  16
ENDBRANCH   1  11
BRANCH   8  23
ATOM     23  C   UNL     1      -0.604  11.141  18.881  0.00  0.00    +0.000 C 
BRANCH  23  24
ATOM     24  C   UNL     1       0.388  12.309  18.973  0.00  0.00    +0.000 A 
ATOM     25  C   UNL     1       0.123  13.399  19.821  0.00  0.00    +0.000 A 
ATOM     26  C   UNL     1       1.034  14.447  19.969  0.00  0.00    +0.000 A 
ATOM     27  C   UNL     1       2.240  14.421  19.279  0.00  0.00    +0.000 A 
ATOM     28  C   UNL     1       2.528  13.362  18.429  0.00  0.00    +0.000 A 
ATOM     29  C   UNL     1       1.607  12.326  18.271  0.00  0.00    +0.000 A 
ENDBRANCH  23  24
BRANCH  23  30
ATOM     30  O   UNL     1      -0.581  10.722  17.497  0.00  0.00    +0.000 OA
ATOM     31  H   UNL     1       0.235  10.233  17.321  0.00  0.00    +0.000 HD
ENDBRANCH  23  30
BRANCH  23  32
ATOM     32  C   UNL     1      -2.062  11.649  19.158  0.00  0.00    +0.000 C 
BRANCH  32  33
ATOM     33  C   UNL     1      -3.255  10.902  18.535  0.00  0.00    +0.000 C 
BRANCH  33  34
ATOM     34  C   UNL     1      -4.119  11.725  17.588  0.00  0.00    +0.000 C 
BRANCH  34  35
ATOM     35  C   UNL     1      -4.288  11.068  16.226  0.00  0.00    +0.000 C 
BRANCH  35  36
ATOM     36  O   UNL     1      -3.023  11.109  15.565  0.00  0.00    +0.000 OA
ATOM     37  C   UNL     1      -2.882  10.048  14.632  0.00  0.00    +0.000 C 
ENDBRANCH  35  36
ENDBRANCH  34  35
ENDBRANCH  33  34
ENDBRANCH  32  33
ENDBRANCH  23  32
ENDBRANCH   8  23
TORSDOF 13
ENDMDL
MODEL 9
REMARK VINA RESULT:      -7.1      1.314      2.949
REMARK  Name = 
REMARK  15 active torsions:
REMARK  status: ('A' for Active; 'I' for Inactive)
REMARK    1  A    between atoms: C_1  and  N_2
REMARK    2  A    between atoms: N_2  and  C_3
REMARK    3  A    between atoms: C_3  and  C_4
REMARK    4  A    between atoms: C_4  and  C_5
REMARK    5  A    between atoms: C_4  and  N_12
REMARK    6  A    between atoms: C_5  and  C_6
REMARK    7  A    between atoms: C_19  and  C_20
REMARK    8  A    between atoms: C_20  and  O_21
REMARK    9  A    between atoms: C_20  and  C_22
REMARK   10  A    between atoms: C_20  and  C_28
REMARK   11  A    between atoms: C_22  and  C_23
REMARK   12  A    between atoms: C_23  and  C_24
REMARK   13  A    between atoms: C_24  and  C_25
REMARK   14  A    between atoms: C_25  and  O_26
REMARK   15  A    between atoms: O_26  and  C_27
REMARK                            x       y       z     vdW  Elec       q    Type
REMARK                         _______ _______ _______ _____ _____    ______ ____
ROOT
ATOM      1  N   UNL     1       2.290   7.319  18.946  0.00  0.00    +0.000 N 
ATOM      2  C   UNL     1       1.917   7.328  20.269  0.00  0.00    +0.000 C 
ATOM      3  O   UNL     1       1.960   6.329  20.979  0.00  0.00    +0.000 OA
ATOM      4  N   UNL     1       1.522   8.575  20.723  0.00  0.00    +0.000 N 
ATOM      5  C   UNL     1       1.242   8.751  22.139  0.00  0.00    +0.000 C 
ATOM      6  C   UNL     1      -0.244   8.992  22.346  0.00  0.00    +0.000 C 
ATOM      7  C   UNL     1      -0.702  10.201  21.530  0.00  0.00    +0.000 C 
ATOM      8  C   UNL     1      -0.377  10.037  20.019  0.00  0.00    +0.000 C 
ATOM      9  C   UNL     1       1.123   9.699  19.872  0.00  0.00    +0.000 C 
ATOM     10  H   UNL     1       2.793   8.158  18.716  0.00  0.00    +0.000 HD
ENDROOT
BRANCH   1  11
ATOM     11  C   UNL     1       2.836   6.119  18.313  0.00  0.00    +0.000 C 
BRANCH  11  12
ATOM     12  C   UNL     1       3.831   6.512  17.187  0.00  0.00    +0.000 C 
BRANCH  12  14
ATOM     13  C   UNL     1       6.249   6.453  16.882  0.00  0.00    +0.000 C 
ATOM     14  N   UNL     1       5.151   6.831  17.756  0.00  0.00    +0.000 NA
ATOM     15  H   UNL     1       5.229   7.814  18.000  0.00  0.00    +0.000 HD
ENDBRANCH  12  14
ENDBRANCH  11  12
BRANCH  11  16
ATOM     16  C   UNL     1       1.745   5.106  17.889  0.00  0.00    +0.000 C 
BRANCH  16  17
ATOM     17  C   UNL     1       2.058   3.588  17.868  0.00  0.00    +0.000 C 
ATOM     18  C   UNL     1       3.408   3.176  18.470  0.00  0.00    +0.000 C 
ATOM     19  C   UNL     1       3.482   3.396  19.980  0.00  0.00    +0.000 C 
ATOM     20  C   UNL     1       2.345   2.687  20.712  0.00  0.00    +0.000 C 
ATOM     21  C   UNL     1       0.978   3.028  20.128  0.00  0.00    +0.000 C 
ATOM     22  C   UNL     1       0.941   2.817  18.613  0.00  0.00    +0.000 C 
ENDBRANCH  16  17
ENDBRANCH  11  16
ENDBRANCH   1  11
BRANCH   8  23
ATOM     23  C   UNL     1      -0.778  11.300  19.175  0.00  0.00    +0.000 C 
BRANCH  23  24
ATOM     24  C   UNL     1      -1.809  11.024  18.072  0.00  0.00    +0.000 A 
ATOM     25  C   UNL     1      -1.581  10.007  17.128  0.00  0.00    +0.000 A 
ATOM     26  C   UNL     1      -2.527   9.695  16.149  0.00  0.00    +0.000 A 
ATOM     27  C   UNL     1      -3.730  10.387  16.100  0.00  0.00    +0.000 A 
ATOM     28  C   UNL     1      -3.981  11.402  17.014  0.00  0.00    +0.000 A 
ATOM     29  C   UNL     1      -3.026  11.723  17.979  0.00  0.00    +0.000 A 
ENDBRANCH  23  24
BRANCH  23  30
ATOM     30  O   UNL     1      -1.427  12.211  20.093  0.00  0.00    +0.000 OA
ATOM     31  H   UNL     1      -1.210  13.122  19.852  0.00  0.00    +0.000 HD
ENDBRANCH  23  30
BRANCH  23  32
ATOM     32  C   UNL     1       0.449  12.079  18.585  0.00  0.00    +0.000 C 
BRANCH  32  33
ATOM     33  C   UNL     1       0.976  13.327  19.314  0.00  0.00    +0.000 C 
BRANCH  33  34
ATOM     34  C   UNL     1       1.871  13.052  20.516  0.00  0.00    +0.000 C 
BRANCH  34  35
ATOM     35  C   UNL     1       3.077  13.979  20.575  0.00  0.00    +0.000 C 
BRANCH  35  36
ATOM     36  O   UNL     1       3.697  13.804  21.849  0.00  0.00    +0.000 OA
ATOM     37  C   UNL     1       3.993  15.047  22.467  0.00  0.00    +0.000 C 
ENDBRANCH  35  36
ENDBRANCH  34  35
ENDBRANCH  33  34
ENDBRANCH  32  33
ENDBRANCH  23  32
ENDBRANCH   8  23
TORSDOF 13
ENDMDL
