MODEL 1
REMARK VINA RESULT:      -8.8      0.000      0.000
REMARK  Name = 
REMARK  10 active torsions:
REMARK  status: ('A' for Active; 'I' for Inactive)
REMARK    1  A    between atoms: C_1  and  N_2
REMARK    2  A    between atoms: N_2  and  C_3
REMARK    3  A    between atoms: C_3  and  C_4
REMARK    4  A    between atoms: C_4  and  O_5
REMARK    5  A    between atoms: O_5  and  C_6
REMARK    6  A    between atoms: C_10  and  C_11
REMARK    7  A    between atoms: C_15  and  C_17
REMARK    8  A    between atoms: C_20  and  C_21
REMARK    9  A    between atoms: C_26  and  S_27
REMARK   10  A    between atoms: S_27  and  N_28
REMARK                            x       y       z     vdW  Elec       q    Type
REMARK                         _______ _______ _______ _____ _____    ______ ____
ROOT
ATOM      1  C   UNL     1      -1.124  11.888  20.126  0.00  0.00    +0.000 C 
ATOM      2  N   UNL     1      -0.507  10.766  19.430  0.00  0.00    +0.000 N 
ATOM      3  C   UNL     1       0.633  10.240  20.059  0.00  0.00    +0.000 C 
ATOM      4  O   UNL     1       1.026  10.667  21.146  0.00  0.00    +0.000 OA
ENDROOT
BRANCH   3   5
ATOM      5  C   UNL     1       1.392   9.106  19.464  0.00  0.00    +0.000 A 
ATOM      6  C   UNL     1       1.645   7.904  20.115  0.00  0.00    +0.000 A 
ATOM      7  C   UNL     1       2.497   6.954  19.549  0.00  0.00    +0.000 A 
ATOM      8  C   UNL     1       2.991   7.081  18.237  0.00  0.00    +0.000 A 
ATOM      9  C   UNL     1       2.523   8.192  17.528  0.00  0.00    +0.000 A 
ATOM     10  C   UNL     1       1.813   9.229  18.143  0.00  0.00    +0.000 A 
BRANCH   8  11
ATOM     11  C   UNL     1       3.901   6.049  17.657  0.00  0.00    +0.000 A 
ATOM     12  C   UNL     1       5.198   6.480  17.260  0.00  0.00    +0.000 A 
ATOM     13  C   UNL     1       6.135   5.639  16.652  0.00  0.00    +0.000 A 
ATOM     14  C   UNL     1       5.828   4.309  16.445  0.00  0.00    +0.000 A 
ATOM     15  C   UNL     1       4.583   3.832  16.836  0.00  0.00    +0.000 A 
ATOM     16  C   UNL     1       3.619   4.680  17.431  0.00  0.00    +0.000 A 
BRANCH  16  17
ATOM     17  S   UNL     1       2.053   3.874  17.747  0.00  0.00    +0.000 S 
ATOM     18  O   UNL     1       0.945   4.690  17.319  0.00  0.00    +0.000 OA
ATOM     19  O   UNL     1       2.147   2.485  17.346  0.00  0.00    +0.000 OA
BRANCH  17  20
ATOM     20  N   UNL     1       2.022   3.810  19.433  0.00  0.00    +0.000 NA
ATOM     21  H   UNL     1       1.321   4.450  19.809  0.00  0.00    +0.000 HD
ATOM     22  H   UNL     1       1.883   2.846  19.739  0.00  0.00    +0.000 HD
ENDBRANCH  17  20
ENDBRANCH  16  17
ENDBRANCH   8  11
ENDBRANCH   3   5
BRANCH   2  23
ATOM     23  C   UNL     1      -1.132  10.181  18.231  0.00  0.00    +0.000 C 
BRANCH  23  24
ATOM     24  C   UNL     1      -2.037  11.047  17.364  0.00  0.00    +0.000 C 
BRANCH  24  25
ATOM     25  O   UNL     1      -3.185  10.260  17.022  0.00  0.00    +0.000 OA
BRANCH  25  26
ATOM     26  C   UNL     1      -4.388  10.711  17.471  0.00  0.00    +0.000 A 
ATOM     27  C   UNL     1      -4.849  11.878  16.857  0.00  0.00    +0.000 A 
ATOM     28  C   UNL     1      -6.076  12.432  17.223  0.00  0.00    +0.000 A 
ATOM     29  C   UNL     1      -6.851  11.812  18.205  0.00  0.00    +0.000 A 
ATOM     30  C   UNL     1      -6.394  10.640  18.820  0.00  0.00    +0.000 A 
ATOM     31  C   UNL     1      -5.162  10.093  18.449  0.00  0.00    +0.000 A 
BRANCH  30  32
ATOM     32  C   UNL     1      -7.186   9.953  19.872  0.00  0.00    +0.000 C 
ATOM     33  N   UNL     1      -7.507  10.515  20.992  0.00  0.00    +0.000 NA
ATOM     34  N   UNL     1      -7.618   8.672  19.682  0.00  0.00    +0.000 N 
ATOM     35  H   UNL     1      -7.194  11.490  21.030  0.00  0.00    +0.000 HD
ATOM     36  H   UNL     1      -6.982   8.051  19.196  0.00  0.00    +0.000 HD
ATOM     37  H   UNL     1      -7.963   8.275  20.551  0.00  0.00    +0.000 HD
ENDBRANCH  30  32
ENDBRANCH  25  26
ENDBRANCH  24  25
ENDBRANCH  23  24
ENDBRANCH   2  23
TORSDOF 9
ENDMDL
MODEL 2
REMARK VINA RESULT:      -8.5      2.344      2.919
REMARK  Name = 
REMARK  10 active torsions:
REMARK  status: ('A' for Active; 'I' for Inactive)
REMARK    1  A    between atoms: C_1  and  N_2
REMARK    2  A    between atoms: N_2  and  C_3
REMARK    3  A    between atoms: C_3  and  C_4
REMARK    4  A    between atoms: C_4  and  O_5
REMARK    5  A    between atoms: O_5  and  C_6
REMARK    6  A    between atoms: C_10  and  C_11
REMARK    7  A    between atoms: C_15  and  C_17
REMARK    8  A    between atoms: C_20  and  C_21
REMARK    9  A    between atoms: C_26  and  S_27
REMARK   10  A    between atoms: S_27  and  N_28
REMARK                            x       y       z     vdW  Elec       q    Type
REMARK                         _______ _______ _______ _____ _____    ______ ____
ROOT
ATOM      1  C   UNL     1      -0.222  12.121  20.458  0.00  0.00    +0.000 C 
ATOM      2  N   UNL     1       0.179  10.877  19.813  0.00  0.00    +0.000 N 
ATOM      3  C   UNL     1       0.926  10.008  20.624  0.00  0.00    +0.000 C 
ATOM      4  O   UNL     1       1.160  10.268  21.806  0.00  0.00    +0.000 OA
ENDROOT
BRANCH   3   5
ATOM      5  C   UNL     1       1.430   8.707  20.105  0.00  0.00    +0.000 A 
ATOM      6  C   UNL     1       2.001   8.532  18.850  0.00  0.00    +0.000 A 
ATOM      7  C   UNL     1       2.303   7.252  18.378  0.00  0.00    +0.000 A 
ATOM      8  C   UNL     1       2.214   6.113  19.199  0.00  0.00    +0.000 A 
ATOM      9  C   UNL     1       1.860   6.362  20.530  0.00  0.00    +0.000 A 
ATOM     10  C   UNL     1       1.392   7.609  20.960  0.00  0.00    +0.000 A 
BRANCH   8  11
ATOM     11  C   UNL     1       2.544   4.757  18.669  0.00  0.00    +0.000 A 
ATOM     12  C   UNL     1       1.477   3.818  18.586  0.00  0.00    +0.000 A 
ATOM     13  C   UNL     1       1.647   2.497  18.160  0.00  0.00    +0.000 A 
ATOM     14  C   UNL     1       2.895   2.062  17.762  0.00  0.00    +0.000 A 
ATOM     15  C   UNL     1       3.966   2.946  17.802  0.00  0.00    +0.000 A 
ATOM     16  C   UNL     1       3.809   4.278  18.251  0.00  0.00    +0.000 A 
BRANCH  16  17
ATOM     17  S   UNL     1       5.343   5.196  18.322  0.00  0.00    +0.000 S 
ATOM     18  O   UNL     1       5.422   6.174  17.266  0.00  0.00    +0.000 OA
ATOM     19  O   UNL     1       5.607   5.570  19.697  0.00  0.00    +0.000 OA
BRANCH  17  20
ATOM     20  N   UNL     1       6.488   3.999  17.999  0.00  0.00    +0.000 NA
ATOM     21  H   UNL     1       7.348   4.407  17.634  0.00  0.00    +0.000 HD
ATOM     22  H   UNL     1       6.640   3.433  18.835  0.00  0.00    +0.000 HD
ENDBRANCH  17  20
ENDBRANCH  16  17
ENDBRANCH   8  11
ENDBRANCH   3   5
BRANCH   2  23
ATOM     23  C   UNL     1      -0.289  10.543  18.456  0.00  0.00    +0.000 C 
BRANCH  23  24
ATOM     24  C   UNL     1      -1.761  10.217  18.234  0.00  0.00    +0.000 C 
BRANCH  24  25
ATOM     25  O   UNL     1      -2.397  11.409  17.756  0.00  0.00    +0.000 OA
BRANCH  25  26
ATOM     26  C   UNL     1      -3.645  11.666  18.235  0.00  0.00    +0.000 A 
ATOM     27  C   UNL     1      -4.682  11.454  17.325  0.00  0.00    +0.000 A 
ATOM     28  C   UNL     1      -6.009  11.670  17.701  0.00  0.00    +0.000 A 
ATOM     29  C   UNL     1      -6.300  12.097  18.998  0.00  0.00    +0.000 A 
ATOM     30  C   UNL     1      -5.263  12.307  19.915  0.00  0.00    +0.000 A 
ATOM     31  C   UNL     1      -3.937  12.089  19.528  0.00  0.00    +0.000 A 
BRANCH  30  32
ATOM     32  C   UNL     1      -5.531  12.765  21.302  0.00  0.00    +0.000 C 
ATOM     33  N   UNL     1      -6.433  12.229  22.059  0.00  0.00    +0.000 NA
ATOM     34  N   UNL     1      -4.808  13.791  21.839  0.00  0.00    +0.000 N 
ATOM     35  H   UNL     1      -6.888  11.433  21.602  0.00  0.00    +0.000 HD
ATOM     36  H   UNL     1      -4.569  14.549  21.210  0.00  0.00    +0.000 HD
ATOM     37  H   UNL     1      -5.234  14.118  22.701  0.00  0.00    +0.000 HD
ENDBRANCH  30  32
ENDBRANCH  25  26
ENDBRANCH  24  25
ENDBRANCH  23  24
ENDBRANCH   2  23
TORSDOF 9
ENDMDL
MODEL 3
REMARK VINA RESULT:      -8.4      1.678      2.523
REMARK  Name = 
REMARK  10 active torsions:
REMARK  status: ('A' for Active; 'I' for Inactive)
REMARK    1  A    between atoms: C_1  and  N_2
REMARK    2  A    between atoms: N_2  and  C_3
REMARK    3  A    between atoms: C_3  and  C_4
REMARK    4  A    between atoms: C_4  and  O_5
REMARK    5  A    between atoms: O_5  and  C_6
REMARK    6  A    between atoms: C_10  and  C_11
REMARK    7  A    between atoms: C_15  and  C_17
REMARK    8  A    between atoms: C_20  and  C_21
REMARK    9  A    between atoms: C_26  and  S_27
REMARK   10  A    between atoms: S_27  and  N_28
REMARK                            x       y       z     vdW  Elec       q    Type
REMARK                         _______ _______ _______ _____ _____    ______ ____
ROOT
ATOM      1  C   UNL     1      -0.872  10.773  22.324  0.00  0.00    +0.000 C 
ATOM      2  N   UNL     1       0.130  10.287  21.384  0.00  0.00    +0.000 N 
ATOM      3  C   UNL     1       0.157   8.893  21.222  0.00  0.00    +0.000 C 
ATOM      4  O   UNL     1      -0.655   8.161  21.790  0.00  0.00    +0.000 OA
ENDROOT
BRANCH   3   5
ATOM      5  C   UNL     1       1.138   8.238  20.314  0.00  0.00    +0.000 A 
ATOM      6  C   UNL     1       1.496   8.727  19.062  0.00  0.00    +0.000 A 
ATOM      7  C   UNL     1       2.302   7.972  18.207  0.00  0.00    +0.000 A 
ATOM      8  C   UNL     1       2.930   6.785  18.628  0.00  0.00    +0.000 A 
ATOM      9  C   UNL     1       2.733   6.448  19.971  0.00  0.00    +0.000 A 
ATOM     10  C   UNL     1       1.794   7.101  20.778  0.00  0.00    +0.000 A 
BRANCH   8  11
ATOM     11  C   UNL     1       3.787   5.998  17.692  0.00  0.00    +0.000 A 
ATOM     12  C   UNL     1       4.900   6.670  17.114  0.00  0.00    +0.000 A 
ATOM     13  C   UNL     1       5.757   6.077  16.182  0.00  0.00    +0.000 A 
ATOM     14  C   UNL     1       5.558   4.763  15.809  0.00  0.00    +0.000 A 
ATOM     15  C   UNL     1       4.499   4.055  16.362  0.00  0.00    +0.000 A 
ATOM     16  C   UNL     1       3.613   4.651  17.290  0.00  0.00    +0.000 A 
BRANCH  16  17
ATOM     17  S   UNL     1       2.263   3.585  17.780  0.00  0.00    +0.000 S 
ATOM     18  O   UNL     1       0.998   4.274  17.718  0.00  0.00    +0.000 OA
ATOM     19  O   UNL     1       2.431   2.291  17.150  0.00  0.00    +0.000 OA
BRANCH  17  20
ATOM     20  N   UNL     1       2.611   3.296  19.406  0.00  0.00    +0.000 NA
ATOM     21  H   UNL     1       1.962   2.617  19.801  0.00  0.00    +0.000 HD
ATOM     22  H   UNL     1       3.588   3.016  19.504  0.00  0.00    +0.000 HD
ENDBRANCH  17  20
ENDBRANCH  16  17
ENDBRANCH   8  11
ENDBRANCH   3   5
BRANCH   2  23
ATOM     23  C   UNL     1       0.947  11.226  20.595  0.00  0.00    +0.000 C 
BRANCH  23  24
ATOM     24  C   UNL     1       0.260  12.175  19.621  0.00  0.00    +0.000 C 
BRANCH  24  25
ATOM     25  O   UNL     1      -0.124  11.408  18.473  0.00  0.00    +0.000 OA
BRANCH  25  26
ATOM     26  C   UNL     1      -1.459  11.206  18.296  0.00  0.00    +0.000 A 
ATOM     27  C   UNL     1      -1.788  10.202  17.383  0.00  0.00    +0.000 A 
ATOM     28  C   UNL     1      -3.124   9.891  17.124  0.00  0.00    +0.000 A 
ATOM     29  C   UNL     1      -4.137  10.586  17.787  0.00  0.00    +0.000 A 
ATOM     30  C   UNL     1      -3.811  11.590  18.707  0.00  0.00    +0.000 A 
ATOM     31  C   UNL     1      -2.470  11.896  18.958  0.00  0.00    +0.000 A 
BRANCH  30  32
ATOM     32  C   UNL     1      -4.859  12.355  19.429  0.00  0.00    +0.000 C 
ATOM     33  N   UNL     1      -5.920  11.802  19.923  0.00  0.00    +0.000 NA
ATOM     34  N   UNL     1      -4.729  13.702  19.605  0.00  0.00    +0.000 N 
ATOM     35  H   UNL     1      -5.912  10.786  19.797  0.00  0.00    +0.000 HD
ATOM     36  H   UNL     1      -4.322  14.218  18.834  0.00  0.00    +0.000 HD
ATOM     37  H   UNL     1      -5.602  14.109  19.930  0.00  0.00    +0.000 HD
ENDBRANCH  30  32
ENDBRANCH  25  26
ENDBRANCH  24  25
ENDBRANCH  23  24
ENDBRANCH   2  23
TORSDOF 9
ENDMDL
MODEL 4
REMARK VINA RESULT:      -8.2      1.759      2.238
REMARK  Name = 
REMARK  10 active torsions:
REMARK  status: ('A' for Active; 'I' for Inactive)
REMARK    1  A    between atoms: C_1  and  N_2
REMARK    2  A    between atoms: N_2  and  C_3
REMARK    3  A    between atoms: C_3  and  C_4
REMARK    4  A    between atoms: C_4  and  O_5
REMARK    5  A    between atoms: O_5  and  C_6
REMARK    6  A    between atoms: C_10  and  C_11
REMARK    7  A    between atoms: C_15  and  C_17
REMARK    8  A    between atoms: C_20  and  C_21
REMARK    9  A    between atoms: C_26  and  S_27
REMARK   10  A    between atoms: S_27  and  N_28
REMARK                            x       y       z     vdW  Elec       q    Type
REMARK                         _______ _______ _______ _____ _____    ______ ____
ROOT
ATOM      1  C   UNL     1      -1.551  12.026  20.443  0.00  0.00    +0.000 C 
ATOM      2  N   UNL     1      -0.868  10.987  19.683  0.00  0.00    +0.000 N 
ATOM      3  C   UNL     1       0.167  10.338  20.374  0.00  0.00    +0.000 C 
ATOM      4  O   UNL     1       0.421  10.598  21.552  0.00  0.00    +0.000 OA
ENDROOT
BRANCH   3   5
ATOM      5  C   UNL     1       0.976   9.267  19.729  0.00  0.00    +0.000 A 
ATOM      6  C   UNL     1       1.398   8.109  20.372  0.00  0.00    +0.000 A 
ATOM      7  C   UNL     1       2.285   7.230  19.745  0.00  0.00    +0.000 A 
ATOM      8  C   UNL     1       2.648   7.374  18.393  0.00  0.00    +0.000 A 
ATOM      9  C   UNL     1       2.017   8.421  17.713  0.00  0.00    +0.000 A 
ATOM     10  C   UNL     1       1.267   9.401  18.375  0.00  0.00    +0.000 A 
BRANCH   8  11
ATOM     11  C   UNL     1       3.599   6.420  17.748  0.00  0.00    +0.000 A 
ATOM     12  C   UNL     1       4.812   6.961  17.238  0.00  0.00    +0.000 A 
ATOM     13  C   UNL     1       5.769   6.198  16.562  0.00  0.00    +0.000 A 
ATOM     14  C   UNL     1       5.571   4.842  16.396  0.00  0.00    +0.000 A 
ATOM     15  C   UNL     1       4.413   4.260  16.896  0.00  0.00    +0.000 A 
ATOM     16  C   UNL     1       3.428   5.027  17.563  0.00  0.00    +0.000 A 
BRANCH  16  17
ATOM     17  S   UNL     1       1.976   4.087  18.020  0.00  0.00    +0.000 S 
ATOM     18  O   UNL     1       1.851   3.972  19.451  0.00  0.00    +0.000 OA
ATOM     19  O   UNL     1       0.855   4.526  17.212  0.00  0.00    +0.000 OA
BRANCH  17  20
ATOM     20  N   UNL     1       2.339   2.555  17.412  0.00  0.00    +0.000 NA
ATOM     21  H   UNL     1       2.471   1.885  18.170  0.00  0.00    +0.000 HD
ATOM     22  H   UNL     1       1.619   2.268  16.748  0.00  0.00    +0.000 HD
ENDBRANCH  17  20
ENDBRANCH  16  17
ENDBRANCH   8  11
ENDBRANCH   3   5
BRANCH   2  23
ATOM     23  C   UNL     1      -1.340  10.594  18.344  0.00  0.00    +0.000 C 
BRANCH  23  24
ATOM     24  C   UNL     1      -2.634   9.800  18.212  0.00  0.00    +0.000 C 
BRANCH  24  25
ATOM     25  O   UNL     1      -3.399  10.399  17.158  0.00  0.00    +0.000 OA
BRANCH  25  26
ATOM     26  C   UNL     1      -4.581  10.972  17.515  0.00  0.00    +0.000 A 
ATOM     27  C   UNL     1      -5.374  10.208  18.373  0.00  0.00    +0.000 A 
ATOM     28  C   UNL     1      -6.603  10.692  18.821  0.00  0.00    +0.000 A 
ATOM     29  C   UNL     1      -7.041  11.953  18.411  0.00  0.00    +0.000 A 
ATOM     30  C   UNL     1      -6.248  12.725  17.554  0.00  0.00    +0.000 A 
ATOM     31  C   UNL     1      -5.018  12.230  17.109  0.00  0.00    +0.000 A 
BRANCH  30  32
ATOM     32  C   UNL     1      -6.680  14.069  17.092  0.00  0.00    +0.000 C 
ATOM     33  N   UNL     1      -7.290  14.264  15.968  0.00  0.00    +0.000 NA
ATOM     34  N   UNL     1      -6.445  15.170  17.864  0.00  0.00    +0.000 N 
ATOM     35  H   UNL     1      -7.476  13.383  15.479  0.00  0.00    +0.000 HD
ATOM     36  H   UNL     1      -5.566  15.187  18.366  0.00  0.00    +0.000 HD
ATOM     37  H   UNL     1      -6.611  16.021  17.336  0.00  0.00    +0.000 HD
ENDBRANCH  30  32
ENDBRANCH  25  26
ENDBRANCH  24  25
ENDBRANCH  23  24
ENDBRANCH   2  23
TORSDOF 9
ENDMDL
MODEL 5
REMARK VINA RESULT:      -8.0      2.537      3.026
REMARK  Name = 
REMARK  10 active torsions:
REMARK  status: ('A' for Active; 'I' for Inactive)
REMARK    1  A    between atoms: C_1  and  N_2
REMARK    2  A    between atoms: N_2  and  C_3
REMARK    3  A    between atoms: C_3  and  C_4
REMARK    4  A    between atoms: C_4  and  O_5
REMARK    5  A    between atoms: O_5  and  C_6
REMARK    6  A    between atoms: C_10  and  C_11
REMARK    7  A    between atoms: C_15  and  C_17
REMARK    8  A    between atoms: C_20  and  C_21
REMARK    9  A    between atoms: C_26  and  S_27
REMARK   10  A    between atoms: S_27  and  N_28
REMARK                            x       y       z     vdW  Elec       q    Type
REMARK                         _______ _______ _______ _____ _____    ______ ____
ROOT
ATOM      1  C   UNL     1       0.231  11.694  21.394  0.00  0.00    +0.000 C 
ATOM      2  N   UNL     1       0.408  10.466  20.629  0.00  0.00    +0.000 N 
ATOM      3  C   UNL     1       1.195   9.489  21.260  0.00  0.00    +0.000 C 
ATOM      4  O   UNL     1       1.638   9.653  22.398  0.00  0.00    +0.000 OA
ENDROOT
BRANCH   3   5
ATOM      5  C   UNL     1       1.489   8.188  20.601  0.00  0.00    +0.000 A 
ATOM      6  C   UNL     1       1.207   6.945  21.158  0.00  0.00    +0.000 A 
ATOM      7  C   UNL     1       1.657   5.773  20.546  0.00  0.00    +0.000 A 
ATOM      8  C   UNL     1       2.249   5.776  19.270  0.00  0.00    +0.000 A 
ATOM      9  C   UNL     1       2.303   7.024  18.639  0.00  0.00    +0.000 A 
ATOM     10  C   UNL     1       2.014   8.217  19.312  0.00  0.00    +0.000 A 
BRANCH   8  11
ATOM     11  C   UNL     1       2.721   4.507  18.639  0.00  0.00    +0.000 A 
ATOM     12  C   UNL     1       1.757   3.476  18.462  0.00  0.00    +0.000 A 
ATOM     13  C   UNL     1       2.066   2.217  17.937  0.00  0.00    +0.000 A 
ATOM     14  C   UNL     1       3.356   1.944  17.529  0.00  0.00    +0.000 A 
ATOM     15  C   UNL     1       4.330   2.926  17.659  0.00  0.00    +0.000 A 
ATOM     16  C   UNL     1       4.033   4.195  18.210  0.00  0.00    +0.000 A 
BRANCH  16  17
ATOM     17  S   UNL     1       5.465   5.254  18.382  0.00  0.00    +0.000 S 
ATOM     18  O   UNL     1       5.455   6.316  17.407  0.00  0.00    +0.000 OA
ATOM     19  O   UNL     1       5.672   5.542  19.787  0.00  0.00    +0.000 OA
BRANCH  17  20
ATOM     20  N   UNL     1       6.729   4.208  17.989  0.00  0.00    +0.000 NA
ATOM     21  H   UNL     1       6.573   3.282  18.389  0.00  0.00    +0.000 HD
ATOM     22  H   UNL     1       6.858   4.187  16.977  0.00  0.00    +0.000 HD
ENDBRANCH  17  20
ENDBRANCH  16  17
ENDBRANCH   8  11
ENDBRANCH   3   5
BRANCH   2  23
ATOM     23  C   UNL     1      -0.301  10.258  19.354  0.00  0.00    +0.000 C 
BRANCH  23  24
ATOM     24  C   UNL     1      -0.714  11.467  18.525  0.00  0.00    +0.000 C 
BRANCH  24  25
ATOM     25  O   UNL     1      -1.842  11.079  17.732  0.00  0.00    +0.000 OA
BRANCH  25  26
ATOM     26  C   UNL     1      -3.072  11.372  18.238  0.00  0.00    +0.000 A 
ATOM     27  C   UNL     1      -4.149  10.889  17.492  0.00  0.00    +0.000 A 
ATOM     28  C   UNL     1      -5.460  11.113  17.915  0.00  0.00    +0.000 A 
ATOM     29  C   UNL     1      -5.694  11.821  19.095  0.00  0.00    +0.000 A 
ATOM     30  C   UNL     1      -4.617  12.303  19.849  0.00  0.00    +0.000 A 
ATOM     31  C   UNL     1      -3.307  12.075  19.416  0.00  0.00    +0.000 A 
BRANCH  30  32
ATOM     32  C   UNL     1      -4.825  13.064  21.107  0.00  0.00    +0.000 C 
ATOM     33  N   UNL     1      -5.336  12.537  22.173  0.00  0.00    +0.000 NA
ATOM     34  N   UNL     1      -4.469  14.379  21.182  0.00  0.00    +0.000 N 
ATOM     35  H   UNL     1      -5.523  11.537  22.050  0.00  0.00    +0.000 HD
ATOM     36  H   UNL     1      -4.628  14.936  20.351  0.00  0.00    +0.000 HD
ATOM     37  H   UNL     1      -4.851  14.808  22.020  0.00  0.00    +0.000 HD
ENDBRANCH  30  32
ENDBRANCH  25  26
ENDBRANCH  24  25
ENDBRANCH  23  24
ENDBRANCH   2  23
TORSDOF 9
ENDMDL
MODEL 6
REMARK VINA RESULT:      -8.0      1.594      2.041
REMARK  Name = 
REMARK  10 active torsions:
REMARK  status: ('A' for Active; 'I' for Inactive)
REMARK    1  A    between atoms: C_1  and  N_2
REMARK    2  A    between atoms: N_2  and  C_3
REMARK    3  A    between atoms: C_3  and  C_4
REMARK    4  A    between atoms: C_4  and  O_5
REMARK    5  A    between atoms: O_5  and  C_6
REMARK    6  A    between atoms: C_10  and  C_11
REMARK    7  A    between atoms: C_15  and  C_17
REMARK    8  A    between atoms: C_20  and  C_21
REMARK    9  A    between atoms: C_26  and  S_27
REMARK   10  A    between atoms: S_27  and  N_28
REMARK                            x       y       z     vdW  Elec       q    Type
REMARK                         _______ _______ _______ _____ _____    ______ ____
ROOT
ATOM      1  C   UNL     1      -1.065  11.208  21.617  0.00  0.00    +0.000 C 
ATOM      2  N   UNL     1      -0.201  10.548  20.646  0.00  0.00    +0.000 N 
ATOM      3  C   UNL     1       0.321   9.314  21.067  0.00  0.00    +0.000 C 
ATOM      4  O   UNL     1       0.010   8.816  22.150  0.00  0.00    +0.000 OA
ENDROOT
BRANCH   3   5
ATOM      5  C   UNL     1       1.238   8.526  20.199  0.00  0.00    +0.000 A 
ATOM      6  C   UNL     1       1.662   8.927  18.937  0.00  0.00    +0.000 A 
ATOM      7  C   UNL     1       2.394   8.060  18.123  0.00  0.00    +0.000 A 
ATOM      8  C   UNL     1       2.885   6.828  18.595  0.00  0.00    +0.000 A 
ATOM      9  C   UNL     1       2.637   6.565  19.946  0.00  0.00    +0.000 A 
ATOM     10  C   UNL     1       1.762   7.343  20.713  0.00  0.00    +0.000 A 
BRANCH   8  11
ATOM     11  C   UNL     1       3.665   5.921  17.702  0.00  0.00    +0.000 A 
ATOM     12  C   UNL     1       4.757   6.493  16.992  0.00  0.00    +0.000 A 
ATOM     13  C   UNL     1       5.541   5.779  16.081  0.00  0.00    +0.000 A 
ATOM     14  C   UNL     1       5.289   4.439  15.864  0.00  0.00    +0.000 A 
ATOM     15  C   UNL     1       4.247   3.827  16.550  0.00  0.00    +0.000 A 
ATOM     16  C   UNL     1       3.434   4.545  17.457  0.00  0.00    +0.000 A 
BRANCH  16  17
ATOM     17  S   UNL     1       2.090   3.579  18.136  0.00  0.00    +0.000 S 
ATOM     18  O   UNL     1       2.203   3.452  19.567  0.00  0.00    +0.000 OA
ATOM     19  O   UNL     1       0.847   4.007  17.528  0.00  0.00    +0.000 OA
BRANCH  17  20
ATOM     20  N   UNL     1       2.371   2.058  17.462  0.00  0.00    +0.000 NA
ATOM     21  H   UNL     1       1.813   1.925  16.618  0.00  0.00    +0.000 HD
ATOM     22  H   UNL     1       3.372   1.932  17.300  0.00  0.00    +0.000 HD
ENDBRANCH  17  20
ENDBRANCH  16  17
ENDBRANCH   8  11
ENDBRANCH   3   5
BRANCH   2  23
ATOM     23  C   UNL     1      -0.016  11.105  19.295  0.00  0.00    +0.000 C 
BRANCH  23  24
ATOM     24  C   UNL     1      -1.123  10.939  18.261  0.00  0.00    +0.000 C 
BRANCH  24  25
ATOM     25  O   UNL     1      -1.936  12.118  18.309  0.00  0.00    +0.000 OA
BRANCH  25  26
ATOM     26  C   UNL     1      -3.264  11.932  18.540  0.00  0.00    +0.000 A 
ATOM     27  C   UNL     1      -3.958  11.289  17.513  0.00  0.00    +0.000 A 
ATOM     28  C   UNL     1      -5.324  11.029  17.636  0.00  0.00    +0.000 A 
ATOM     29  C   UNL     1      -5.999  11.412  18.797  0.00  0.00    +0.000 A 
ATOM     30  C   UNL     1      -5.306  12.053  19.830  0.00  0.00    +0.000 A 
ATOM     31  C   UNL     1      -3.938  12.311  19.697  0.00  0.00    +0.000 A 
BRANCH  30  32
ATOM     32  C   UNL     1      -5.989  12.480  21.078  0.00  0.00    +0.000 C 
ATOM     33  N   UNL     1      -7.239  12.814  21.119  0.00  0.00    +0.000 NA
ATOM     34  N   UNL     1      -5.302  12.528  22.256  0.00  0.00    +0.000 N 
ATOM     35  H   UNL     1      -7.692  12.696  20.208  0.00  0.00    +0.000 HD
ATOM     36  H   UNL     1      -4.341  12.843  22.203  0.00  0.00    +0.000 HD
ATOM     37  H   UNL     1      -5.836  13.021  22.965  0.00  0.00    +0.000 HD
ENDBRANCH  30  32
ENDBRANCH  25  26
ENDBRANCH  24  25
ENDBRANCH  23  24
ENDBRANCH   2  23
TORSDOF 9
ENDMDL
MODEL 7
REMARK VINA RESULT:      -8.0      3.774      4.441
REMARK  Name = 
REMARK  10 active torsions:
REMARK  status: ('A' for Active; 'I' for Inactive)
REMARK    1  A    between atoms: C_1  and  N_2
REMARK    2  A    between atoms: N_2  and  C_3
REMARK    3  A    between atoms: C_3  and  C_4
REMARK    4  A    between atoms: C_4  and  O_5
REMARK    5  A    between atoms: O_5  and  C_6
REMARK    6  A    between atoms: C_10  and  C_11
REMARK    7  A    between atoms: C_15  and  C_17
REMARK    8  A    between atoms: C_20  and  C_21
REMARK    9  A    between atoms: C_26  and  S_27
REMARK   10  A    between atoms: S_27  and  N_28
REMARK                            x       y       z     vdW  Elec       q    Type
REMARK                         _______ _______ _______ _____ _____    ______ ____
ROOT
ATOM      1  C   UNL     1       0.836  12.518  20.295  0.00  0.00    +0.000 C 
ATOM      2  N   UNL     1       0.968  11.067  20.300  0.00  0.00    +0.000 N 
ATOM      3  C   UNL     1       1.595  10.530  19.164  0.00  0.00    +0.000 C 
ATOM      4  O   UNL     1       2.047  11.251  18.274  0.00  0.00    +0.000 OA
ENDROOT
BRANCH   3   5
ATOM      5  C   UNL     1       1.786   9.062  19.007  0.00  0.00    +0.000 A 
ATOM      6  C   UNL     1       1.712   8.146  20.050  0.00  0.00    +0.000 A 
ATOM      7  C   UNL     1       2.060   6.808  19.848  0.00  0.00    +0.000 A 
ATOM      8  C   UNL     1       2.323   6.290  18.566  0.00  0.00    +0.000 A 
ATOM      9  C   UNL     1       2.156   7.193  17.511  0.00  0.00    +0.000 A 
ATOM     10  C   UNL     1       1.980   8.566  17.721  0.00  0.00    +0.000 A 
BRANCH   8  11
ATOM     11  C   UNL     1       2.692   4.855  18.379  0.00  0.00    +0.000 A 
ATOM     12  C   UNL     1       1.627   3.911  18.354  0.00  0.00    +0.000 A 
ATOM     13  C   UNL     1       1.825   2.532  18.241  0.00  0.00    +0.000 A 
ATOM     14  C   UNL     1       3.105   2.033  18.111  0.00  0.00    +0.000 A 
ATOM     15  C   UNL     1       4.179   2.915  18.107  0.00  0.00    +0.000 A 
ATOM     16  C   UNL     1       3.991   4.310  18.243  0.00  0.00    +0.000 A 
BRANCH  16  17
ATOM     17  S   UNL     1       5.520   5.235  18.322  0.00  0.00    +0.000 S 
ATOM     18  O   UNL     1       5.570   6.261  17.311  0.00  0.00    +0.000 OA
ATOM     19  O   UNL     1       5.812   5.547  19.707  0.00  0.00    +0.000 OA
BRANCH  17  20
ATOM     20  N   UNL     1       6.665   4.062  17.920  0.00  0.00    +0.000 NA
ATOM     21  H   UNL     1       7.370   3.975  18.652  0.00  0.00    +0.000 HD
ATOM     22  H   UNL     1       6.196   3.179  17.713  0.00  0.00    +0.000 HD
ENDBRANCH  17  20
ENDBRANCH  16  17
ENDBRANCH   8  11
ENDBRANCH   3   5
BRANCH   2  23
ATOM     23  C   UNL     1       0.574  10.274  21.478  0.00  0.00    +0.000 C 
BRANCH  23  24
ATOM     24  C   UNL     1      -0.776  10.534  22.134  0.00  0.00    +0.000 C 
BRANCH  24  25
ATOM     25  O   UNL     1      -0.579  11.536  23.140  0.00  0.00    +0.000 OA
BRANCH  25  26
ATOM     26  C   UNL     1      -1.547  12.486  23.249  0.00  0.00    +0.000 A 
ATOM     27  C   UNL     1      -1.080  13.798  23.346  0.00  0.00    +0.000 A 
ATOM     28  C   UNL     1      -1.976  14.863  23.450  0.00  0.00    +0.000 A 
ATOM     29  C   UNL     1      -3.350  14.614  23.453  0.00  0.00    +0.000 A 
ATOM     30  C   UNL     1      -3.823  13.300  23.352  0.00  0.00    +0.000 A 
ATOM     31  C   UNL     1      -2.917  12.239  23.250  0.00  0.00    +0.000 A 
BRANCH  30  32
ATOM     32  C   UNL     1      -5.276  12.993  23.356  0.00  0.00    +0.000 C 
ATOM     33  N   UNL     1      -5.843  12.256  22.456  0.00  0.00    +0.000 NA
ATOM     34  N   UNL     1      -6.081  13.488  24.340  0.00  0.00    +0.000 N 
ATOM     35  H   UNL     1      -5.161  11.880  21.789  0.00  0.00    +0.000 HD
ATOM     36  H   UNL     1      -5.873  14.426  24.661  0.00  0.00    +0.000 HD
ATOM     37  H   UNL     1      -7.060  13.365  24.101  0.00  0.00    +0.000 HD
ENDBRANCH  30  32
ENDBRANCH  25  26
ENDBRANCH  24  25
ENDBRANCH  23  24
ENDBRANCH   2  23
TORSDOF 9
ENDMDL
MODEL 8
REMARK VINA RESULT:      -7.9      1.793      2.538
REMARK  Name = 
REMARK  10 active torsions:
REMARK  status: ('A' for Active; 'I' for Inactive)
REMARK    1  A    between atoms: C_1  and  N_2
REMARK    2  A    between atoms: N_2  and  C_3
REMARK    3  A    between atoms: C_3  and  C_4
REMARK    4  A    between atoms: C_4  and  O_5
REMARK    5  A    between atoms: O_5  and  C_6
REMARK    6  A    between atoms: C_10  and  C_11
REMARK    7  A    between atoms: C_15  and  C_17
REMARK    8  A    between atoms: C_20  and  C_21
REMARK    9  A    between atoms: C_26  and  S_27
REMARK   10  A    between atoms: S_27  and  N_28
REMARK                            x       y       z     vdW  Elec       q    Type
REMARK                         _______ _______ _______ _____ _____    ______ ____
ROOT
ATOM      1  C   UNL     1      -0.408  10.611  21.839  0.00  0.00    +0.000 C 
ATOM      2  N   UNL     1       0.488  10.078  20.820  0.00  0.00    +0.000 N 
ATOM      3  C   UNL     1       0.757   8.705  20.935  0.00  0.00    +0.000 C 
ATOM      4  O   UNL     1       0.217   8.010  21.798  0.00  0.00    +0.000 OA
ENDROOT
BRANCH   3   5
ATOM      5  C   UNL     1       1.671   8.014  19.985  0.00  0.00    +0.000 A 
ATOM      6  C   UNL     1       1.967   8.474  18.706  0.00  0.00    +0.000 A 
ATOM      7  C   UNL     1       2.707   7.687  17.821  0.00  0.00    +0.000 A 
ATOM      8  C   UNL     1       3.332   6.493  18.226  0.00  0.00    +0.000 A 
ATOM      9  C   UNL     1       3.206   6.184  19.585  0.00  0.00    +0.000 A 
ATOM     10  C   UNL     1       2.328   6.870  20.431  0.00  0.00    +0.000 A 
BRANCH   8  11
ATOM     11  C   UNL     1       4.119   5.672  17.258  0.00  0.00    +0.000 A 
ATOM     12  C   UNL     1       4.883   6.374  16.285  0.00  0.00    +0.000 A 
ATOM     13  C   UNL     1       5.623   5.739  15.283  0.00  0.00    +0.000 A 
ATOM     14  C   UNL     1       5.661   4.360  15.231  0.00  0.00    +0.000 A 
ATOM     15  C   UNL     1       4.950   3.627  16.173  0.00  0.00    +0.000 A 
ATOM     16  C   UNL     1       4.181   4.260  17.178  0.00  0.00    +0.000 A 
BRANCH  16  17
ATOM     17  S   UNL     1       3.265   3.118  18.206  0.00  0.00    +0.000 S 
ATOM     18  O   UNL     1       3.614   3.264  19.597  0.00  0.00    +0.000 OA
ATOM     19  O   UNL     1       1.877   3.115  17.789  0.00  0.00    +0.000 OA
BRANCH  17  20
ATOM     20  N   UNL     1       3.851   1.623  17.684  0.00  0.00    +0.000 NA
ATOM     21  H   UNL     1       4.854   1.546  17.853  0.00  0.00    +0.000 HD
ATOM     22  H   UNL     1       3.315   0.872  18.121  0.00  0.00    +0.000 HD
ENDBRANCH  17  20
ENDBRANCH  16  17
ENDBRANCH   8  11
ENDBRANCH   3   5
BRANCH   2  23
ATOM     23  C   UNL     1       0.953  10.920  19.704  0.00  0.00    +0.000 C 
BRANCH  23  24
ATOM     24  C   UNL     1      -0.053  11.414  18.672  0.00  0.00    +0.000 C 
BRANCH  24  25
ATOM     25  O   UNL     1      -0.905  10.310  18.341  0.00  0.00    +0.000 OA
BRANCH  25  26
ATOM     26  C   UNL     1      -2.062  10.609  17.690  0.00  0.00    +0.000 A 
ATOM     27  C   UNL     1      -2.151  10.119  16.386  0.00  0.00    +0.000 A 
ATOM     28  C   UNL     1      -3.294  10.349  15.619  0.00  0.00    +0.000 A 
ATOM     29  C   UNL     1      -4.359  11.069  16.164  0.00  0.00    +0.000 A 
ATOM     30  C   UNL     1      -4.276  11.558  17.473  0.00  0.00    +0.000 A 
ATOM     31  C   UNL     1      -3.126  11.325  18.232  0.00  0.00    +0.000 A 
BRANCH  30  32
ATOM     32  C   UNL     1      -5.385  12.333  18.086  0.00  0.00    +0.000 C 
ATOM     33  N   UNL     1      -6.076  13.212  17.434  0.00  0.00    +0.000 NA
ATOM     34  N   UNL     1      -5.725  12.131  19.393  0.00  0.00    +0.000 N 
ATOM     35  H   UNL     1      -5.795  13.261  16.450  0.00  0.00    +0.000 HD
ATOM     36  H   UNL     1      -4.960  11.958  20.034  0.00  0.00    +0.000 HD
ATOM     37  H   UNL     1      -6.351  12.861  19.719  0.00  0.00    +0.000 HD
ENDBRANCH  30  32
ENDBRANCH  25  26
ENDBRANCH  24  25
ENDBRANCH  23  24
ENDBRANCH   2  23
TORSDOF 9
ENDMDL
MODEL 9
REMARK VINA RESULT:      -7.9      3.233      5.073
REMARK  Name = 
REMARK  10 active torsions:
REMARK  status: ('A' for Active; 'I' for Inactive)
REMARK    1  A    between atoms: C_1  and  N_2
REMARK    2  A    between atoms: N_2  and  C_3
REMARK    3  A    between atoms: C_3  and  C_4
REMARK    4  A    between atoms: C_4  and  O_5
REMARK    5  A    between atoms: O_5  and  C_6
REMARK    6  A    between atoms: C_10  and  C_11
REMARK    7  A    between atoms: C_15  and  C_17
REMARK    8  A    between atoms: C_20  and  C_21
REMARK    9  A    between atoms: C_26  and  S_27
REMARK   10  A    between atoms: S_27  and  N_28
REMARK                            x       y       z     vdW  Elec       q    Type
REMARK                         _______ _______ _______ _____ _____    ______ ____
ROOT
ATOM      1  C   UNL     1      -0.815  11.169  21.894  0.00  0.00    +0.000 C 
ATOM      2  N   UNL     1      -0.302  10.245  20.891  0.00  0.00    +0.000 N 
ATOM      3  C   UNL     1       0.788   9.466  21.313  0.00  0.00    +0.000 C 
ATOM      4  O   UNL     1       1.219   9.528  22.466  0.00  0.00    +0.000 OA
ENDROOT
BRANCH   3   5
ATOM      5  C   UNL     1       1.441   8.489  20.399  0.00  0.00    +0.000 A 
ATOM      6  C   UNL     1       1.682   7.157  20.717  0.00  0.00    +0.000 A 
ATOM      7  C   UNL     1       2.441   6.349  19.867  0.00  0.00    +0.000 A 
ATOM      8  C   UNL     1       2.837   6.777  18.587  0.00  0.00    +0.000 A 
ATOM      9  C   UNL     1       2.372   8.041  18.209  0.00  0.00    +0.000 A 
ATOM     10  C   UNL     1       1.765   8.918  19.115  0.00  0.00    +0.000 A 
BRANCH   8  11
ATOM     11  C   UNL     1       3.647   5.892  17.698  0.00  0.00    +0.000 A 
ATOM     12  C   UNL     1       4.706   6.501  16.968  0.00  0.00    +0.000 A 
ATOM     13  C   UNL     1       5.511   5.808  16.059  0.00  0.00    +0.000 A 
ATOM     14  C   UNL     1       5.315   4.456  15.863  0.00  0.00    +0.000 A 
ATOM     15  C   UNL     1       4.309   3.808  16.569  0.00  0.00    +0.000 A 
ATOM     16  C   UNL     1       3.474   4.504  17.475  0.00  0.00    +0.000 A 
BRANCH  16  17
ATOM     17  S   UNL     1       2.181   3.490  18.182  0.00  0.00    +0.000 S 
ATOM     18  O   UNL     1       2.417   3.233  19.581  0.00  0.00    +0.000 OA
ATOM     19  O   UNL     1       0.895   3.981  17.727  0.00  0.00    +0.000 OA
BRANCH  17  20
ATOM     20  N   UNL     1       2.378   2.034  17.352  0.00  0.00    +0.000 NA
ATOM     21  H   UNL     1       2.658   2.201  16.385  0.00  0.00    +0.000 HD
ATOM     22  H   UNL     1       3.034   1.436  17.857  0.00  0.00    +0.000 HD
ENDBRANCH  17  20
ENDBRANCH  16  17
ENDBRANCH   8  11
ENDBRANCH   3   5
BRANCH   2  23
ATOM     23  C   UNL     1      -0.978  10.083  19.593  0.00  0.00    +0.000 C 
BRANCH  23  24
ATOM     24  C   UNL     1      -1.094  11.281  18.658  0.00  0.00    +0.000 C 
BRANCH  24  25
ATOM     25  O   UNL     1       0.231  11.774  18.425  0.00  0.00    +0.000 OA
BRANCH  25  26
ATOM     26  C   UNL     1       0.548  12.965  19.003  0.00  0.00    +0.000 A 
ATOM     27  C   UNL     1      -0.322  14.016  18.706  0.00  0.00    +0.000 A 
ATOM     28  C   UNL     1      -0.111  15.284  19.250  0.00  0.00    +0.000 A 
ATOM     29  C   UNL     1       0.975  15.500  20.100  0.00  0.00    +0.000 A 
ATOM     30  C   UNL     1       1.847  14.448  20.404  0.00  0.00    +0.000 A 
ATOM     31  C   UNL     1       1.629  13.181  19.853  0.00  0.00    +0.000 A 
BRANCH  30  32
ATOM     32  C   UNL     1       3.016  14.638  21.300  0.00  0.00    +0.000 C 
ATOM     33  N   UNL     1       2.904  15.017  22.533  0.00  0.00    +0.000 NA
ATOM     34  N   UNL     1       4.280  14.407  20.841  0.00  0.00    +0.000 N 
ATOM     35  H   UNL     1       1.923  15.114  22.812  0.00  0.00    +0.000 HD
ATOM     36  H   UNL     1       4.466  14.680  19.883  0.00  0.00    +0.000 HD
ATOM     37  H   UNL     1       4.971  14.768  21.492  0.00  0.00    +0.000 HD
ENDBRANCH  30  32
ENDBRANCH  25  26
ENDBRANCH  24  25
ENDBRANCH  23  24
ENDBRANCH   2  23
TORSDOF 9
ENDMDL
