MODEL 1
REMARK VINA RESULT:      -7.3      0.000      0.000
REMARK  Name = 
REMARK  5 active torsions:
REMARK  status: ('A' for Active; 'I' for Inactive)
REMARK    1  A    between atoms: C_1  and  O_2
REMARK    2  A    between atoms: O_2  and  C_3
REMARK    3  A    between atoms: C_6  and  N_7
REMARK    4  A    between atoms: N_7  and  C_8
REMARK    5  A    between atoms: C_14  and  N_15
REMARK                            x       y       z     vdW  Elec       q    Type
REMARK                         _______ _______ _______ _____ _____    ______ ____
ROOT
ATOM      1  N   UNL     1       5.301   4.614  19.081  0.00  0.00    +0.000 N 
ATOM      2  H   UNL     1       5.956   5.126  19.667  0.00  0.00    +0.000 HD
ENDROOT
BRANCH   1   3
ATOM      3  C   UNL     1       4.009   4.518  19.646  0.00  0.00    +0.000 A 
ATOM      4  N   UNL     1       3.371   5.676  19.957  0.00  0.00    +0.000 NA
ATOM      5  C   UNL     1       2.092   5.649  20.372  0.00  0.00    +0.000 A 
ATOM      6 CL   UNL     1       1.411   7.191  20.673  0.00  0.00    +0.000 Cl
ATOM      7  C   UNL     1       1.356   4.496  20.520  0.00  0.00    +0.000 A 
ATOM      8  C   UNL     1       1.993   3.293  20.238  0.00  0.00    +0.000 A 
ATOM      9  C   UNL     1       3.333   3.300  19.801  0.00  0.00    +0.000 A 
BRANCH   9  10
ATOM     10  N   UNL     1       3.985   2.018  19.543  0.00  0.00    +0.000 N 
ATOM     11  O   UNL     1       3.558   1.313  18.615  0.00  0.00    +0.000 OA
ATOM     12  O   UNL     1       4.963   1.721  20.245  0.00  0.00    +0.000 OA
ENDBRANCH   9  10
ENDBRANCH   1   3
BRANCH   1  16
ATOM     13  C   UNL     1       6.410   4.515  14.985  0.00  0.00    +0.000 A 
ATOM     14  C   UNL     1       7.367   4.713  15.982  0.00  0.00    +0.000 A 
ATOM     15  C   UNL     1       7.001   4.729  17.337  0.00  0.00    +0.000 A 
ATOM     16  C   UNL     1       5.664   4.572  17.717  0.00  0.00    +0.000 A 
ATOM     17  C   UNL     1       4.721   4.359  16.701  0.00  0.00    +0.000 A 
ATOM     18  C   UNL     1       5.080   4.348  15.350  0.00  0.00    +0.000 A 
BRANCH  13  20
ATOM     19  C   UNL     1       6.218   3.630  12.807  0.00  0.00    +0.000 C 
ATOM     20  O   UNL     1       6.874   4.528  13.698  0.00  0.00    +0.000 OA
ENDBRANCH  13  20
ENDBRANCH   1  16
TORSDOF 4
ENDMDL
MODEL 2
REMARK VINA RESULT:      -7.2      0.227      1.317
REMARK  Name = 
REMARK  5 active torsions:
REMARK  status: ('A' for Active; 'I' for Inactive)
REMARK    1  A    between atoms: C_1  and  O_2
REMARK    2  A    between atoms: O_2  and  C_3
REMARK    3  A    between atoms: C_6  and  N_7
REMARK    4  A    between atoms: N_7  and  C_8
REMARK    5  A    between atoms: C_14  and  N_15
REMARK                            x       y       z     vdW  Elec       q    Type
REMARK                         _______ _______ _______ _____ _____    ______ ____
ROOT
ATOM      1  N   UNL     1       5.279   4.706  19.224  0.00  0.00    +0.000 N 
ATOM      2  H   UNL     1       5.894   5.215  19.854  0.00  0.00    +0.000 HD
ENDROOT
BRANCH   1   3
ATOM      3  C   UNL     1       3.965   4.564  19.725  0.00  0.00    +0.000 A 
ATOM      4  N   UNL     1       3.294   5.695  20.061  0.00  0.00    +0.000 NA
ATOM      5  C   UNL     1       1.998   5.630  20.417  0.00  0.00    +0.000 A 
ATOM      6 CL   UNL     1       1.277   7.144  20.757  0.00  0.00    +0.000 Cl
ATOM      7  C   UNL     1       1.278   4.459  20.478  0.00  0.00    +0.000 A 
ATOM      8  C   UNL     1       1.948   3.281  20.170  0.00  0.00    +0.000 A 
ATOM      9  C   UNL     1       3.306   3.329  19.794  0.00  0.00    +0.000 A 
BRANCH   9  10
ATOM     10  N   UNL     1       3.991   2.071  19.506  0.00  0.00    +0.000 N 
ATOM     11  O   UNL     1       4.969   1.757  20.201  0.00  0.00    +0.000 OA
ATOM     12  O   UNL     1       3.526   1.361  18.602  0.00  0.00    +0.000 OA
ENDBRANCH   9  10
ENDBRANCH   1   3
BRANCH   1  16
ATOM     13  C   UNL     1       6.537   4.711  15.170  0.00  0.00    +0.000 A 
ATOM     14  C   UNL     1       5.184   4.805  15.501  0.00  0.00    +0.000 A 
ATOM     15  C   UNL     1       4.771   4.820  16.842  0.00  0.00    +0.000 A 
ATOM     16  C   UNL     1       5.705   4.715  17.877  0.00  0.00    +0.000 A 
ATOM     17  C   UNL     1       7.060   4.638  17.524  0.00  0.00    +0.000 A 
ATOM     18  C   UNL     1       7.476   4.617  16.190  0.00  0.00    +0.000 A 
BRANCH  13  20
ATOM     19  C   UNL     1       6.189   3.664  13.084  0.00  0.00    +0.000 C 
ATOM     20  O   UNL     1       6.828   4.695  13.834  0.00  0.00    +0.000 OA
ENDBRANCH  13  20
ENDBRANCH   1  16
TORSDOF 4
ENDMDL
MODEL 3
REMARK VINA RESULT:      -6.9      1.020      1.568
REMARK  Name = 
REMARK  5 active torsions:
REMARK  status: ('A' for Active; 'I' for Inactive)
REMARK    1  A    between atoms: C_1  and  O_2
REMARK    2  A    between atoms: O_2  and  C_3
REMARK    3  A    between atoms: C_6  and  N_7
REMARK    4  A    between atoms: N_7  and  C_8
REMARK    5  A    between atoms: C_14  and  N_15
REMARK                            x       y       z     vdW  Elec       q    Type
REMARK                         _______ _______ _______ _____ _____    ______ ____
ROOT
ATOM      1  N   UNL     1       5.078   4.322  19.141  0.00  0.00    +0.000 N 
ATOM      2  H   UNL     1       5.802   4.232  19.849  0.00  0.00    +0.000 HD
ENDROOT
BRANCH   1   3
ATOM      3  C   UNL     1       3.864   4.838  19.648  0.00  0.00    +0.000 A 
ATOM      4  N   UNL     1       3.549   6.122  19.335  0.00  0.00    +0.000 NA
ATOM      5  C   UNL     1       2.348   6.623  19.678  0.00  0.00    +0.000 A 
ATOM      6 CL   UNL     1       2.078   8.234  19.167  0.00  0.00    +0.000 Cl
ATOM      7  C   UNL     1       1.384   5.910  20.355  0.00  0.00    +0.000 A 
ATOM      8  C   UNL     1       1.693   4.604  20.716  0.00  0.00    +0.000 A 
ATOM      9  C   UNL     1       2.945   4.061  20.364  0.00  0.00    +0.000 A 
BRANCH   9  10
ATOM     10  N   UNL     1       3.251   2.695  20.784  0.00  0.00    +0.000 N 
ATOM     11  O   UNL     1       3.854   1.954  19.994  0.00  0.00    +0.000 OA
ATOM     12  O   UNL     1       2.924   2.364  21.934  0.00  0.00    +0.000 OA
ENDBRANCH   9  10
ENDBRANCH   1   3
BRANCH   1  16
ATOM     13  C   UNL     1       6.561   4.513  15.168  0.00  0.00    +0.000 A 
ATOM     14  C   UNL     1       5.252   4.103  15.425  0.00  0.00    +0.000 A 
ATOM     15  C   UNL     1       4.758   4.056  16.737  0.00  0.00    +0.000 A 
ATOM     16  C   UNL     1       5.576   4.395  17.820  0.00  0.00    +0.000 A 
ATOM     17  C   UNL     1       6.883   4.819  17.539  0.00  0.00    +0.000 A 
ATOM     18  C   UNL     1       7.381   4.862  16.235  0.00  0.00    +0.000 A 
BRANCH  13  20
ATOM     19  C   UNL     1       6.167   3.681  12.996  0.00  0.00    +0.000 C 
ATOM     20  O   UNL     1       6.943   4.512  13.854  0.00  0.00    +0.000 OA
ENDBRANCH  13  20
ENDBRANCH   1  16
TORSDOF 4
ENDMDL
MODEL 4
REMARK VINA RESULT:      -6.8      1.023      1.226
REMARK  Name = 
REMARK  5 active torsions:
REMARK  status: ('A' for Active; 'I' for Inactive)
REMARK    1  A    between atoms: C_1  and  O_2
REMARK    2  A    between atoms: O_2  and  C_3
REMARK    3  A    between atoms: C_6  and  N_7
REMARK    4  A    between atoms: N_7  and  C_8
REMARK    5  A    between atoms: C_14  and  N_15
REMARK                            x       y       z     vdW  Elec       q    Type
REMARK                         _______ _______ _______ _____ _____    ______ ____
ROOT
ATOM      1  N   UNL     1       5.078   4.385  19.114  0.00  0.00    +0.000 N 
ATOM      2  H   UNL     1       5.829   4.359  19.799  0.00  0.00    +0.000 HD
ENDROOT
BRANCH   1   3
ATOM      3  C   UNL     1       3.867   4.895  19.636  0.00  0.00    +0.000 A 
ATOM      4  N   UNL     1       3.541   6.176  19.327  0.00  0.00    +0.000 NA
ATOM      5  C   UNL     1       2.341   6.671  19.685  0.00  0.00    +0.000 A 
ATOM      6 CL   UNL     1       2.056   8.280  19.177  0.00  0.00    +0.000 Cl
ATOM      7  C   UNL     1       1.390   5.953  20.372  0.00  0.00    +0.000 A 
ATOM      8  C   UNL     1       1.710   4.648  20.730  0.00  0.00    +0.000 A 
ATOM      9  C   UNL     1       2.961   4.112  20.363  0.00  0.00    +0.000 A 
BRANCH   9  10
ATOM     10  N   UNL     1       3.280   2.748  20.779  0.00  0.00    +0.000 N 
ATOM     11  O   UNL     1       2.951   2.385  21.918  0.00  0.00    +0.000 OA
ATOM     12  O   UNL     1       3.830   2.010  19.947  0.00  0.00    +0.000 OA
ENDBRANCH   9  10
ENDBRANCH   1   3
BRANCH   1  16
ATOM     13  C   UNL     1       6.435   4.439  15.093  0.00  0.00    +0.000 A 
ATOM     14  C   UNL     1       7.300   4.740  16.145  0.00  0.00    +0.000 A 
ATOM     15  C   UNL     1       6.854   4.706  17.475  0.00  0.00    +0.000 A 
ATOM     16  C   UNL     1       5.524   4.394  17.774  0.00  0.00    +0.000 A 
ATOM     17  C   UNL     1       4.675   4.078  16.703  0.00  0.00    +0.000 A 
ATOM     18  C   UNL     1       5.113   4.116  15.377  0.00  0.00    +0.000 A 
BRANCH  13  20
ATOM     19  C   UNL     1       6.320   3.713  12.850  0.00  0.00    +0.000 C 
ATOM     20  O   UNL     1       6.970   4.512  13.835  0.00  0.00    +0.000 OA
ENDBRANCH  13  20
ENDBRANCH   1  16
TORSDOF 4
ENDMDL
MODEL 5
REMARK VINA RESULT:      -6.8      3.879      5.901
REMARK  Name = 
REMARK  5 active torsions:
REMARK  status: ('A' for Active; 'I' for Inactive)
REMARK    1  A    between atoms: C_1  and  O_2
REMARK    2  A    between atoms: O_2  and  C_3
REMARK    3  A    between atoms: C_6  and  N_7
REMARK    4  A    between atoms: N_7  and  C_8
REMARK    5  A    between atoms: C_14  and  N_15
REMARK                            x       y       z     vdW  Elec       q    Type
REMARK                         _______ _______ _______ _____ _____    ______ ____
ROOT
ATOM      1  N   UNL     1       3.240   6.099  19.840  0.00  0.00    +0.000 N 
ATOM      2  H   UNL     1       3.537   6.051  20.812  0.00  0.00    +0.000 HD
ENDROOT
BRANCH   1   3
ATOM      3  C   UNL     1       3.222   4.839  19.201  0.00  0.00    +0.000 A 
ATOM      4  N   UNL     1       2.074   4.117  19.269  0.00  0.00    +0.000 NA
ATOM      5  C   UNL     1       1.955   2.974  18.569  0.00  0.00    +0.000 A 
ATOM      6 CL   UNL     1       0.432   2.208  18.713  0.00  0.00    +0.000 Cl
ATOM      7  C   UNL     1       2.948   2.457  17.770  0.00  0.00    +0.000 A 
ATOM      8  C   UNL     1       4.147   3.159  17.707  0.00  0.00    +0.000 A 
ATOM      9  C   UNL     1       4.290   4.359  18.432  0.00  0.00    +0.000 A 
BRANCH   9  10
ATOM     10  N   UNL     1       5.572   5.058  18.370  0.00  0.00    +0.000 N 
ATOM     11  O   UNL     1       6.589   4.464  18.757  0.00  0.00    +0.000 OA
ATOM     12  O   UNL     1       5.577   6.202  17.890  0.00  0.00    +0.000 OA
ENDBRANCH   9  10
ENDBRANCH   1   3
BRANCH   1  16
ATOM     13  C   UNL     1       0.971   9.561  18.898  0.00  0.00    +0.000 A 
ATOM     14  C   UNL     1       1.720   8.906  17.919  0.00  0.00    +0.000 A 
ATOM     15  C   UNL     1       2.456   7.753  18.228  0.00  0.00    +0.000 A 
ATOM     16  C   UNL     1       2.477   7.247  19.532  0.00  0.00    +0.000 A 
ATOM     17  C   UNL     1       1.706   7.911  20.497  0.00  0.00    +0.000 A 
ATOM     18  C   UNL     1       0.975   9.063  20.195  0.00  0.00    +0.000 A 
BRANCH  13  20
ATOM     19  C   UNL     1      -0.966  10.891  19.112  0.00  0.00    +0.000 C 
ATOM     20  O   UNL     1       0.300  10.681  18.491  0.00  0.00    +0.000 OA
ENDBRANCH  13  20
ENDBRANCH   1  16
TORSDOF 4
ENDMDL
MODEL 6
REMARK VINA RESULT:      -6.8      2.175      2.775
REMARK  Name = 
REMARK  5 active torsions:
REMARK  status: ('A' for Active; 'I' for Inactive)
REMARK    1  A    between atoms: C_1  and  O_2
REMARK    2  A    between atoms: O_2  and  C_3
REMARK    3  A    between atoms: C_6  and  N_7
REMARK    4  A    between atoms: N_7  and  C_8
REMARK    5  A    between atoms: C_14  and  N_15
REMARK                            x       y       z     vdW  Elec       q    Type
REMARK                         _______ _______ _______ _____ _____    ______ ____
ROOT
ATOM      1  N   UNL     1       5.097   3.857  18.719  0.00  0.00    +0.000 N 
ATOM      2  H   UNL     1       5.573   2.970  18.575  0.00  0.00    +0.000 HD
ENDROOT
BRANCH   1   3
ATOM      3  C   UNL     1       4.109   3.801  19.727  0.00  0.00    +0.000 A 
ATOM      4  N   UNL     1       3.294   4.878  19.869  0.00  0.00    +0.000 NA
ATOM      5  C   UNL     1       2.254   4.828  20.721  0.00  0.00    +0.000 A 
ATOM      6 CL   UNL     1       1.289   6.242  20.748  0.00  0.00    +0.000 Cl
ATOM      7  C   UNL     1       1.947   3.732  21.494  0.00  0.00    +0.000 A 
ATOM      8  C   UNL     1       2.783   2.626  21.392  0.00  0.00    +0.000 A 
ATOM      9  C   UNL     1       3.877   2.659  20.505  0.00  0.00    +0.000 A 
BRANCH   9  10
ATOM     10  N   UNL     1       4.755   1.492  20.443  0.00  0.00    +0.000 N 
ATOM     11  O   UNL     1       4.753   0.804  19.411  0.00  0.00    +0.000 OA
ATOM     12  O   UNL     1       5.490   1.277  21.418  0.00  0.00    +0.000 OA
ENDBRANCH   9  10
ENDBRANCH   1   3
BRANCH   1  16
ATOM     13  C   UNL     1       7.312   7.238  17.421  0.00  0.00    +0.000 A 
ATOM     14  C   UNL     1       7.760   6.452  18.484  0.00  0.00    +0.000 A 
ATOM     15  C   UNL     1       7.035   5.326  18.901  0.00  0.00    +0.000 A 
ATOM     16  C   UNL     1       5.833   4.979  18.277  0.00  0.00    +0.000 A 
ATOM     17  C   UNL     1       5.409   5.772  17.201  0.00  0.00    +0.000 A 
ATOM     18  C   UNL     1       6.124   6.898  16.785  0.00  0.00    +0.000 A 
BRANCH  13  20
ATOM     19  C   UNL     1       8.276   9.263  18.155  0.00  0.00    +0.000 C 
ATOM     20  O   UNL     1       8.089   8.318  17.104  0.00  0.00    +0.000 OA
ENDBRANCH  13  20
ENDBRANCH   1  16
TORSDOF 4
ENDMDL
MODEL 7
REMARK VINA RESULT:      -6.7      2.243      3.108
REMARK  Name = 
REMARK  5 active torsions:
REMARK  status: ('A' for Active; 'I' for Inactive)
REMARK    1  A    between atoms: C_1  and  O_2
REMARK    2  A    between atoms: O_2  and  C_3
REMARK    3  A    between atoms: C_6  and  N_7
REMARK    4  A    between atoms: N_7  and  C_8
REMARK    5  A    between atoms: C_14  and  N_15
REMARK                            x       y       z     vdW  Elec       q    Type
REMARK                         _______ _______ _______ _____ _____    ______ ____
ROOT
ATOM      1  N   UNL     1       4.986   4.226  18.458  0.00  0.00    +0.000 N 
ATOM      2  H   UNL     1       5.380   3.331  18.181  0.00  0.00    +0.000 HD
ENDROOT
BRANCH   1   3
ATOM      3  C   UNL     1       3.982   4.109  19.447  0.00  0.00    +0.000 A 
ATOM      4  N   UNL     1       3.276   5.226  19.760  0.00  0.00    +0.000 NA
ATOM      5  C   UNL     1       2.224   5.145  20.595  0.00  0.00    +0.000 A 
ATOM      6 CL   UNL     1       1.403   6.625  20.848  0.00  0.00    +0.000 Cl
ATOM      7  C   UNL     1       1.800   3.976  21.184  0.00  0.00    +0.000 A 
ATOM      8  C   UNL     1       2.524   2.822  20.906  0.00  0.00    +0.000 A 
ATOM      9  C   UNL     1       3.629   2.887  20.033  0.00  0.00    +0.000 A 
BRANCH   9  10
ATOM     10  N   UNL     1       4.388   1.663  19.785  0.00  0.00    +0.000 N 
ATOM     11  O   UNL     1       5.258   1.330  20.603  0.00  0.00    +0.000 OA
ATOM     12  O   UNL     1       4.089   0.998  18.781  0.00  0.00    +0.000 OA
ENDBRANCH   9  10
ENDBRANCH   1   3
BRANCH   1  16
ATOM     13  C   UNL     1       7.511   7.535  17.629  0.00  0.00    +0.000 A 
ATOM     14  C   UNL     1       6.302   7.370  16.952  0.00  0.00    +0.000 A 
ATOM     15  C   UNL     1       5.460   6.284  17.239  0.00  0.00    +0.000 A 
ATOM     16  C   UNL     1       5.827   5.329  18.193  0.00  0.00    +0.000 A 
ATOM     17  C   UNL     1       7.038   5.523  18.873  0.00  0.00    +0.000 A 
ATOM     18  C   UNL     1       7.882   6.600  18.587  0.00  0.00    +0.000 A 
BRANCH  13  20
ATOM     19  C   UNL     1       8.556   9.537  18.316  0.00  0.00    +0.000 C 
ATOM     20  O   UNL     1       8.258   8.622  17.264  0.00  0.00    +0.000 OA
ENDBRANCH  13  20
ENDBRANCH   1  16
TORSDOF 4
ENDMDL
MODEL 8
REMARK VINA RESULT:      -6.7      4.065      6.217
REMARK  Name = 
REMARK  5 active torsions:
REMARK  status: ('A' for Active; 'I' for Inactive)
REMARK    1  A    between atoms: C_1  and  O_2
REMARK    2  A    between atoms: O_2  and  C_3
REMARK    3  A    between atoms: C_6  and  N_7
REMARK    4  A    between atoms: N_7  and  C_8
REMARK    5  A    between atoms: C_14  and  N_15
REMARK                            x       y       z     vdW  Elec       q    Type
REMARK                         _______ _______ _______ _____ _____    ______ ____
ROOT
ATOM      1  N   UNL     1       3.022   6.219  19.787  0.00  0.00    +0.000 N 
ATOM      2  H   UNL     1       2.733   5.693  20.608  0.00  0.00    +0.000 HD
ENDROOT
BRANCH   1   3
ATOM      3  C   UNL     1       3.692   5.427  18.827  0.00  0.00    +0.000 A 
ATOM      4  N   UNL     1       5.023   5.637  18.659  0.00  0.00    +0.000 NA
ATOM      5  C   UNL     1       5.737   4.825  17.858  0.00  0.00    +0.000 A 
ATOM      6 CL   UNL     1       7.409   5.183  17.791  0.00  0.00    +0.000 Cl
ATOM      7  C   UNL     1       5.199   3.765  17.164  0.00  0.00    +0.000 A 
ATOM      8  C   UNL     1       3.832   3.547  17.292  0.00  0.00    +0.000 A 
ATOM      9  C   UNL     1       3.068   4.386  18.128  0.00  0.00    +0.000 A 
BRANCH   9  10
ATOM     10  N   UNL     1       1.629   4.149  18.218  0.00  0.00    +0.000 N 
ATOM     11  O   UNL     1       1.132   3.940  19.335  0.00  0.00    +0.000 OA
ATOM     12  O   UNL     1       0.972   4.212  17.168  0.00  0.00    +0.000 OA
ENDBRANCH   9  10
ENDBRANCH   1   3
BRANCH   1  16
ATOM     13  C   UNL     1       0.788   9.777  19.182  0.00  0.00    +0.000 A 
ATOM     14  C   UNL     1       0.843   9.170  20.438  0.00  0.00    +0.000 A 
ATOM     15  C   UNL     1       1.595   8.003  20.640  0.00  0.00    +0.000 A 
ATOM     16  C   UNL     1       2.286   7.407  19.580  0.00  0.00    +0.000 A 
ATOM     17  C   UNL     1       2.232   8.042  18.331  0.00  0.00    +0.000 A 
ATOM     18  C   UNL     1       1.480   9.201  18.124  0.00  0.00    +0.000 A 
BRANCH  13  20
ATOM     19  C   UNL     1      -1.160  10.776  18.303  0.00  0.00    +0.000 C 
ATOM     20  O   UNL     1       0.018  10.904  19.094  0.00  0.00    +0.000 OA
ENDBRANCH  13  20
ENDBRANCH   1  16
TORSDOF 4
ENDMDL
MODEL 9
REMARK VINA RESULT:      -6.7      4.053      6.172
REMARK  Name = 
REMARK  5 active torsions:
REMARK  status: ('A' for Active; 'I' for Inactive)
REMARK    1  A    between atoms: C_1  and  O_2
REMARK    2  A    between atoms: O_2  and  C_3
REMARK    3  A    between atoms: C_6  and  N_7
REMARK    4  A    between atoms: N_7  and  C_8
REMARK    5  A    between atoms: C_14  and  N_15
REMARK                            x       y       z     vdW  Elec       q    Type
REMARK                         _______ _______ _______ _____ _____    ______ ____
ROOT
ATOM      1  N   UNL     1       3.027   6.215  19.844  0.00  0.00    +0.000 N 
ATOM      2  H   UNL     1       2.721   5.713  20.674  0.00  0.00    +0.000 HD
ENDROOT
BRANCH   1   3
ATOM      3  C   UNL     1       3.713   5.395  18.920  0.00  0.00    +0.000 A 
ATOM      4  N   UNL     1       5.051   5.584  18.785  0.00  0.00    +0.000 NA
ATOM      5  C   UNL     1       5.776   4.747  18.021  0.00  0.00    +0.000 A 
ATOM      6 CL   UNL     1       7.454   5.082  17.995  0.00  0.00    +0.000 Cl
ATOM      7  C   UNL     1       5.243   3.681  17.333  0.00  0.00    +0.000 A 
ATOM      8  C   UNL     1       3.870   3.482  17.427  0.00  0.00    +0.000 A 
ATOM      9  C   UNL     1       3.094   4.348  18.224  0.00  0.00    +0.000 A 
BRANCH   9  10
ATOM     10  N   UNL     1       1.650   4.132  18.278  0.00  0.00    +0.000 N 
ATOM     11  O   UNL     1       1.119   3.957  19.385  0.00  0.00    +0.000 OA
ATOM     12  O   UNL     1       1.025   4.177  17.208  0.00  0.00    +0.000 OA
ENDBRANCH   9  10
ENDBRANCH   1   3
BRANCH   1  16
ATOM     13  C   UNL     1       0.863   9.782  19.067  0.00  0.00    +0.000 A 
ATOM     14  C   UNL     1       1.572   9.139  18.052  0.00  0.00    +0.000 A 
ATOM     15  C   UNL     1       2.273   7.951  18.307  0.00  0.00    +0.000 A 
ATOM     16  C   UNL     1       2.298   7.398  19.591  0.00  0.00    +0.000 A 
ATOM     17  C   UNL     1       1.566   8.051  20.593  0.00  0.00    +0.000 A 
ATOM     18  C   UNL     1       0.871   9.238  20.345  0.00  0.00    +0.000 A 
BRANCH  13  20
ATOM     19  C   UNL     1      -1.192  10.834  18.574  0.00  0.00    +0.000 C 
ATOM     20  O   UNL     1       0.223  10.939  18.713  0.00  0.00    +0.000 OA
ENDBRANCH  13  20
ENDBRANCH   1  16
TORSDOF 4
ENDMDL
