MODEL 1
REMARK VINA RESULT:      -7.2      0.000      0.000
REMARK  Name = 
REMARK  11 active torsions:
REMARK  status: ('A' for Active; 'I' for Inactive)
REMARK    1  A    between atoms: C_1  and  O_2
REMARK    2  A    between atoms: O_2  and  C_3
REMARK    3  A    between atoms: C_3  and  C_4
REMARK    4  A    between atoms: C_4  and  N_5
REMARK    5  A    between atoms: C_4  and  C_25
REMARK    6  A    between atoms: N_5  and  C_6
REMARK    7  A    between atoms: N_13  and  C_14
REMARK    8  A    between atoms: C_17  and  C_18
REMARK    9  A    between atoms: C_20  and  C_21
REMARK   10  A    between atoms: C_28  and  O_29
REMARK   11  A    between atoms: O_29  and  C_30
REMARK                            x       y       z     vdW  Elec       q    Type
REMARK                         _______ _______ _______ _____ _____    ______ ____
ROOT
ATOM      1  C   UNL     1       4.636   3.543  18.759  0.00  0.00    +0.000 A 
ATOM      2  N   UNL     1       4.638   2.262  18.354  0.00  0.00    +0.000 NA
ATOM      3  C   UNL     1       3.518   1.553  18.573  0.00  0.00    +0.000 A 
ATOM      4  N   UNL     1       2.384   1.997  19.129  0.00  0.00    +0.000 NA
ATOM      5  C   UNL     1       2.386   3.289  19.511  0.00  0.00    +0.000 A 
ATOM      6  C   UNL     1       3.498   4.109  19.345  0.00  0.00    +0.000 A 
ATOM      7  C   UNL     1       3.469   5.532  19.811  0.00  0.00    +0.000 C 
ATOM      8  N   UNL     1       2.103   6.046  19.959  0.00  0.00    +0.000 N 
ATOM      9  C   UNL     1       1.239   5.179  20.771  0.00  0.00    +0.000 C 
ATOM     10  C   UNL     1       1.085   3.830  20.062  0.00  0.00    +0.000 C 
ENDROOT
BRANCH   8  11
ATOM     11  C   UNL     1       1.847   7.420  19.899  0.00  0.00    +0.000 A 
ATOM     12  C   UNL     1       1.143   8.005  20.971  0.00  0.00    +0.000 A 
ATOM     13  C   UNL     1       0.762   9.358  20.977  0.00  0.00    +0.000 A 
ATOM     14  C   UNL     1       1.088  10.187  19.908  0.00  0.00    +0.000 A 
ATOM     15  C   UNL     1       0.716  11.639  19.879  0.00  0.00    +0.000 C 
ATOM     16  C   UNL     1       1.778   9.639  18.831  0.00  0.00    +0.000 A 
ATOM     17  C   UNL     1       2.148   8.279  18.810  0.00  0.00    +0.000 A 
BRANCH  17  18
ATOM     18  C   UNL     1       2.851   7.861  17.638  0.00  0.00    +0.000 C 
ATOM     19  N   UNL     1       3.446   7.492  16.709  0.00  0.00    +0.000 NA
ENDBRANCH  17  18
ENDBRANCH   8  11
BRANCH   1  20
ATOM     20  N   UNL     1       5.848   4.252  18.687  0.00  0.00    +0.000 N 
ATOM     21  H   UNL     1       6.004   4.849  19.486  0.00  0.00    +0.000 HD
BRANCH  20  22
ATOM     22  C   UNL     1       6.147   4.961  17.424  0.00  0.00    +0.000 C 
BRANCH  22  23
ATOM     23  C   UNL     1       7.041   6.149  17.742  0.00  0.00    +0.000 A 
ATOM     24  C   UNL     1       6.999   7.330  16.998  0.00  0.00    +0.000 A 
ATOM     25  C   UNL     1       7.715   8.443  17.441  0.00  0.00    +0.000 A 
ATOM     26  C   UNL     1       8.454   8.330  18.608  0.00  0.00    +0.000 A 
ATOM     27  N   UNL     1       8.600   7.178  19.289  0.00  0.00    +0.000 NA
ATOM     28  C   UNL     1       7.906   6.120  18.837  0.00  0.00    +0.000 A 
BRANCH  26  29
ATOM     29  O   UNL     1       9.030   9.479  19.108  0.00  0.00    +0.000 OA
ATOM     30  C   UNL     1       8.891  10.580  18.210  0.00  0.00    +0.000 C 
ENDBRANCH  26  29
ENDBRANCH  22  23
BRANCH  22  31
ATOM     31  C   UNL     1       6.891   4.043  16.410  0.00  0.00    +0.000 C 
BRANCH  31  33
ATOM     32  C   UNL     1       5.388   4.665  14.668  0.00  0.00    +0.000 C 
ATOM     33  O   UNL     1       6.726   4.358  15.027  0.00  0.00    +0.000 OA
ENDBRANCH  31  33
ENDBRANCH  22  31
ENDBRANCH  20  22
ENDBRANCH   1  20
TORSDOF 8
ENDMDL
MODEL 2
REMARK VINA RESULT:      -7.2      2.776      6.992
REMARK  Name = 
REMARK  11 active torsions:
REMARK  status: ('A' for Active; 'I' for Inactive)
REMARK    1  A    between atoms: C_1  and  O_2
REMARK    2  A    between atoms: O_2  and  C_3
REMARK    3  A    between atoms: C_3  and  C_4
REMARK    4  A    between atoms: C_4  and  N_5
REMARK    5  A    between atoms: C_4  and  C_25
REMARK    6  A    between atoms: N_5  and  C_6
REMARK    7  A    between atoms: N_13  and  C_14
REMARK    8  A    between atoms: C_17  and  C_18
REMARK    9  A    between atoms: C_20  and  C_21
REMARK   10  A    between atoms: C_28  and  O_29
REMARK   11  A    between atoms: O_29  and  C_30
REMARK                            x       y       z     vdW  Elec       q    Type
REMARK                         _______ _______ _______ _____ _____    ______ ____
ROOT
ATOM      1  C   UNL     1       2.701   5.396  20.305  0.00  0.00    +0.000 A 
ATOM      2  N   UNL     1       2.237   4.926  21.474  0.00  0.00    +0.000 NA
ATOM      3  C   UNL     1       2.090   3.595  21.580  0.00  0.00    +0.000 A 
ATOM      4  N   UNL     1       2.384   2.679  20.648  0.00  0.00    +0.000 NA
ATOM      5  C   UNL     1       2.870   3.160  19.487  0.00  0.00    +0.000 A 
ATOM      6  C   UNL     1       3.047   4.523  19.267  0.00  0.00    +0.000 A 
ATOM      7  C   UNL     1       3.563   5.018  17.950  0.00  0.00    +0.000 C 
ATOM      8  N   UNL     1       4.278   3.981  17.201  0.00  0.00    +0.000 N 
ATOM      9  C   UNL     1       3.517   2.731  17.064  0.00  0.00    +0.000 C 
ATOM     10  C   UNL     1       3.289   2.135  18.457  0.00  0.00    +0.000 C 
ENDROOT
BRANCH   8  11
ATOM     11  C   UNL     1       5.226   4.325  16.232  0.00  0.00    +0.000 A 
ATOM     12  C   UNL     1       4.838   4.251  14.878  0.00  0.00    +0.000 A 
ATOM     13  C   UNL     1       5.733   4.495  13.821  0.00  0.00    +0.000 A 
ATOM     14  C   UNL     1       7.055   4.843  14.082  0.00  0.00    +0.000 A 
ATOM     15  C   UNL     1       8.038   5.129  12.987  0.00  0.00    +0.000 C 
ATOM     16  C   UNL     1       7.470   4.920  15.407  0.00  0.00    +0.000 A 
ATOM     17  C   UNL     1       6.583   4.659  16.473  0.00  0.00    +0.000 A 
BRANCH  17  18
ATOM     18  C   UNL     1       7.154   4.777  17.777  0.00  0.00    +0.000 C 
ATOM     19  N   UNL     1       7.577   4.880  18.856  0.00  0.00    +0.000 NA
ENDBRANCH  17  18
ENDBRANCH   8  11
BRANCH   1  20
ATOM     20  N   UNL     1       2.708   6.789  20.118  0.00  0.00    +0.000 N 
ATOM     21  H   UNL     1       3.048   7.295  20.923  0.00  0.00    +0.000 HD
BRANCH  20  22
ATOM     22  C   UNL     1       1.479   7.408  19.577  0.00  0.00    +0.000 C 
BRANCH  22  23
ATOM     23  C   UNL     1       1.035   8.504  20.533  0.00  0.00    +0.000 A 
ATOM     24  C   UNL     1       0.039   9.424  20.197  0.00  0.00    +0.000 A 
ATOM     25  C   UNL     1      -0.446  10.294  21.174  0.00  0.00    +0.000 A 
ATOM     26  C   UNL     1       0.089  10.218  22.449  0.00  0.00    +0.000 A 
ATOM     27  N   UNL     1       1.120   9.417  22.778  0.00  0.00    +0.000 NA
ATOM     28  C   UNL     1       1.574   8.594  21.817  0.00  0.00    +0.000 A 
BRANCH  26  29
ATOM     29  O   UNL     1      -0.506  10.978  23.435  0.00  0.00    +0.000 OA
ATOM     30  C   UNL     1      -1.764  11.506  23.014  0.00  0.00    +0.000 C 
ENDBRANCH  26  29
ENDBRANCH  22  23
BRANCH  22  31
ATOM     31  C   UNL     1       1.722   8.046  18.177  0.00  0.00    +0.000 C 
BRANCH  31  33
ATOM     32  C   UNL     1       2.340  10.318  17.809  0.00  0.00    +0.000 C 
ATOM     33  O   UNL     1       2.781   8.999  18.089  0.00  0.00    +0.000 OA
ENDBRANCH  31  33
ENDBRANCH  22  31
ENDBRANCH  20  22
ENDBRANCH   1  20
TORSDOF 8
ENDMDL
MODEL 3
REMARK VINA RESULT:      -6.9      1.969      3.792
REMARK  Name = 
REMARK  11 active torsions:
REMARK  status: ('A' for Active; 'I' for Inactive)
REMARK    1  A    between atoms: C_1  and  O_2
REMARK    2  A    between atoms: O_2  and  C_3
REMARK    3  A    between atoms: C_3  and  C_4
REMARK    4  A    between atoms: C_4  and  N_5
REMARK    5  A    between atoms: C_4  and  C_25
REMARK    6  A    between atoms: N_5  and  C_6
REMARK    7  A    between atoms: N_13  and  C_14
REMARK    8  A    between atoms: C_17  and  C_18
REMARK    9  A    between atoms: C_20  and  C_21
REMARK   10  A    between atoms: C_28  and  O_29
REMARK   11  A    between atoms: O_29  and  C_30
REMARK                            x       y       z     vdW  Elec       q    Type
REMARK                         _______ _______ _______ _____ _____    ______ ____
ROOT
ATOM      1  C   UNL     1       3.587   4.959  17.540  0.00  0.00    +0.000 A 
ATOM      2  N   UNL     1       3.518   3.746  16.969  0.00  0.00    +0.000 NA
ATOM      3  C   UNL     1       2.753   2.827  17.579  0.00  0.00    +0.000 A 
ATOM      4  N   UNL     1       2.023   3.000  18.689  0.00  0.00    +0.000 NA
ATOM      5  C   UNL     1       2.082   4.227  19.242  0.00  0.00    +0.000 A 
ATOM      6  C   UNL     1       2.857   5.248  18.700  0.00  0.00    +0.000 A 
ATOM      7  C   UNL     1       2.917   6.590  19.363  0.00  0.00    +0.000 C 
ATOM      8  N   UNL     1       1.774   6.830  20.250  0.00  0.00    +0.000 N 
ATOM      9  C   UNL     1       1.547   5.744  21.213  0.00  0.00    +0.000 C 
ATOM     10  C   UNL     1       1.197   4.465  20.446  0.00  0.00    +0.000 C 
ENDROOT
BRANCH   8  11
ATOM     11  C   UNL     1       1.377   8.132  20.567  0.00  0.00    +0.000 A 
ATOM     12  C   UNL     1       0.925   8.381  21.879  0.00  0.00    +0.000 A 
ATOM     13  C   UNL     1       0.427   9.632  22.282  0.00  0.00    +0.000 A 
ATOM     14  C   UNL     1       0.379  10.695  21.385  0.00  0.00    +0.000 A 
ATOM     15  C   UNL     1      -0.128  12.051  21.777  0.00  0.00    +0.000 C 
ATOM     16  C   UNL     1       0.814  10.481  20.082  0.00  0.00    +0.000 A 
ATOM     17  C   UNL     1       1.298   9.224  19.664  0.00  0.00    +0.000 A 
BRANCH  17  18
ATOM     18  C   UNL     1       1.708   9.158  18.297  0.00  0.00    +0.000 C 
ATOM     19  N   UNL     1       2.000   9.120  17.172  0.00  0.00    +0.000 NA
ENDBRANCH  17  18
ENDBRANCH   8  11
BRANCH   1  20
ATOM     20  N   UNL     1       4.506   5.881  17.010  0.00  0.00    +0.000 N 
ATOM     21  H   UNL     1       4.255   6.205  16.088  0.00  0.00    +0.000 HD
BRANCH  20  22
ATOM     22  C   UNL     1       5.940   5.525  17.079  0.00  0.00    +0.000 C 
BRANCH  22  23
ATOM     23  C   UNL     1       6.375   5.023  15.711  0.00  0.00    +0.000 A 
ATOM     24  C   UNL     1       5.688   4.009  15.040  0.00  0.00    +0.000 A 
ATOM     25  C   UNL     1       6.028   3.712  13.719  0.00  0.00    +0.000 A 
ATOM     26  C   UNL     1       7.048   4.435  13.122  0.00  0.00    +0.000 A 
ATOM     27  N   UNL     1       7.798   5.343  13.774  0.00  0.00    +0.000 NA
ATOM     28  C   UNL     1       7.455   5.606  15.046  0.00  0.00    +0.000 A 
BRANCH  26  29
ATOM     29  O   UNL     1       7.266   4.231  11.775  0.00  0.00    +0.000 OA
ATOM     30  C   UNL     1       7.087   2.863  11.407  0.00  0.00    +0.000 C 
ENDBRANCH  26  29
ENDBRANCH  22  23
BRANCH  22  31
ATOM     31  C   UNL     1       6.821   6.754  17.455  0.00  0.00    +0.000 C 
BRANCH  31  33
ATOM     32  C   UNL     1       7.301   5.487  19.417  0.00  0.00    +0.000 C 
ATOM     33  O   UNL     1       7.616   6.628  18.634  0.00  0.00    +0.000 OA
ENDBRANCH  31  33
ENDBRANCH  22  31
ENDBRANCH  20  22
ENDBRANCH   1  20
TORSDOF 8
ENDMDL
MODEL 4
REMARK VINA RESULT:      -6.7      1.228      2.051
REMARK  Name = 
REMARK  11 active torsions:
REMARK  status: ('A' for Active; 'I' for Inactive)
REMARK    1  A    between atoms: C_1  and  O_2
REMARK    2  A    between atoms: O_2  and  C_3
REMARK    3  A    between atoms: C_3  and  C_4
REMARK    4  A    between atoms: C_4  and  N_5
REMARK    5  A    between atoms: C_4  and  C_25
REMARK    6  A    between atoms: N_5  and  C_6
REMARK    7  A    between atoms: N_13  and  C_14
REMARK    8  A    between atoms: C_17  and  C_18
REMARK    9  A    between atoms: C_20  and  C_21
REMARK   10  A    between atoms: C_28  and  O_29
REMARK   11  A    between atoms: O_29  and  C_30
REMARK                            x       y       z     vdW  Elec       q    Type
REMARK                         _______ _______ _______ _____ _____    ______ ____
ROOT
ATOM      1  C   UNL     1       4.355   3.435  18.914  0.00  0.00    +0.000 A 
ATOM      2  N   UNL     1       4.227   2.101  18.830  0.00  0.00    +0.000 NA
ATOM      3  C   UNL     1       3.084   1.569  19.292  0.00  0.00    +0.000 A 
ATOM      4  N   UNL     1       2.040   2.232  19.806  0.00  0.00    +0.000 NA
ATOM      5  C   UNL     1       2.171   3.572  19.866  0.00  0.00    +0.000 A 
ATOM      6  C   UNL     1       3.320   4.224  19.429  0.00  0.00    +0.000 A 
ATOM      7  C   UNL     1       3.436   5.714  19.540  0.00  0.00    +0.000 C 
ATOM      8  N   UNL     1       2.131   6.372  19.658  0.00  0.00    +0.000 N 
ATOM      9  C   UNL     1       1.285   5.800  20.715  0.00  0.00    +0.000 C 
ATOM     10  C   UNL     1       0.968   4.344  20.364  0.00  0.00    +0.000 C 
ENDROOT
BRANCH   8  11
ATOM     11  C   UNL     1       1.970   7.711  19.290  0.00  0.00    +0.000 A 
ATOM     12  C   UNL     1       2.541   8.131  18.071  0.00  0.00    +0.000 A 
ATOM     13  C   UNL     1       2.511   9.469  17.643  0.00  0.00    +0.000 A 
ATOM     14  C   UNL     1       1.888  10.443  18.417  0.00  0.00    +0.000 A 
ATOM     15  C   UNL     1       1.817  11.879  17.991  0.00  0.00    +0.000 C 
ATOM     16  C   UNL     1       1.318  10.063  19.627  0.00  0.00    +0.000 A 
ATOM     17  C   UNL     1       1.360   8.725  20.072  0.00  0.00    +0.000 A 
BRANCH  17  18
ATOM     18  C   UNL     1       0.735   8.488  21.334  0.00  0.00    +0.000 C 
ATOM     19  N   UNL     1       0.263   8.274  22.376  0.00  0.00    +0.000 NA
ENDBRANCH  17  18
ENDBRANCH   8  11
BRANCH   1  20
ATOM     20  N   UNL     1       5.603   3.993  18.588  0.00  0.00    +0.000 N 
ATOM     21  H   UNL     1       6.037   4.473  19.363  0.00  0.00    +0.000 HD
BRANCH  20  22
ATOM     22  C   UNL     1       5.685   4.798  17.349  0.00  0.00    +0.000 C 
BRANCH  22  23
ATOM     23  C   UNL     1       6.444   6.078  17.659  0.00  0.00    +0.000 A 
ATOM     24  C   UNL     1       7.533   6.102  18.533  0.00  0.00    +0.000 A 
ATOM     25  C   UNL     1       8.294   7.266  18.644  0.00  0.00    +0.000 A 
ATOM     26  C   UNL     1       7.933   8.366  17.883  0.00  0.00    +0.000 A 
ATOM     27  N   UNL     1       6.829   8.409  17.113  0.00  0.00    +0.000 NA
ATOM     28  C   UNL     1       6.109   7.277  17.028  0.00  0.00    +0.000 A 
BRANCH  26  29
ATOM     29  O   UNL     1       8.783   9.452  17.893  0.00  0.00    +0.000 OA
ATOM     30  C   UNL     1       9.046   9.912  19.219  0.00  0.00    +0.000 C 
ENDBRANCH  26  29
ENDBRANCH  22  23
BRANCH  22  31
ATOM     31  C   UNL     1       6.441   4.039  16.218  0.00  0.00    +0.000 C 
BRANCH  31  33
ATOM     32  C   UNL     1       7.170   4.845  14.097  0.00  0.00    +0.000 C 
ATOM     33  O   UNL     1       7.417   4.788  15.493  0.00  0.00    +0.000 OA
ENDBRANCH  31  33
ENDBRANCH  22  31
ENDBRANCH  20  22
ENDBRANCH   1  20
TORSDOF 8
ENDMDL
MODEL 5
REMARK VINA RESULT:      -6.7      7.728     11.256
REMARK  Name = 
REMARK  11 active torsions:
REMARK  status: ('A' for Active; 'I' for Inactive)
REMARK    1  A    between atoms: C_1  and  O_2
REMARK    2  A    between atoms: O_2  and  C_3
REMARK    3  A    between atoms: C_3  and  C_4
REMARK    4  A    between atoms: C_4  and  N_5
REMARK    5  A    between atoms: C_4  and  C_25
REMARK    6  A    between atoms: N_5  and  C_6
REMARK    7  A    between atoms: N_13  and  C_14
REMARK    8  A    between atoms: C_17  and  C_18
REMARK    9  A    between atoms: C_20  and  C_21
REMARK   10  A    between atoms: C_28  and  O_29
REMARK   11  A    between atoms: O_29  and  C_30
REMARK                            x       y       z     vdW  Elec       q    Type
REMARK                         _______ _______ _______ _____ _____    ______ ____
ROOT
ATOM      1  C   UNL     1      -5.195  12.242  18.257  0.00  0.00    +0.000 A 
ATOM      2  N   UNL     1      -5.830  12.321  17.076  0.00  0.00    +0.000 NA
ATOM      3  C   UNL     1      -6.891  13.142  17.010  0.00  0.00    +0.000 A 
ATOM      4  N   UNL     1      -7.371  13.914  17.994  0.00  0.00    +0.000 NA
ATOM      5  C   UNL     1      -6.713  13.843  19.167  0.00  0.00    +0.000 A 
ATOM      6  C   UNL     1      -5.610  13.013  19.349  0.00  0.00    +0.000 A 
ATOM      7  C   UNL     1      -4.925  12.942  20.679  0.00  0.00    +0.000 C 
ATOM      8  N   UNL     1      -5.197  14.115  21.515  0.00  0.00    +0.000 N 
ATOM      9  C   UNL     1      -6.630  14.418  21.644  0.00  0.00    +0.000 C 
ATOM     10  C   UNL     1      -7.188  14.772  20.262  0.00  0.00    +0.000 C 
ENDROOT
BRANCH   8  11
ATOM     11  C   UNL     1      -4.316  14.485  22.535  0.00  0.00    +0.000 A 
ATOM     12  C   UNL     1      -3.405  15.529  22.271  0.00  0.00    +0.000 A 
ATOM     13  C   UNL     1      -2.422  15.926  23.194  0.00  0.00    +0.000 A 
ATOM     14  C   UNL     1      -2.324  15.300  24.434  0.00  0.00    +0.000 A 
ATOM     15  C   UNL     1      -1.303  15.703  25.455  0.00  0.00    +0.000 C 
ATOM     16  C   UNL     1      -3.205  14.264  24.723  0.00  0.00    +0.000 A 
ATOM     17  C   UNL     1      -4.183  13.848  23.796  0.00  0.00    +0.000 A 
BRANCH  17  18
ATOM     18  C   UNL     1      -5.013  12.771  24.234  0.00  0.00    +0.000 C 
ATOM     19  N   UNL     1      -5.726  11.920  24.581  0.00  0.00    +0.000 NA
ENDBRANCH  17  18
ENDBRANCH   8  11
BRANCH   1  20
ATOM     20  N   UNL     1      -4.187  11.271  18.392  0.00  0.00    +0.000 N 
ATOM     21  H   UNL     1      -4.129  10.889  19.325  0.00  0.00    +0.000 HD
BRANCH  20  22
ATOM     22  C   UNL     1      -2.845  11.608  17.869  0.00  0.00    +0.000 C 
BRANCH  22  23
ATOM     23  C   UNL     1      -1.841  11.473  19.003  0.00  0.00    +0.000 A 
ATOM     24  C   UNL     1      -1.644  12.486  19.944  0.00  0.00    +0.000 A 
ATOM     25  C   UNL     1      -0.840  12.238  21.057  0.00  0.00    +0.000 A 
ATOM     26  C   UNL     1      -0.255  10.988  21.183  0.00  0.00    +0.000 A 
ATOM     27  N   UNL     1      -0.339  10.028  20.243  0.00  0.00    +0.000 NA
ATOM     28  C   UNL     1      -1.114  10.295  19.178  0.00  0.00    +0.000 A 
BRANCH  26  29
ATOM     29  O   UNL     1       0.410  10.714  22.360  0.00  0.00    +0.000 OA
ATOM     30  C   UNL     1      -0.208   9.651  23.086  0.00  0.00    +0.000 C 
ENDBRANCH  26  29
ENDBRANCH  22  23
BRANCH  22  31
ATOM     31  C   UNL     1      -2.419  10.649  16.718  0.00  0.00    +0.000 C 
BRANCH  31  33
ATOM     32  C   UNL     1      -3.127  10.013  14.533  0.00  0.00    +0.000 C 
ATOM     33  O   UNL     1      -2.731  11.072  15.390  0.00  0.00    +0.000 OA
ENDBRANCH  31  33
ENDBRANCH  22  31
ENDBRANCH  20  22
ENDBRANCH   1  20
TORSDOF 8
ENDMDL
MODEL 6
REMARK VINA RESULT:      -6.6      2.215      4.375
REMARK  Name = 
REMARK  11 active torsions:
REMARK  status: ('A' for Active; 'I' for Inactive)
REMARK    1  A    between atoms: C_1  and  O_2
REMARK    2  A    between atoms: O_2  and  C_3
REMARK    3  A    between atoms: C_3  and  C_4
REMARK    4  A    between atoms: C_4  and  N_5
REMARK    5  A    between atoms: C_4  and  C_25
REMARK    6  A    between atoms: N_5  and  C_6
REMARK    7  A    between atoms: N_13  and  C_14
REMARK    8  A    between atoms: C_17  and  C_18
REMARK    9  A    between atoms: C_20  and  C_21
REMARK   10  A    between atoms: C_28  and  O_29
REMARK   11  A    between atoms: O_29  and  C_30
REMARK                            x       y       z     vdW  Elec       q    Type
REMARK                         _______ _______ _______ _____ _____    ______ ____
ROOT
ATOM      1  C   UNL     1       3.634   4.603  17.594  0.00  0.00    +0.000 A 
ATOM      2  N   UNL     1       3.553   3.263  17.538  0.00  0.00    +0.000 NA
ATOM      3  C   UNL     1       2.846   2.655  18.505  0.00  0.00    +0.000 A 
ATOM      4  N   UNL     1       2.186   3.247  19.509  0.00  0.00    +0.000 NA
ATOM      5  C   UNL     1       2.256   4.592  19.542  0.00  0.00    +0.000 A 
ATOM      6  C   UNL     1       2.974   5.320  18.599  0.00  0.00    +0.000 A 
ATOM      7  C   UNL     1       3.050   6.813  18.690  0.00  0.00    +0.000 C 
ATOM      8  N   UNL     1       1.962   7.384  19.490  0.00  0.00    +0.000 N 
ATOM      9  C   UNL     1       1.818   6.754  20.810  0.00  0.00    +0.000 C 
ATOM     10  C   UNL     1       1.445   5.281  20.618  0.00  0.00    +0.000 C 
ENDROOT
BRANCH   8  11
ATOM     11  C   UNL     1       1.561   8.711  19.308  0.00  0.00    +0.000 A 
ATOM     12  C   UNL     1       2.179   9.449  18.278  0.00  0.00    +0.000 A 
ATOM     13  C   UNL     1       1.912  10.811  18.059  0.00  0.00    +0.000 A 
ATOM     14  C   UNL     1       0.995  11.488  18.858  0.00  0.00    +0.000 A 
ATOM     15  C   UNL     1       0.667  12.936  18.650  0.00  0.00    +0.000 C 
ATOM     16  C   UNL     1       0.371  10.789  19.886  0.00  0.00    +0.000 A 
ATOM     17  C   UNL     1       0.647   9.426  20.123  0.00  0.00    +0.000 A 
BRANCH  17  18
ATOM     18  C   UNL     1      -0.070   8.845  21.214  0.00  0.00    +0.000 C 
ATOM     19  N   UNL     1      -0.649   8.411  22.125  0.00  0.00    +0.000 NA
ENDBRANCH  17  18
ENDBRANCH   8  11
BRANCH   1  20
ATOM     20  N   UNL     1       4.500   5.243  16.691  0.00  0.00    +0.000 N 
ATOM     21  H   UNL     1       4.082   5.400  15.785  0.00  0.00    +0.000 HD
BRANCH  20  22
ATOM     22  C   UNL     1       5.869   4.699  16.560  0.00  0.00    +0.000 C 
BRANCH  22  23
ATOM     23  C   UNL     1       6.186   4.553  15.080  0.00  0.00    +0.000 A 
ATOM     24  C   UNL     1       7.327   5.118  14.506  0.00  0.00    +0.000 A 
ATOM     25  C   UNL     1       7.655   4.806  13.186  0.00  0.00    +0.000 A 
ATOM     26  C   UNL     1       6.824   3.946  12.486  0.00  0.00    +0.000 A 
ATOM     27  N   UNL     1       5.663   3.470  12.974  0.00  0.00    +0.000 NA
ATOM     28  C   UNL     1       5.367   3.791  14.245  0.00  0.00    +0.000 A 
BRANCH  26  29
ATOM     29  O   UNL     1       7.243   3.533  11.239  0.00  0.00    +0.000 OA
ATOM     30  C   UNL     1       7.349   2.111  11.157  0.00  0.00    +0.000 C 
ENDBRANCH  26  29
ENDBRANCH  22  23
BRANCH  22  31
ATOM     31  C   UNL     1       6.928   5.645  17.199  0.00  0.00    +0.000 C 
BRANCH  31  33
ATOM     32  C   UNL     1       7.652   7.895  17.511  0.00  0.00    +0.000 C 
ATOM     33  O   UNL     1       6.552   7.015  17.344  0.00  0.00    +0.000 OA
ENDBRANCH  31  33
ENDBRANCH  22  31
ENDBRANCH  20  22
ENDBRANCH   1  20
TORSDOF 8
ENDMDL
MODEL 7
REMARK VINA RESULT:      -6.5      4.355      8.432
REMARK  Name = 
REMARK  11 active torsions:
REMARK  status: ('A' for Active; 'I' for Inactive)
REMARK    1  A    between atoms: C_1  and  O_2
REMARK    2  A    between atoms: O_2  and  C_3
REMARK    3  A    between atoms: C_3  and  C_4
REMARK    4  A    between atoms: C_4  and  N_5
REMARK    5  A    between atoms: C_4  and  C_25
REMARK    6  A    between atoms: N_5  and  C_6
REMARK    7  A    between atoms: N_13  and  C_14
REMARK    8  A    between atoms: C_17  and  C_18
REMARK    9  A    between atoms: C_20  and  C_21
REMARK   10  A    between atoms: C_28  and  O_29
REMARK   11  A    between atoms: O_29  and  C_30
REMARK                            x       y       z     vdW  Elec       q    Type
REMARK                         _______ _______ _______ _____ _____    ______ ____
ROOT
ATOM      1  C   UNL     1       0.501  10.520  18.926  0.00  0.00    +0.000 A 
ATOM      2  N   UNL     1      -0.642  10.015  18.434  0.00  0.00    +0.000 NA
ATOM      3  C   UNL     1      -1.605  10.893  18.108  0.00  0.00    +0.000 A 
ATOM      4  N   UNL     1      -1.536  12.228  18.195  0.00  0.00    +0.000 NA
ATOM      5  C   UNL     1      -0.376  12.724  18.669  0.00  0.00    +0.000 A 
ATOM      6  C   UNL     1       0.680  11.902  19.051  0.00  0.00    +0.000 A 
ATOM      7  C   UNL     1       1.942  12.494  19.601  0.00  0.00    +0.000 C 
ATOM      8  N   UNL     1       2.109  13.903  19.230  0.00  0.00    +0.000 N 
ATOM      9  C   UNL     1       0.932  14.728  19.531  0.00  0.00    +0.000 C 
ATOM     10  C   UNL     1      -0.250  14.231  18.693  0.00  0.00    +0.000 C 
ENDROOT
BRANCH   8  11
ATOM     11  C   UNL     1       3.379  14.488  19.205  0.00  0.00    +0.000 A 
ATOM     12  C   UNL     1       4.041  14.573  17.963  0.00  0.00    +0.000 A 
ATOM     13  C   UNL     1       5.350  15.067  17.836  0.00  0.00    +0.000 A 
ATOM     14  C   UNL     1       6.046  15.515  18.954  0.00  0.00    +0.000 A 
ATOM     15  C   UNL     1       7.438  16.066  18.863  0.00  0.00    +0.000 C 
ATOM     16  C   UNL     1       5.423  15.441  20.196  0.00  0.00    +0.000 A 
ATOM     17  C   UNL     1       4.116  14.930  20.334  0.00  0.00    +0.000 A 
BRANCH  17  18
ATOM     18  C   UNL     1       3.611  14.916  21.670  0.00  0.00    +0.000 C 
ATOM     19  N   UNL     1       3.226  14.940  22.768  0.00  0.00    +0.000 NA
ENDBRANCH  17  18
ENDBRANCH   8  11
BRANCH   1  20
ATOM     20  N   UNL     1       1.454   9.614  19.423  0.00  0.00    +0.000 N 
ATOM     21  H   UNL     1       2.012   9.189  18.697  0.00  0.00    +0.000 HD
BRANCH  20  22
ATOM     22  C   UNL     1       0.988   8.605  20.399  0.00  0.00    +0.000 C 
BRANCH  22  23
ATOM     23  C   UNL     1       1.726   7.303  20.131  0.00  0.00    +0.000 A 
ATOM     24  C   UNL     1       1.572   6.181  20.948  0.00  0.00    +0.000 A 
ATOM     25  C   UNL     1       2.137   4.967  20.556  0.00  0.00    +0.000 A 
ATOM     26  C   UNL     1       2.843   4.923  19.365  0.00  0.00    +0.000 A 
ATOM     27  N   UNL     1       3.099   6.007  18.609  0.00  0.00    +0.000 NA
ATOM     28  C   UNL     1       2.549   7.165  19.013  0.00  0.00    +0.000 A 
BRANCH  26  29
ATOM     29  O   UNL     1       3.264   3.686  18.921  0.00  0.00    +0.000 OA
ATOM     30  C   UNL     1       3.131   2.684  19.931  0.00  0.00    +0.000 C 
ENDBRANCH  26  29
ENDBRANCH  22  23
BRANCH  22  31
ATOM     31  C   UNL     1       1.281   9.044  21.865  0.00  0.00    +0.000 C 
BRANCH  31  33
ATOM     32  C   UNL     1      -0.531  10.007  23.078  0.00  0.00    +0.000 C 
ATOM     33  O   UNL     1       0.640  10.239  22.310  0.00  0.00    +0.000 OA
ENDBRANCH  31  33
ENDBRANCH  22  31
ENDBRANCH  20  22
ENDBRANCH   1  20
TORSDOF 8
ENDMDL
MODEL 8
REMARK VINA RESULT:      -6.4      2.124      3.927
REMARK  Name = 
REMARK  11 active torsions:
REMARK  status: ('A' for Active; 'I' for Inactive)
REMARK    1  A    between atoms: C_1  and  O_2
REMARK    2  A    between atoms: O_2  and  C_3
REMARK    3  A    between atoms: C_3  and  C_4
REMARK    4  A    between atoms: C_4  and  N_5
REMARK    5  A    between atoms: C_4  and  C_25
REMARK    6  A    between atoms: N_5  and  C_6
REMARK    7  A    between atoms: N_13  and  C_14
REMARK    8  A    between atoms: C_17  and  C_18
REMARK    9  A    between atoms: C_20  and  C_21
REMARK   10  A    between atoms: C_28  and  O_29
REMARK   11  A    between atoms: O_29  and  C_30
REMARK                            x       y       z     vdW  Elec       q    Type
REMARK                         _______ _______ _______ _____ _____    ______ ____
ROOT
ATOM      1  C   UNL     1       3.453   4.304  17.704  0.00  0.00    +0.000 A 
ATOM      2  N   UNL     1       3.277   2.973  17.665  0.00  0.00    +0.000 NA
ATOM      3  C   UNL     1       2.501   2.433  18.618  0.00  0.00    +0.000 A 
ATOM      4  N   UNL     1       1.856   3.087  19.594  0.00  0.00    +0.000 NA
ATOM      5  C   UNL     1       2.021   4.424  19.610  0.00  0.00    +0.000 A 
ATOM      6  C   UNL     1       2.818   5.083  18.678  0.00  0.00    +0.000 A 
ATOM      7  C   UNL     1       2.999   6.568  18.750  0.00  0.00    +0.000 C 
ATOM      8  N   UNL     1       1.931   7.228  19.509  0.00  0.00    +0.000 N 
ATOM      9  C   UNL     1       1.704   6.632  20.833  0.00  0.00    +0.000 C 
ATOM     10  C   UNL     1       1.232   5.186  20.651  0.00  0.00    +0.000 C 
ENDROOT
BRANCH   8  11
ATOM     11  C   UNL     1       1.633   8.577  19.296  0.00  0.00    +0.000 A 
ATOM     12  C   UNL     1       2.264   9.228  18.215  0.00  0.00    +0.000 A 
ATOM     13  C   UNL     1       2.100  10.600  17.959  0.00  0.00    +0.000 A 
ATOM     14  C   UNL     1       1.277  11.376  18.770  0.00  0.00    +0.000 A 
ATOM     15  C   UNL     1       1.060  12.839  18.524  0.00  0.00    +0.000 C 
ATOM     16  C   UNL     1       0.644  10.765  19.848  0.00  0.00    +0.000 A 
ATOM     17  C   UNL     1       0.818   9.393  20.122  0.00  0.00    +0.000 A 
BRANCH  17  18
ATOM     18  C   UNL     1       0.104   8.909  21.262  0.00  0.00    +0.000 C 
ATOM     19  N   UNL     1      -0.515   8.526  22.169  0.00  0.00    +0.000 NA
ENDBRANCH  17  18
ENDBRANCH   8  11
BRANCH   1  20
ATOM     20  N   UNL     1       4.389   4.866  16.818  0.00  0.00    +0.000 N 
ATOM     21  H   UNL     1       4.045   4.934  15.872  0.00  0.00    +0.000 HD
BRANCH  20  22
ATOM     22  C   UNL     1       5.764   4.323  16.849  0.00  0.00    +0.000 C 
BRANCH  22  23
ATOM     23  C   UNL     1       6.305   4.307  15.428  0.00  0.00    +0.000 A 
ATOM     24  C   UNL     1       5.674   3.601  14.402  0.00  0.00    +0.000 A 
ATOM     25  C   UNL     1       6.115   3.762  13.089  0.00  0.00    +0.000 A 
ATOM     26  C   UNL     1       7.178   4.619  12.851  0.00  0.00    +0.000 A 
ATOM     27  N   UNL     1       7.874   5.232  13.827  0.00  0.00    +0.000 NA
ATOM     28  C   UNL     1       7.433   5.054  15.084  0.00  0.00    +0.000 A 
BRANCH  26  29
ATOM     29  O   UNL     1       7.501   4.881  11.536  0.00  0.00    +0.000 OA
ATOM     30  C   UNL     1       7.896   6.240  11.345  0.00  0.00    +0.000 C 
ENDBRANCH  26  29
ENDBRANCH  22  23
BRANCH  22  31
ATOM     31  C   UNL     1       6.709   5.200  17.725  0.00  0.00    +0.000 C 
BRANCH  31  33
ATOM     32  C   UNL     1       7.468   7.457  17.630  0.00  0.00    +0.000 C 
ATOM     33  O   UNL     1       6.370   6.583  17.837  0.00  0.00    +0.000 OA
ENDBRANCH  31  33
ENDBRANCH  22  31
ENDBRANCH  20  22
ENDBRANCH   1  20
TORSDOF 8
ENDMDL
MODEL 9
REMARK VINA RESULT:      -6.4      1.694      3.707
REMARK  Name = 
REMARK  11 active torsions:
REMARK  status: ('A' for Active; 'I' for Inactive)
REMARK    1  A    between atoms: C_1  and  O_2
REMARK    2  A    between atoms: O_2  and  C_3
REMARK    3  A    between atoms: C_3  and  C_4
REMARK    4  A    between atoms: C_4  and  N_5
REMARK    5  A    between atoms: C_4  and  C_25
REMARK    6  A    between atoms: N_5  and  C_6
REMARK    7  A    between atoms: N_13  and  C_14
REMARK    8  A    between atoms: C_17  and  C_18
REMARK    9  A    between atoms: C_20  and  C_21
REMARK   10  A    between atoms: C_28  and  O_29
REMARK   11  A    between atoms: O_29  and  C_30
REMARK                            x       y       z     vdW  Elec       q    Type
REMARK                         _______ _______ _______ _____ _____    ______ ____
ROOT
ATOM      1  C   UNL     1       4.121   4.329  18.243  0.00  0.00    +0.000 A 
ATOM      2  N   UNL     1       4.107   3.060  17.803  0.00  0.00    +0.000 NA
ATOM      3  C   UNL     1       3.158   2.253  18.303  0.00  0.00    +0.000 A 
ATOM      4  N   UNL     1       2.201   2.586  19.179  0.00  0.00    +0.000 NA
ATOM      5  C   UNL     1       2.211   3.867  19.597  0.00  0.00    +0.000 A 
ATOM      6  C   UNL     1       3.160   4.783  19.153  0.00  0.00    +0.000 A 
ATOM      7  C   UNL     1       3.154   6.191  19.666  0.00  0.00    +0.000 C 
ATOM      8  N   UNL     1       1.853   6.581  20.219  0.00  0.00    +0.000 N 
ATOM      9  C   UNL     1       1.331   5.628  21.208  0.00  0.00    +0.000 C 
ATOM     10  C   UNL     1       1.086   4.282  20.519  0.00  0.00    +0.000 C 
ENDROOT
BRANCH   8  11
ATOM     11  C   UNL     1       1.483   7.927  20.292  0.00  0.00    +0.000 A 
ATOM     12  C   UNL     1       0.834   8.370  21.463  0.00  0.00    +0.000 A 
ATOM     13  C   UNL     1       0.347   9.680  21.609  0.00  0.00    +0.000 A 
ATOM     14  C   UNL     1       0.508  10.610  20.587  0.00  0.00    +0.000 A 
ATOM     15  C   UNL     1       0.019  12.023  20.706  0.00  0.00    +0.000 C 
ATOM     16  C   UNL     1       1.140  10.204  19.416  0.00  0.00    +0.000 A 
ATOM     17  C   UNL     1       1.615   8.887  19.255  0.00  0.00    +0.000 A 
BRANCH  17  18
ATOM     18  C   UNL     1       2.240   8.619  17.998  0.00  0.00    +0.000 C 
ATOM     19  N   UNL     1       2.708   8.394  16.957  0.00  0.00    +0.000 NA
ENDBRANCH  17  18
ENDBRANCH   8  11
BRANCH   1  20
ATOM     20  N   UNL     1       5.201   5.142  17.857  0.00  0.00    +0.000 N 
ATOM     21  H   UNL     1       4.937   5.869  17.209  0.00  0.00    +0.000 HD
BRANCH  20  22
ATOM     22  C   UNL     1       6.441   4.464  17.422  0.00  0.00    +0.000 C 
BRANCH  22  23
ATOM     23  C   UNL     1       6.464   4.436  15.902  0.00  0.00    +0.000 A 
ATOM     24  C   UNL     1       7.425   5.128  15.162  0.00  0.00    +0.000 A 
ATOM     25  C   UNL     1       7.502   4.927  13.783  0.00  0.00    +0.000 A 
ATOM     26  C   UNL     1       6.607   4.047  13.195  0.00  0.00    +0.000 A 
ATOM     27  N   UNL     1       5.603   3.448  13.862  0.00  0.00    +0.000 NA
ATOM     28  C   UNL     1       5.548   3.664  15.187  0.00  0.00    +0.000 A 
BRANCH  26  29
ATOM     29  O   UNL     1       6.795   3.748  11.861  0.00  0.00    +0.000 OA
ATOM     30  C   UNL     1       6.032   2.610  11.458  0.00  0.00    +0.000 C 
ENDBRANCH  26  29
ENDBRANCH  22  23
BRANCH  22  31
ATOM     31  C   UNL     1       7.713   5.214  17.920  0.00  0.00    +0.000 C 
BRANCH  31  33
ATOM     32  C   UNL     1       7.736   7.595  17.813  0.00  0.00    +0.000 C 
ATOM     33  O   UNL     1       7.495   6.445  18.609  0.00  0.00    +0.000 OA
ENDBRANCH  31  33
ENDBRANCH  22  31
ENDBRANCH  20  22
ENDBRANCH   1  20
TORSDOF 8
ENDMDL
