MODEL 1
REMARK VINA RESULT:      -7.6      0.000      0.000
REMARK  Name = 
REMARK  6 active torsions:
REMARK  status: ('A' for Active; 'I' for Inactive)
REMARK    1  A    between atoms: C_2  and  C_3
REMARK    2  A    between atoms: C_2  and  C_17
REMARK    3  A    between atoms: C_3  and  C_4
REMARK    4  A    between atoms: C_4  and  C_5
REMARK    5  A    between atoms: C_4  and  C_12
REMARK    6  A    between atoms: C_5  and  C_7
REMARK                            x       y       z     vdW  Elec       q    Type
REMARK                         _______ _______ _______ _____ _____    ______ ____
ROOT
ATOM      1  C   UNL     1       2.905   5.716  17.944  0.00  0.00    +0.000 C 
ENDROOT
BRANCH   1   2
ATOM      2  C   UNL     1       2.258   4.647  18.809  0.00  0.00    +0.000 A 
ATOM      3  C   UNL     1       1.341   3.659  18.313  0.00  0.00    +0.000 A 
ATOM      4  C   UNL     1       0.848   2.839  19.304  0.00  0.00    +0.000 A 
ATOM      5  S   UNL     1       1.489   3.233  20.837  0.00  0.00    +0.000 S 
ATOM      6  C   UNL     1       2.432   4.496  20.175  0.00  0.00    +0.000 A 
ENDBRANCH   1   2
BRANCH   1   7
ATOM      7  C   UNL     1       4.196   5.199  17.283  0.00  0.00    +0.000 C 
ATOM      8  O   UNL     1       4.135   4.232  16.511  0.00  0.00    +0.000 OA
BRANCH   7   9
ATOM      9  C   UNL     1       5.481   5.785  17.655  0.00  0.00    +0.000 A 
ATOM     10  C   UNL     1       6.118   6.831  17.010  0.00  0.00    +0.000 A 
ATOM     11  C   UNL     1       7.396   7.125  17.565  0.00  0.00    +0.000 A 
ATOM     12  C   UNL     1       7.677   6.326  18.650  0.00  0.00    +0.000 A 
ATOM     13  S   UNL     1       6.398   5.246  18.996  0.00  0.00    +0.000 S 
ENDBRANCH   7   9
ENDBRANCH   1   7
BRANCH   1  14
ATOM     14  C   UNL     1       3.247   6.969  18.776  0.00  0.00    +0.000 C 
BRANCH  14  16
ATOM     15  O   UNL     1       2.182   8.529  17.303  0.00  0.00    +0.000 OA
ATOM     16  C   UNL     1       2.304   8.115  18.455  0.00  0.00    +0.000 C 
BRANCH  16  17
ATOM     17  C   UNL     1       1.478   8.730  19.540  0.00  0.00    +0.000 A 
ATOM     18  C   UNL     1       1.508   8.133  20.811  0.00  0.00    +0.000 A 
ATOM     19  C   UNL     1       0.755   8.660  21.865  0.00  0.00    +0.000 A 
ATOM     20  C   UNL     1      -0.037   9.784  21.652  0.00  0.00    +0.000 A 
ATOM     21 CL   UNL     1      -0.966  10.437  22.944  0.00  0.00    +0.000 Cl
ATOM     22  C   UNL     1      -0.078  10.386  20.397  0.00  0.00    +0.000 A 
ATOM     23  C   UNL     1       0.681   9.864  19.342  0.00  0.00    +0.000 A 
ENDBRANCH  16  17
ENDBRANCH  14  16
ENDBRANCH   1  14
TORSDOF 6
ENDMDL
MODEL 2
REMARK VINA RESULT:      -7.5      0.120      1.013
REMARK  Name = 
REMARK  6 active torsions:
REMARK  status: ('A' for Active; 'I' for Inactive)
REMARK    1  A    between atoms: C_2  and  C_3
REMARK    2  A    between atoms: C_2  and  C_17
REMARK    3  A    between atoms: C_3  and  C_4
REMARK    4  A    between atoms: C_4  and  C_5
REMARK    5  A    between atoms: C_4  and  C_12
REMARK    6  A    between atoms: C_5  and  C_7
REMARK                            x       y       z     vdW  Elec       q    Type
REMARK                         _______ _______ _______ _____ _____    ______ ____
ROOT
ATOM      1  C   UNL     1       2.883   5.708  18.009  0.00  0.00    +0.000 C 
ENDROOT
BRANCH   1   2
ATOM      2  C   UNL     1       2.259   4.661  18.917  0.00  0.00    +0.000 A 
ATOM      3  C   UNL     1       1.329   3.661  18.469  0.00  0.00    +0.000 A 
ATOM      4  C   UNL     1       0.863   2.866  19.493  0.00  0.00    +0.000 A 
ATOM      5  S   UNL     1       1.543   3.297  20.998  0.00  0.00    +0.000 S 
ATOM      6  C   UNL     1       2.468   4.543  20.281  0.00  0.00    +0.000 A 
ENDBRANCH   1   2
BRANCH   1   7
ATOM      7  C   UNL     1       4.158   5.176  17.331  0.00  0.00    +0.000 C 
ATOM      8  O   UNL     1       4.079   4.194  16.580  0.00  0.00    +0.000 OA
BRANCH   7   9
ATOM      9  C   UNL     1       5.452   5.766  17.664  0.00  0.00    +0.000 A 
ATOM     10  C   UNL     1       6.083   6.788  16.975  0.00  0.00    +0.000 A 
ATOM     11  C   UNL     1       7.372   7.093  17.501  0.00  0.00    +0.000 A 
ATOM     12  C   UNL     1       7.666   6.327  18.606  0.00  0.00    +0.000 A 
ATOM     13  S   UNL     1       6.388   5.266  19.006  0.00  0.00    +0.000 S 
ENDBRANCH   7   9
ENDBRANCH   1   7
BRANCH   1  14
ATOM     14  C   UNL     1       3.243   6.983  18.801  0.00  0.00    +0.000 C 
BRANCH  14  16
ATOM     15  O   UNL     1       2.087   8.507  17.359  0.00  0.00    +0.000 OA
ATOM     16  C   UNL     1       2.262   8.104  18.508  0.00  0.00    +0.000 C 
BRANCH  16  17
ATOM     17  C   UNL     1       1.464   8.708  19.620  0.00  0.00    +0.000 A 
ATOM     18  C   UNL     1       0.699   9.852  19.338  0.00  0.00    +0.000 A 
ATOM     19  C   UNL     1      -0.066  10.463  20.336  0.00  0.00    +0.000 A 
ATOM     20  C   UNL     1      -0.067   9.936  21.624  0.00  0.00    +0.000 A 
ATOM     21 CL   UNL     1      -1.004  10.683  22.857  0.00  0.00    +0.000 Cl
ATOM     22  C   UNL     1       0.688   8.803  21.919  0.00  0.00    +0.000 A 
ATOM     23  C   UNL     1       1.449   8.186  20.919  0.00  0.00    +0.000 A 
ENDBRANCH  16  17
ENDBRANCH  14  16
ENDBRANCH   1  14
TORSDOF 6
ENDMDL
MODEL 3
REMARK VINA RESULT:      -7.5      3.690      6.855
REMARK  Name = 
REMARK  6 active torsions:
REMARK  status: ('A' for Active; 'I' for Inactive)
REMARK    1  A    between atoms: C_2  and  C_3
REMARK    2  A    between atoms: C_2  and  C_17
REMARK    3  A    between atoms: C_3  and  C_4
REMARK    4  A    between atoms: C_4  and  C_5
REMARK    5  A    between atoms: C_4  and  C_12
REMARK    6  A    between atoms: C_5  and  C_7
REMARK                            x       y       z     vdW  Elec       q    Type
REMARK                         _______ _______ _______ _____ _____    ______ ____
ROOT
ATOM      1  C   UNL     1       3.095   5.853  18.224  0.00  0.00    +0.000 C 
ENDROOT
BRANCH   1   2
ATOM      2  C   UNL     1       2.494   7.224  18.489  0.00  0.00    +0.000 A 
ATOM      3  C   UNL     1       1.967   7.637  19.760  0.00  0.00    +0.000 A 
ATOM      4  C   UNL     1       1.426   8.904  19.730  0.00  0.00    +0.000 A 
ATOM      5  S   UNL     1       1.559   9.619  18.185  0.00  0.00    +0.000 S 
ATOM      6  C   UNL     1       2.345   8.237  17.557  0.00  0.00    +0.000 A 
ENDBRANCH   1   2
BRANCH   1   7
ATOM      7  C   UNL     1       2.019   4.751  18.263  0.00  0.00    +0.000 C 
ATOM      8  O   UNL     1       1.225   4.647  17.317  0.00  0.00    +0.000 OA
BRANCH   7   9
ATOM      9  C   UNL     1       1.883   3.918  19.454  0.00  0.00    +0.000 A 
ATOM     10  C   UNL     1       1.521   4.355  20.718  0.00  0.00    +0.000 A 
ATOM     11  C   UNL     1       1.552   3.314  21.690  0.00  0.00    +0.000 A 
ATOM     12  C   UNL     1       1.889   2.103  21.130  0.00  0.00    +0.000 A 
ATOM     13  S   UNL     1       2.149   2.228  19.446  0.00  0.00    +0.000 S 
ENDBRANCH   7   9
ENDBRANCH   1   7
BRANCH   1  14
ATOM     14  C   UNL     1       4.182   5.514  19.265  0.00  0.00    +0.000 C 
BRANCH  14  16
ATOM     15  O   UNL     1       5.460   3.494  19.428  0.00  0.00    +0.000 OA
ATOM     16  C   UNL     1       5.137   4.459  18.736  0.00  0.00    +0.000 C 
BRANCH  16  17
ATOM     17  C   UNL     1       5.666   4.561  17.340  0.00  0.00    +0.000 A 
ATOM     18  C   UNL     1       6.825   5.326  17.128  0.00  0.00    +0.000 A 
ATOM     19  C   UNL     1       7.366   5.461  15.846  0.00  0.00    +0.000 A 
ATOM     20  C   UNL     1       6.748   4.838  14.767  0.00  0.00    +0.000 A 
ATOM     21 CL   UNL     1       7.407   5.001  13.188  0.00  0.00    +0.000 Cl
ATOM     22  C   UNL     1       5.596   4.078  14.961  0.00  0.00    +0.000 A 
ATOM     23  C   UNL     1       5.057   3.935  16.246  0.00  0.00    +0.000 A 
ENDBRANCH  16  17
ENDBRANCH  14  16
ENDBRANCH   1  14
TORSDOF 6
ENDMDL
MODEL 4
REMARK VINA RESULT:      -7.4      3.650      6.804
REMARK  Name = 
REMARK  6 active torsions:
REMARK  status: ('A' for Active; 'I' for Inactive)
REMARK    1  A    between atoms: C_2  and  C_3
REMARK    2  A    between atoms: C_2  and  C_17
REMARK    3  A    between atoms: C_3  and  C_4
REMARK    4  A    between atoms: C_4  and  C_5
REMARK    5  A    between atoms: C_4  and  C_12
REMARK    6  A    between atoms: C_5  and  C_7
REMARK                            x       y       z     vdW  Elec       q    Type
REMARK                         _______ _______ _______ _____ _____    ______ ____
ROOT
ATOM      1  C   UNL     1       3.071   5.853  18.281  0.00  0.00    +0.000 C 
ENDROOT
BRANCH   1   2
ATOM      2  C   UNL     1       2.430   7.204  18.556  0.00  0.00    +0.000 A 
ATOM      3  C   UNL     1       2.295   8.243  17.573  0.00  0.00    +0.000 A 
ATOM      4  C   UNL     1       1.734   9.393  18.084  0.00  0.00    +0.000 A 
ATOM      5  S   UNL     1       1.347   9.236  19.739  0.00  0.00    +0.000 S 
ATOM      6  C   UNL     1       1.925   7.627  19.774  0.00  0.00    +0.000 A 
ENDBRANCH   1   2
BRANCH   1   7
ATOM      7  C   UNL     1       2.022   4.725  18.270  0.00  0.00    +0.000 C 
ATOM      8  O   UNL     1       1.263   4.614  17.296  0.00  0.00    +0.000 OA
BRANCH   7   9
ATOM      9  C   UNL     1       1.866   3.874  19.446  0.00  0.00    +0.000 A 
ATOM     10  C   UNL     1       1.417   4.279  20.692  0.00  0.00    +0.000 A 
ATOM     11  C   UNL     1       1.449   3.231  21.656  0.00  0.00    +0.000 A 
ATOM     12  C   UNL     1       1.875   2.043  21.105  0.00  0.00    +0.000 A 
ATOM     13  S   UNL     1       2.216   2.199  19.438  0.00  0.00    +0.000 S 
ENDBRANCH   7   9
ENDBRANCH   1   7
BRANCH   1  14
ATOM     14  C   UNL     1       4.138   5.520  19.344  0.00  0.00    +0.000 C 
BRANCH  14  16
ATOM     15  O   UNL     1       5.435   3.511  19.488  0.00  0.00    +0.000 OA
ATOM     16  C   UNL     1       5.133   4.499  18.821  0.00  0.00    +0.000 C 
BRANCH  16  17
ATOM     17  C   UNL     1       5.729   4.667  17.459  0.00  0.00    +0.000 A 
ATOM     18  C   UNL     1       5.253   3.845  16.424  0.00  0.00    +0.000 A 
ATOM     19  C   UNL     1       5.773   3.953  15.130  0.00  0.00    +0.000 A 
ATOM     20  C   UNL     1       6.776   4.881  14.865  0.00  0.00    +0.000 A 
ATOM     21 CL   UNL     1       7.421   5.018  13.277  0.00  0.00    +0.000 Cl
ATOM     22  C   UNL     1       7.260   5.701  15.882  0.00  0.00    +0.000 A 
ATOM     23  C   UNL     1       6.736   5.599  17.176  0.00  0.00    +0.000 A 
ENDBRANCH  16  17
ENDBRANCH  14  16
ENDBRANCH   1  14
TORSDOF 6
ENDMDL
MODEL 5
REMARK VINA RESULT:      -7.4      0.753      1.618
REMARK  Name = 
REMARK  6 active torsions:
REMARK  status: ('A' for Active; 'I' for Inactive)
REMARK    1  A    between atoms: C_2  and  C_3
REMARK    2  A    between atoms: C_2  and  C_17
REMARK    3  A    between atoms: C_3  and  C_4
REMARK    4  A    between atoms: C_4  and  C_5
REMARK    5  A    between atoms: C_4  and  C_12
REMARK    6  A    between atoms: C_5  and  C_7
REMARK                            x       y       z     vdW  Elec       q    Type
REMARK                         _______ _______ _______ _____ _____    ______ ____
ROOT
ATOM      1  C   UNL     1       2.925   5.842  18.049  0.00  0.00    +0.000 C 
ENDROOT
BRANCH   1   2
ATOM      2  C   UNL     1       2.324   4.892  19.072  0.00  0.00    +0.000 A 
ATOM      3  C   UNL     1       2.637   4.920  20.474  0.00  0.00    +0.000 A 
ATOM      4  C   UNL     1       2.008   3.920  21.183  0.00  0.00    +0.000 A 
ATOM      5  S   UNL     1       1.024   2.948  20.183  0.00  0.00    +0.000 S 
ATOM      6  C   UNL     1       1.433   3.867  18.800  0.00  0.00    +0.000 A 
ENDBRANCH   1   2
BRANCH   1   7
ATOM      7  C   UNL     1       4.187   5.244  17.401  0.00  0.00    +0.000 C 
ATOM      8  O   UNL     1       4.065   4.402  16.500  0.00  0.00    +0.000 OA
BRANCH   7   9
ATOM      9  C   UNL     1       5.503   5.597  17.927  0.00  0.00    +0.000 A 
ATOM     10  C   UNL     1       6.093   5.077  19.067  0.00  0.00    +0.000 A 
ATOM     11  C   UNL     1       7.350   5.679  19.361  0.00  0.00    +0.000 A 
ATOM     12  C   UNL     1       7.707   6.607  18.408  0.00  0.00    +0.000 A 
ATOM     13  S   UNL     1       6.537   6.732  17.169  0.00  0.00    +0.000 S 
ENDBRANCH   7   9
ENDBRANCH   1   7
BRANCH   1  14
ATOM     14  C   UNL     1       3.297   7.191  18.698  0.00  0.00    +0.000 C 
BRANCH  14  16
ATOM     15  O   UNL     1       1.963   8.619  17.314  0.00  0.00    +0.000 OA
ATOM     16  C   UNL     1       2.220   8.233  18.453  0.00  0.00    +0.000 C 
BRANCH  16  17
ATOM     17  C   UNL     1       1.428   8.773  19.601  0.00  0.00    +0.000 A 
ATOM     18  C   UNL     1       0.596   9.881  19.366  0.00  0.00    +0.000 A 
ATOM     19  C   UNL     1      -0.167  10.432  20.400  0.00  0.00    +0.000 A 
ATOM     20  C   UNL     1      -0.097   9.883  21.677  0.00  0.00    +0.000 A 
ATOM     21 CL   UNL     1      -1.032  10.557  22.953  0.00  0.00    +0.000 Cl
ATOM     22  C   UNL     1       0.724   8.786  21.925  0.00  0.00    +0.000 A 
ATOM     23  C   UNL     1       1.484   8.228  20.890  0.00  0.00    +0.000 A 
ENDBRANCH  16  17
ENDBRANCH  14  16
ENDBRANCH   1  14
TORSDOF 6
ENDMDL
MODEL 6
REMARK VINA RESULT:      -7.4      1.640      2.178
REMARK  Name = 
REMARK  6 active torsions:
REMARK  status: ('A' for Active; 'I' for Inactive)
REMARK    1  A    between atoms: C_2  and  C_3
REMARK    2  A    between atoms: C_2  and  C_17
REMARK    3  A    between atoms: C_3  and  C_4
REMARK    4  A    between atoms: C_4  and  C_5
REMARK    5  A    between atoms: C_4  and  C_12
REMARK    6  A    between atoms: C_5  and  C_7
REMARK                            x       y       z     vdW  Elec       q    Type
REMARK                         _______ _______ _______ _____ _____    ______ ____
ROOT
ATOM      1  C   UNL     1       3.022   5.857  18.395  0.00  0.00    +0.000 C 
ENDROOT
BRANCH   1   2
ATOM      2  C   UNL     1       2.166   4.667  18.797  0.00  0.00    +0.000 A 
ATOM      3  C   UNL     1       1.547   4.521  20.085  0.00  0.00    +0.000 A 
ATOM      4  C   UNL     1       0.872   3.328  20.223  0.00  0.00    +0.000 A 
ATOM      5  S   UNL     1       0.958   2.377  18.808  0.00  0.00    +0.000 S 
ATOM      6  C   UNL     1       1.893   3.562  18.006  0.00  0.00    +0.000 A 
ENDBRANCH   1   2
BRANCH   1   7
ATOM      7  C   UNL     1       4.523   5.540  18.526  0.00  0.00    +0.000 C 
ATOM      8  O   UNL     1       5.045   5.536  19.650  0.00  0.00    +0.000 OA
BRANCH   7   9
ATOM      9  C   UNL     1       5.328   5.354  17.322  0.00  0.00    +0.000 A 
ATOM     10  C   UNL     1       4.958   5.697  16.032  0.00  0.00    +0.000 A 
ATOM     11  C   UNL     1       5.929   5.320  15.061  0.00  0.00    +0.000 A 
ATOM     12  C   UNL     1       7.036   4.743  15.644  0.00  0.00    +0.000 A 
ATOM     13  S   UNL     1       6.899   4.677  17.346  0.00  0.00    +0.000 S 
ENDBRANCH   7   9
ENDBRANCH   1   7
BRANCH   1  14
ATOM     14  C   UNL     1       2.702   7.088  19.268  0.00  0.00    +0.000 C 
BRANCH  14  16
ATOM     15  O   UNL     1       2.615   8.414  17.275  0.00  0.00    +0.000 OA
ATOM     16  C   UNL     1       2.203   8.246  18.422  0.00  0.00    +0.000 C 
BRANCH  16  17
ATOM     17  C   UNL     1       1.166   9.177  18.965  0.00  0.00    +0.000 A 
ATOM     18  C   UNL     1       0.396   9.914  18.051  0.00  0.00    +0.000 A 
ATOM     19  C   UNL     1      -0.587  10.803  18.498  0.00  0.00    +0.000 A 
ATOM     20  C   UNL     1      -0.801  10.963  19.864  0.00  0.00    +0.000 A 
ATOM     21 CL   UNL     1      -2.006  12.055  20.421  0.00  0.00    +0.000 Cl
ATOM     22  C   UNL     1      -0.043  10.241  20.783  0.00  0.00    +0.000 A 
ATOM     23  C   UNL     1       0.936   9.345  20.337  0.00  0.00    +0.000 A 
ENDBRANCH  16  17
ENDBRANCH  14  16
ENDBRANCH   1  14
TORSDOF 6
ENDMDL
MODEL 7
REMARK VINA RESULT:      -7.3      0.830      1.225
REMARK  Name = 
REMARK  6 active torsions:
REMARK  status: ('A' for Active; 'I' for Inactive)
REMARK    1  A    between atoms: C_2  and  C_3
REMARK    2  A    between atoms: C_2  and  C_17
REMARK    3  A    between atoms: C_3  and  C_4
REMARK    4  A    between atoms: C_4  and  C_5
REMARK    5  A    between atoms: C_4  and  C_12
REMARK    6  A    between atoms: C_5  and  C_7
REMARK                            x       y       z     vdW  Elec       q    Type
REMARK                         _______ _______ _______ _____ _____    ______ ____
ROOT
ATOM      1  C   UNL     1       2.915   5.637  17.864  0.00  0.00    +0.000 C 
ENDROOT
BRANCH   1   2
ATOM      2  C   UNL     1       2.152   4.592  18.663  0.00  0.00    +0.000 A 
ATOM      3  C   UNL     1       2.081   4.573  20.098  0.00  0.00    +0.000 A 
ATOM      4  C   UNL     1       1.379   3.492  20.584  0.00  0.00    +0.000 A 
ATOM      5  S   UNL     1       0.784   2.499  19.330  0.00  0.00    +0.000 S 
ATOM      6  C   UNL     1       1.459   3.516  18.134  0.00  0.00    +0.000 A 
ENDBRANCH   1   2
BRANCH   1   7
ATOM      7  C   UNL     1       4.219   5.059  17.284  0.00  0.00    +0.000 C 
ATOM      8  O   UNL     1       4.158   4.147  16.448  0.00  0.00    +0.000 OA
BRANCH   7   9
ATOM      9  C   UNL     1       5.504   5.519  17.803  0.00  0.00    +0.000 A 
ATOM     10  C   UNL     1       6.186   4.984  18.882  0.00  0.00    +0.000 A 
ATOM     11  C   UNL     1       7.378   5.701  19.192  0.00  0.00    +0.000 A 
ATOM     12  C   UNL     1       7.596   6.733  18.307  0.00  0.00    +0.000 A 
ATOM     13  S   UNL     1       6.378   6.818  17.112  0.00  0.00    +0.000 S 
ENDBRANCH   7   9
ENDBRANCH   1   7
BRANCH   1  14
ATOM     14  C   UNL     1       3.265   6.857  18.741  0.00  0.00    +0.000 C 
BRANCH  14  16
ATOM     15  O   UNL     1       2.311   8.474  17.254  0.00  0.00    +0.000 OA
ATOM     16  C   UNL     1       2.382   8.045  18.405  0.00  0.00    +0.000 C 
BRANCH  16  17
ATOM     17  C   UNL     1       1.552   8.685  19.472  0.00  0.00    +0.000 A 
ATOM     18  C   UNL     1       1.574   8.116  20.756  0.00  0.00    +0.000 A 
ATOM     19  C   UNL     1       0.818   8.668  21.795  0.00  0.00    +0.000 A 
ATOM     20  C   UNL     1       0.030   9.790  21.554  0.00  0.00    +0.000 A 
ATOM     21 CL   UNL     1      -0.903  10.473  22.826  0.00  0.00    +0.000 Cl
ATOM     22  C   UNL     1      -0.003  10.364  20.285  0.00  0.00    +0.000 A 
ATOM     23  C   UNL     1       0.759   9.817  19.246  0.00  0.00    +0.000 A 
ENDBRANCH  16  17
ENDBRANCH  14  16
ENDBRANCH   1  14
TORSDOF 6
ENDMDL
MODEL 8
REMARK VINA RESULT:      -7.3      1.590      1.903
REMARK  Name = 
REMARK  6 active torsions:
REMARK  status: ('A' for Active; 'I' for Inactive)
REMARK    1  A    between atoms: C_2  and  C_3
REMARK    2  A    between atoms: C_2  and  C_17
REMARK    3  A    between atoms: C_3  and  C_4
REMARK    4  A    between atoms: C_4  and  C_5
REMARK    5  A    between atoms: C_4  and  C_12
REMARK    6  A    between atoms: C_5  and  C_7
REMARK                            x       y       z     vdW  Elec       q    Type
REMARK                         _______ _______ _______ _____ _____    ______ ____
ROOT
ATOM      1  C   UNL     1       2.826   5.929  18.573  0.00  0.00    +0.000 C 
ENDROOT
BRANCH   1   2
ATOM      2  C   UNL     1       2.009   4.698  18.931  0.00  0.00    +0.000 A 
ATOM      3  C   UNL     1       1.481   4.438  20.242  0.00  0.00    +0.000 A 
ATOM      4  C   UNL     1       0.826   3.229  20.325  0.00  0.00    +0.000 A 
ATOM      5  S   UNL     1       0.821   2.400  18.833  0.00  0.00    +0.000 S 
ATOM      6  C   UNL     1       1.690   3.660  18.071  0.00  0.00    +0.000 A 
ENDBRANCH   1   2
BRANCH   1   7
ATOM      7  C   UNL     1       4.317   5.584  18.405  0.00  0.00    +0.000 C 
ATOM      8  O   UNL     1       5.060   5.612  19.396  0.00  0.00    +0.000 OA
BRANCH   7   9
ATOM      9  C   UNL     1       4.854   5.335  17.070  0.00  0.00    +0.000 A 
ATOM     10  C   UNL     1       5.125   6.293  16.107  0.00  0.00    +0.000 A 
ATOM     11  C   UNL     1       5.568   5.728  14.877  0.00  0.00    +0.000 A 
ATOM     12  C   UNL     1       5.671   4.357  14.953  0.00  0.00    +0.000 A 
ATOM     13  S   UNL     1       5.248   3.770  16.500  0.00  0.00    +0.000 S 
ENDBRANCH   7   9
ENDBRANCH   1   7
BRANCH   1  14
ATOM     14  C   UNL     1       2.693   7.017  19.659  0.00  0.00    +0.000 C 
BRANCH  14  16
ATOM     15  O   UNL     1       1.868   8.491  17.960  0.00  0.00    +0.000 OA
ATOM     16  C   UNL     1       1.882   8.198  19.155  0.00  0.00    +0.000 C 
BRANCH  16  17
ATOM     17  C   UNL     1       1.055   8.998  20.110  0.00  0.00    +0.000 A 
ATOM     18  C   UNL     1       0.920   8.524  21.425  0.00  0.00    +0.000 A 
ATOM     19  C   UNL     1       0.157   9.227  22.363  0.00  0.00    +0.000 A 
ATOM     20  C   UNL     1      -0.481  10.406  21.988  0.00  0.00    +0.000 A 
ATOM     21 CL   UNL     1      -1.421  11.274  23.136  0.00  0.00    +0.000 Cl
ATOM     22  C   UNL     1      -0.358  10.888  20.687  0.00  0.00    +0.000 A 
ATOM     23  C   UNL     1       0.411  10.189  19.749  0.00  0.00    +0.000 A 
ENDBRANCH  16  17
ENDBRANCH  14  16
ENDBRANCH   1  14
TORSDOF 6
ENDMDL
MODEL 9
REMARK VINA RESULT:      -7.2      1.572      1.881
REMARK  Name = 
REMARK  6 active torsions:
REMARK  status: ('A' for Active; 'I' for Inactive)
REMARK    1  A    between atoms: C_2  and  C_3
REMARK    2  A    between atoms: C_2  and  C_17
REMARK    3  A    between atoms: C_3  and  C_4
REMARK    4  A    between atoms: C_4  and  C_5
REMARK    5  A    between atoms: C_4  and  C_12
REMARK    6  A    between atoms: C_5  and  C_7
REMARK                            x       y       z     vdW  Elec       q    Type
REMARK                         _______ _______ _______ _____ _____    ______ ____
ROOT
ATOM      1  C   UNL     1       3.154   5.660  18.456  0.00  0.00    +0.000 C 
ENDROOT
BRANCH   1   2
ATOM      2  C   UNL     1       2.338   4.485  18.970  0.00  0.00    +0.000 A 
ATOM      3  C   UNL     1       1.685   3.527  18.121  0.00  0.00    +0.000 A 
ATOM      4  C   UNL     1       0.961   2.592  18.827  0.00  0.00    +0.000 A 
ATOM      5  S   UNL     1       1.066   2.840  20.512  0.00  0.00    +0.000 S 
ATOM      6  C   UNL     1       2.087   4.195  20.301  0.00  0.00    +0.000 A 
ENDBRANCH   1   2
BRANCH   1   7
ATOM      7  C   UNL     1       4.663   5.359  18.502  0.00  0.00    +0.000 C 
ATOM      8  O   UNL     1       5.272   5.482  19.574  0.00  0.00    +0.000 OA
BRANCH   7   9
ATOM      9  C   UNL     1       5.373   5.039  17.266  0.00  0.00    +0.000 A 
ATOM     10  C   UNL     1       4.906   4.230  16.244  0.00  0.00    +0.000 A 
ATOM     11  C   UNL     1       5.863   4.048  15.205  0.00  0.00    +0.000 A 
ATOM     12  C   UNL     1       7.015   4.765  15.441  0.00  0.00    +0.000 A 
ATOM     13  S   UNL     1       6.925   5.656  16.896  0.00  0.00    +0.000 S 
ENDBRANCH   7   9
ENDBRANCH   1   7
BRANCH   1  14
ATOM     14  C   UNL     1       2.880   6.930  19.287  0.00  0.00    +0.000 C 
BRANCH  14  16
ATOM     15  O   UNL     1       2.750   8.177  17.246  0.00  0.00    +0.000 OA
ATOM     16  C   UNL     1       2.371   8.060  18.410  0.00  0.00    +0.000 C 
BRANCH  16  17
ATOM     17  C   UNL     1       1.363   9.027  18.947  0.00  0.00    +0.000 A 
ATOM     18  C   UNL     1       1.104   9.012  20.328  0.00  0.00    +0.000 A 
ATOM     19  C   UNL     1       0.171   9.890  20.889  0.00  0.00    +0.000 A 
ATOM     20  C   UNL     1      -0.513  10.784  20.071  0.00  0.00    +0.000 A 
ATOM     21 CL   UNL     1      -1.663  11.865  20.753  0.00  0.00    +0.000 Cl
ATOM     22  C   UNL     1      -0.268  10.809  18.700  0.00  0.00    +0.000 A 
ATOM     23  C   UNL     1       0.671   9.936  18.137  0.00  0.00    +0.000 A 
ENDBRANCH  16  17
ENDBRANCH  14  16
ENDBRANCH   1  14
TORSDOF 6
ENDMDL
