MODEL 1
REMARK VINA RESULT:      -8.5      0.000      0.000
REMARK  Name = 
REMARK  4 active torsions:
REMARK  status: ('A' for Active; 'I' for Inactive)
REMARK    1  A    between atoms: C_1  and  N_2
REMARK    2  A    between atoms: C_4  and  C_5
REMARK    3  A    between atoms: C_9  and  N_10
REMARK    4  A    between atoms: C_12  and  C_13
REMARK                            x       y       z     vdW  Elec       q    Type
REMARK                         _______ _______ _______ _____ _____    ______ ____
ROOT
ATOM      1  N   UNL     1      -0.255  13.680  22.386  0.00  0.00    +0.000 N 
ATOM      2  N   UNL     1       0.837  14.512  22.429  0.00  0.00    +0.000 NA
ATOM      3  C   UNL     1       1.605  14.159  21.384  0.00  0.00    +0.000 A 
ATOM      4  C   UNL     1       1.009  13.082  20.678  0.00  0.00    +0.000 A 
ATOM      5  C   UNL     1      -0.072  12.655  21.462  0.00  0.00    +0.000 A 
ATOM      6  C   UNL     1      -0.486  11.200  21.541  0.00  0.00    +0.000 A 
ATOM      7  C   UNL     1      -1.020  10.623  22.692  0.00  0.00    +0.000 A 
ATOM      8  C   UNL     1      -0.331   9.578  23.316  0.00  0.00    +0.000 A 
ATOM      9  C   UNL     1       0.847   9.095  22.752  0.00  0.00    +0.000 A 
ATOM     10  C   UNL     1       1.159   9.438  21.442  0.00  0.00    +0.000 A 
ATOM     11  C   UNL     1       0.358  10.373  20.795  0.00  0.00    +0.000 A 
ATOM     12  S   UNL     1       0.690  10.887  19.139  0.00  0.00    +0.000 S 
ATOM     13  O   UNL     1      -0.580  11.243  18.527  0.00  0.00    +0.000 OA
ATOM     14  O   UNL     1       1.563   9.905  18.522  0.00  0.00    +0.000 OA
ATOM     15  C   UNL     1       1.613  12.366  19.507  0.00  0.00    +0.000 C 
ENDROOT
BRANCH   3  16
ATOM     16  C   UNL     1       2.980  14.669  21.132  0.00  0.00    +0.000 C 
ATOM     17  O   UNL     1       3.927  14.126  21.706  0.00  0.00    +0.000 OA
ATOM     18  N   UNL     1       3.204  15.705  20.238  0.00  0.00    +0.000 N 
ATOM     19  C   UNL     1       2.199  16.334  19.380  0.00  0.00    +0.000 C 
ATOM     20  C   UNL     1       2.755  16.556  17.962  0.00  0.00    +0.000 C 
ATOM     21  O   UNL     1       4.018  17.242  17.977  0.00  0.00    +0.000 OA
ATOM     22  C   UNL     1       4.986  16.496  18.723  0.00  0.00    +0.000 C 
ATOM     23  C   UNL     1       4.535  16.327  20.174  0.00  0.00    +0.000 C 
ENDBRANCH   3  16
BRANCH   1  28
ATOM     24  C   UNL     1      -3.750  13.653  23.705  0.00  0.00    +0.000 A 
ATOM     25  C   UNL     1      -3.594  14.501  24.811  0.00  0.00    +0.000 A 
ATOM     26  C   UNL     1      -2.358  15.042  25.142  0.00  0.00    +0.000 A 
ATOM     27  C   UNL     1      -1.228  14.750  24.363  0.00  0.00    +0.000 A 
ATOM     28  C   UNL     1      -1.367  13.945  23.227  0.00  0.00    +0.000 A 
ATOM     29  C   UNL     1      -2.619  13.362  22.935  0.00  0.00    +0.000 A 
BRANCH  24  33
ATOM     30  C   UNL     1      -7.712  12.068  21.156  0.00  0.00    +0.000 C 
ATOM     31  N   UNL     1      -6.784  12.390  22.212  0.00  0.00    +0.000 N 
ATOM     32  C   UNL     1      -5.516  12.869  22.076  0.00  0.00    +0.000 A 
ATOM     33  C   UNL     1      -5.042  13.099  23.352  0.00  0.00    +0.000 A 
ATOM     34  C   UNL     1      -6.117  12.687  24.184  0.00  0.00    +0.000 A 
ATOM     35  N   UNL     1      -7.173  12.255  23.491  0.00  0.00    +0.000 NA
ENDBRANCH  24  33
ENDBRANCH   1  28
TORSDOF 3
ENDMDL
MODEL 2
REMARK VINA RESULT:      -7.8      3.576      6.519
REMARK  Name = 
REMARK  4 active torsions:
REMARK  status: ('A' for Active; 'I' for Inactive)
REMARK    1  A    between atoms: C_1  and  N_2
REMARK    2  A    between atoms: C_4  and  C_5
REMARK    3  A    between atoms: C_9  and  N_10
REMARK    4  A    between atoms: C_12  and  C_13
REMARK                            x       y       z     vdW  Elec       q    Type
REMARK                         _______ _______ _______ _____ _____    ______ ____
ROOT
ATOM      1  N   UNL     1      -0.285  12.914  22.275  0.00  0.00    +0.000 N 
ATOM      2  N   UNL     1       0.631  13.743  21.675  0.00  0.00    +0.000 NA
ATOM      3  C   UNL     1       0.409  14.965  22.190  0.00  0.00    +0.000 A 
ATOM      4  C   UNL     1      -0.667  14.920  23.114  0.00  0.00    +0.000 A 
ATOM      5  C   UNL     1      -1.231  13.642  22.991  0.00  0.00    +0.000 A 
ATOM      6  C   UNL     1      -2.717  13.398  23.150  0.00  0.00    +0.000 A 
ATOM      7  C   UNL     1      -3.407  12.420  22.435  0.00  0.00    +0.000 A 
ATOM      8  C   UNL     1      -4.428  12.806  21.560  0.00  0.00    +0.000 A 
ATOM      9  C   UNL     1      -4.775  14.150  21.455  0.00  0.00    +0.000 A 
ATOM     10  C   UNL     1      -4.327  15.041  22.422  0.00  0.00    +0.000 A 
ATOM     11  C   UNL     1      -3.423  14.583  23.375  0.00  0.00    +0.000 A 
ATOM     12  S   UNL     1      -2.780  15.648  24.628  0.00  0.00    +0.000 S 
ATOM     13  O   UNL     1      -2.494  14.829  25.794  0.00  0.00    +0.000 OA
ATOM     14  O   UNL     1      -3.645  16.809  24.729  0.00  0.00    +0.000 OA
ATOM     15  C   UNL     1      -1.255  16.101  23.825  0.00  0.00    +0.000 C 
ENDROOT
BRANCH   3  16
ATOM     16  C   UNL     1       1.047  16.218  21.705  0.00  0.00    +0.000 C 
ATOM     17  O   UNL     1       2.142  16.544  22.171  0.00  0.00    +0.000 OA
ATOM     18  N   UNL     1       0.449  16.988  20.719  0.00  0.00    +0.000 N 
ATOM     19  C   UNL     1      -0.764  16.644  19.975  0.00  0.00    +0.000 C 
ATOM     20  C   UNL     1      -0.596  16.965  18.480  0.00  0.00    +0.000 C 
ATOM     21  O   UNL     1      -0.144  18.311  18.263  0.00  0.00    +0.000 OA
ATOM     22  C   UNL     1       1.115  18.529  18.909  0.00  0.00    +0.000 C 
ATOM     23  C   UNL     1       0.989  18.322  20.418  0.00  0.00    +0.000 C 
ENDBRANCH   3  16
BRANCH   1  28
ATOM     24  C   UNL     1       0.618   9.613  20.777  0.00  0.00    +0.000 A 
ATOM     25  C   UNL     1       0.023   8.756  21.713  0.00  0.00    +0.000 A 
ATOM     26  C   UNL     1      -0.631   9.248  22.836  0.00  0.00    +0.000 A 
ATOM     27  C   UNL     1      -0.711  10.632  23.055  0.00  0.00    +0.000 A 
ATOM     28  C   UNL     1      -0.167  11.509  22.111  0.00  0.00    +0.000 A 
ATOM     29  C   UNL     1       0.538  10.992  21.003  0.00  0.00    +0.000 A 
BRANCH  24  33
ATOM     30  C   UNL     1       3.420   6.892  17.701  0.00  0.00    +0.000 C 
ATOM     31  N   UNL     1       2.522   7.881  18.245  0.00  0.00    +0.000 N 
ATOM     32  C   UNL     1       2.048   7.949  19.521  0.00  0.00    +0.000 A 
ATOM     33  C   UNL     1       1.288   9.100  19.598  0.00  0.00    +0.000 A 
ATOM     34  C   UNL     1       1.356   9.630  18.282  0.00  0.00    +0.000 A 
ATOM     35  N   UNL     1       2.103   8.889  17.462  0.00  0.00    +0.000 NA
ENDBRANCH  24  33
ENDBRANCH   1  28
TORSDOF 3
ENDMDL
MODEL 3
REMARK VINA RESULT:      -7.6      1.121      1.704
REMARK  Name = 
REMARK  4 active torsions:
REMARK  status: ('A' for Active; 'I' for Inactive)
REMARK    1  A    between atoms: C_1  and  N_2
REMARK    2  A    between atoms: C_4  and  C_5
REMARK    3  A    between atoms: C_9  and  N_10
REMARK    4  A    between atoms: C_12  and  C_13
REMARK                            x       y       z     vdW  Elec       q    Type
REMARK                         _______ _______ _______ _____ _____    ______ ____
ROOT
ATOM      1  N   UNL     1      -0.442  13.511  21.612  0.00  0.00    +0.000 N 
ATOM      2  N   UNL     1       0.536  14.436  21.340  0.00  0.00    +0.000 NA
ATOM      3  C   UNL     1       1.154  13.996  20.230  0.00  0.00    +0.000 A 
ATOM      4  C   UNL     1       0.580  12.772  19.800  0.00  0.00    +0.000 A 
ATOM      5  C   UNL     1      -0.297  12.375  20.819  0.00  0.00    +0.000 A 
ATOM      6  C   UNL     1      -0.518  10.919  21.172  0.00  0.00    +0.000 A 
ATOM      7  C   UNL     1      -0.780  10.482  22.470  0.00  0.00    +0.000 A 
ATOM      8  C   UNL     1       0.122   9.615  23.094  0.00  0.00    +0.000 A 
ATOM      9  C   UNL     1       1.237   9.160  22.396  0.00  0.00    +0.000 A 
ATOM     10  C   UNL     1       1.283   9.321  21.017  0.00  0.00    +0.000 A 
ATOM     11  C   UNL     1       0.281  10.066  20.405  0.00  0.00    +0.000 A 
ATOM     12  S   UNL     1       0.268  10.344  18.662  0.00  0.00    +0.000 S 
ATOM     13  O   UNL     1      -1.119  10.482  18.250  0.00  0.00    +0.000 OA
ATOM     14  O   UNL     1       1.135   9.362  18.036  0.00  0.00    +0.000 OA
ATOM     15  C   UNL     1       1.059  11.941  18.648  0.00  0.00    +0.000 C 
ENDROOT
BRANCH   3  16
ATOM     16  C   UNL     1       2.398  14.584  19.663  0.00  0.00    +0.000 C 
ATOM     17  O   UNL     1       2.329  15.195  18.594  0.00  0.00    +0.000 OA
ATOM     18  N   UNL     1       3.606  14.487  20.337  0.00  0.00    +0.000 N 
ATOM     19  C   UNL     1       3.802  13.928  21.675  0.00  0.00    +0.000 C 
ATOM     20  C   UNL     1       4.755  14.811  22.501  0.00  0.00    +0.000 C 
ATOM     21  O   UNL     1       5.979  15.088  21.801  0.00  0.00    +0.000 OA
ATOM     22  C   UNL     1       5.711  15.757  20.564  0.00  0.00    +0.000 C 
ATOM     23  C   UNL     1       4.846  14.883  19.655  0.00  0.00    +0.000 C 
ENDBRANCH   3  16
BRANCH   1  28
ATOM     24  C   UNL     1      -3.746  13.650  23.351  0.00  0.00    +0.000 A 
ATOM     25  C   UNL     1      -3.392  14.412  24.473  0.00  0.00    +0.000 A 
ATOM     26  C   UNL     1      -2.087  14.843  24.677  0.00  0.00    +0.000 A 
ATOM     27  C   UNL     1      -1.085  14.520  23.749  0.00  0.00    +0.000 A 
ATOM     28  C   UNL     1      -1.421  13.800  22.598  0.00  0.00    +0.000 A 
ATOM     29  C   UNL     1      -2.741  13.328  22.432  0.00  0.00    +0.000 A 
BRANCH  24  33
ATOM     30  C   UNL     1      -7.905  11.902  21.266  0.00  0.00    +0.000 C 
ATOM     31  N   UNL     1      -6.941  12.426  22.201  0.00  0.00    +0.000 N 
ATOM     32  C   UNL     1      -5.610  12.626  21.987  0.00  0.00    +0.000 A 
ATOM     33  C   UNL     1      -5.110  13.213  23.132  0.00  0.00    +0.000 A 
ATOM     34  C   UNL     1      -6.242  13.290  23.987  0.00  0.00    +0.000 A 
ATOM     35  N   UNL     1      -7.352  12.811  23.421  0.00  0.00    +0.000 NA
ENDBRANCH  24  33
ENDBRANCH   1  28
TORSDOF 3
ENDMDL
MODEL 4
REMARK VINA RESULT:      -7.6      4.731      7.473
REMARK  Name = 
REMARK  4 active torsions:
REMARK  status: ('A' for Active; 'I' for Inactive)
REMARK    1  A    between atoms: C_1  and  N_2
REMARK    2  A    between atoms: C_4  and  C_5
REMARK    3  A    between atoms: C_9  and  N_10
REMARK    4  A    between atoms: C_12  and  C_13
REMARK                            x       y       z     vdW  Elec       q    Type
REMARK                         _______ _______ _______ _____ _____    ______ ____
ROOT
ATOM      1  N   UNL     1      -2.909  13.141  21.197  0.00  0.00    +0.000 N 
ATOM      2  N   UNL     1      -2.275  14.331  21.455  0.00  0.00    +0.000 NA
ATOM      3  C   UNL     1      -2.961  14.897  22.464  0.00  0.00    +0.000 A 
ATOM      4  C   UNL     1      -4.050  14.071  22.842  0.00  0.00    +0.000 A 
ATOM      5  C   UNL     1      -4.121  13.056  21.876  0.00  0.00    +0.000 A 
ATOM      6  C   UNL     1      -5.439  12.462  21.425  0.00  0.00    +0.000 A 
ATOM      7  C   UNL     1      -5.666  12.014  20.125  0.00  0.00    +0.000 A 
ATOM      8  C   UNL     1      -6.654  12.631  19.352  0.00  0.00    +0.000 A 
ATOM      9  C   UNL     1      -7.430  13.645  19.906  0.00  0.00    +0.000 A 
ATOM     10  C   UNL     1      -7.427  13.823  21.284  0.00  0.00    +0.000 A 
ATOM     11  C   UNL     1      -6.531  13.078  22.044  0.00  0.00    +0.000 A 
ATOM     12  S   UNL     1      -6.438  13.251  23.798  0.00  0.00    +0.000 S 
ATOM     13  O   UNL     1      -6.017  11.972  24.344  0.00  0.00    +0.000 OA
ATOM     14  O   UNL     1      -7.657  13.892  24.259  0.00  0.00    +0.000 OA
ATOM     15  C   UNL     1      -5.085  14.409  23.873  0.00  0.00    +0.000 C 
ENDROOT
BRANCH   3  16
ATOM     16  C   UNL     1      -2.746  16.282  22.963  0.00  0.00    +0.000 C 
ATOM     17  O   UNL     1      -3.379  17.204  22.442  0.00  0.00    +0.000 OA
ATOM     18  N   UNL     1      -1.885  16.535  24.021  0.00  0.00    +0.000 N 
ATOM     19  C   UNL     1      -1.193  15.528  24.826  0.00  0.00    +0.000 C 
ATOM     20  C   UNL     1      -1.251  15.890  26.320  0.00  0.00    +0.000 C 
ATOM     21  O   UNL     1      -0.811  17.236  26.568  0.00  0.00    +0.000 OA
ATOM     22  C   UNL     1      -1.625  18.171  25.851  0.00  0.00    +0.000 C 
ATOM     23  C   UNL     1      -1.530  17.924  24.345  0.00  0.00    +0.000 C 
ENDBRANCH   3  16
BRANCH   1  28
ATOM     24  C   UNL     1      -2.242  11.070  18.159  0.00  0.00    +0.000 A 
ATOM     25  C   UNL     1      -1.166  10.302  18.626  0.00  0.00    +0.000 A 
ATOM     26  C   UNL     1      -0.643  10.484  19.900  0.00  0.00    +0.000 A 
ATOM     27  C   UNL     1      -1.191  11.451  20.756  0.00  0.00    +0.000 A 
ATOM     28  C   UNL     1      -2.295  12.197  20.332  0.00  0.00    +0.000 A 
ATOM     29  C   UNL     1      -2.782  12.035  19.017  0.00  0.00    +0.000 A 
BRANCH  24  33
ATOM     30  C   UNL     1      -2.922   9.622  13.453  0.00  0.00    +0.000 C 
ATOM     31  N   UNL     1      -3.092  10.213  14.757  0.00  0.00    +0.000 N 
ATOM     32  C   UNL     1      -2.283  10.060  15.843  0.00  0.00    +0.000 A 
ATOM     33  C   UNL     1      -2.797  10.871  16.835  0.00  0.00    +0.000 A 
ATOM     34  C   UNL     1      -3.947  11.446  16.231  0.00  0.00    +0.000 A 
ATOM     35  N   UNL     1      -4.125  11.046  14.971  0.00  0.00    +0.000 NA
ENDBRANCH  24  33
ENDBRANCH   1  28
TORSDOF 3
ENDMDL
MODEL 5
REMARK VINA RESULT:      -7.5      3.643      7.566
REMARK  Name = 
REMARK  4 active torsions:
REMARK  status: ('A' for Active; 'I' for Inactive)
REMARK    1  A    between atoms: C_1  and  N_2
REMARK    2  A    between atoms: C_4  and  C_5
REMARK    3  A    between atoms: C_9  and  N_10
REMARK    4  A    between atoms: C_12  and  C_13
REMARK                            x       y       z     vdW  Elec       q    Type
REMARK                         _______ _______ _______ _____ _____    ______ ____
ROOT
ATOM      1  N   UNL     1      -0.309  13.364  19.998  0.00  0.00    +0.000 N 
ATOM      2  N   UNL     1      -0.691  13.412  21.316  0.00  0.00    +0.000 NA
ATOM      3  C   UNL     1      -0.618  14.708  21.668  0.00  0.00    +0.000 A 
ATOM      4  C   UNL     1      -0.169  15.490  20.573  0.00  0.00    +0.000 A 
ATOM      5  C   UNL     1       0.225  14.580  19.581  0.00  0.00    +0.000 A 
ATOM      6  C   UNL     1       1.387  14.854  18.650  0.00  0.00    +0.000 A 
ATOM      7  C   UNL     1       2.223  13.852  18.161  0.00  0.00    +0.000 A 
ATOM      8  C   UNL     1       3.583  13.877  18.486  0.00  0.00    +0.000 A 
ATOM      9  C   UNL     1       4.091  14.926  19.246  0.00  0.00    +0.000 A 
ATOM     10  C   UNL     1       3.325  16.073  19.413  0.00  0.00    +0.000 A 
ATOM     11  C   UNL     1       2.017  16.068  18.940  0.00  0.00    +0.000 A 
ATOM     12  S   UNL     1       0.960  17.470  19.126  0.00  0.00    +0.000 S 
ATOM     13  O   UNL     1       0.030  17.470  18.010  0.00  0.00    +0.000 OA
ATOM     14  O   UNL     1       1.786  18.631  19.406  0.00  0.00    +0.000 OA
ATOM     15  C   UNL     1       0.115  16.962  20.610  0.00  0.00    +0.000 C 
ENDROOT
BRANCH   3  16
ATOM     16  C   UNL     1      -0.770  15.219  23.057  0.00  0.00    +0.000 C 
ATOM     17  O   UNL     1       0.238  15.584  23.667  0.00  0.00    +0.000 OA
ATOM     18  N   UNL     1      -2.021  15.325  23.646  0.00  0.00    +0.000 N 
ATOM     19  C   UNL     1      -3.305  15.074  22.989  0.00  0.00    +0.000 C 
ATOM     20  C   UNL     1      -4.332  16.156  23.368  0.00  0.00    +0.000 C 
ATOM     21  O   UNL     1      -4.431  16.334  24.791  0.00  0.00    +0.000 OA
ATOM     22  C   UNL     1      -3.163  16.710  25.340  0.00  0.00    +0.000 C 
ATOM     23  C   UNL     1      -2.119  15.624  25.082  0.00  0.00    +0.000 C 
ENDBRANCH   3  16
BRANCH   1  28
ATOM     24  C   UNL     1       0.308   9.930  18.661  0.00  0.00    +0.000 A 
ATOM     25  C   UNL     1      -0.776   9.819  17.780  0.00  0.00    +0.000 A 
ATOM     26  C   UNL     1      -1.715  10.835  17.652  0.00  0.00    +0.000 A 
ATOM     27  C   UNL     1      -1.592  12.009  18.411  0.00  0.00    +0.000 A 
ATOM     28  C   UNL     1      -0.493  12.163  19.262  0.00  0.00    +0.000 A 
ATOM     29  C   UNL     1       0.424  11.101  19.418  0.00  0.00    +0.000 A 
BRANCH  24  33
ATOM     30  C   UNL     1       3.764   6.504  17.645  0.00  0.00    +0.000 C 
ATOM     31  N   UNL     1       2.832   7.371  18.323  0.00  0.00    +0.000 N 
ATOM     32  C   UNL     1       2.096   8.378  17.775  0.00  0.00    +0.000 A 
ATOM     33  C   UNL     1       1.295   8.875  18.784  0.00  0.00    +0.000 A 
ATOM     34  C   UNL     1       1.664   8.098  19.914  0.00  0.00    +0.000 A 
ATOM     35  N   UNL     1       2.598   7.187  19.634  0.00  0.00    +0.000 NA
ENDBRANCH  24  33
ENDBRANCH   1  28
TORSDOF 3
ENDMDL
MODEL 6
REMARK VINA RESULT:      -7.5      1.243      1.547
REMARK  Name = 
REMARK  4 active torsions:
REMARK  status: ('A' for Active; 'I' for Inactive)
REMARK    1  A    between atoms: C_1  and  N_2
REMARK    2  A    between atoms: C_4  and  C_5
REMARK    3  A    between atoms: C_9  and  N_10
REMARK    4  A    between atoms: C_12  and  C_13
REMARK                            x       y       z     vdW  Elec       q    Type
REMARK                         _______ _______ _______ _____ _____    ______ ____
ROOT
ATOM      1  N   UNL     1      -0.479  12.787  21.503  0.00  0.00    +0.000 N 
ATOM      2  N   UNL     1       0.493  13.726  21.747  0.00  0.00    +0.000 NA
ATOM      3  C   UNL     1       1.456  13.498  20.836  0.00  0.00    +0.000 A 
ATOM      4  C   UNL     1       1.104  12.395  20.015  0.00  0.00    +0.000 A 
ATOM      5  C   UNL     1      -0.037  11.825  20.598  0.00  0.00    +0.000 A 
ATOM      6  C   UNL     1      -0.297  10.334  20.573  0.00  0.00    +0.000 A 
ATOM      7  C   UNL     1      -0.945   9.657  21.605  0.00  0.00    +0.000 A 
ATOM      8  C   UNL     1      -0.256   8.665  22.310  0.00  0.00    +0.000 A 
ATOM      9  C   UNL     1       1.043   8.331  21.939  0.00  0.00    +0.000 A 
ATOM     10  C   UNL     1       1.525   8.757  20.708  0.00  0.00    +0.000 A 
ATOM     11  C   UNL     1       0.744   9.630  19.959  0.00  0.00    +0.000 A 
ATOM     12  S   UNL     1       1.282  10.244  18.394  0.00  0.00    +0.000 S 
ATOM     13  O   UNL     1       0.099  10.491  17.588  0.00  0.00    +0.000 OA
ATOM     14  O   UNL     1       2.347   9.385  17.908  0.00  0.00    +0.000 OA
ATOM     15  C   UNL     1       1.966  11.795  18.945  0.00  0.00    +0.000 C 
ENDROOT
BRANCH   3  16
ATOM     16  C   UNL     1       2.789  14.158  20.829  0.00  0.00    +0.000 C 
ATOM     17  O   UNL     1       3.705  13.649  21.479  0.00  0.00    +0.000 OA
ATOM     18  N   UNL     1       3.016  15.299  20.074  0.00  0.00    +0.000 N 
ATOM     19  C   UNL     1       2.071  15.918  19.144  0.00  0.00    +0.000 C 
ATOM     20  C   UNL     1       2.781  16.340  17.845  0.00  0.00    +0.000 C 
ATOM     21  O   UNL     1       3.950  17.135  18.102  0.00  0.00    +0.000 OA
ATOM     22  C   UNL     1       4.887  16.409  18.906  0.00  0.00    +0.000 C 
ATOM     23  C   UNL     1       4.269  16.046  20.257  0.00  0.00    +0.000 C 
ENDBRANCH   3  16
BRANCH   1  28
ATOM     24  C   UNL     1      -4.180  12.834  22.017  0.00  0.00    +0.000 A 
ATOM     25  C   UNL     1      -4.227  13.185  23.373  0.00  0.00    +0.000 A 
ATOM     26  C   UNL     1      -3.068  13.367  24.117  0.00  0.00    +0.000 A 
ATOM     27  C   UNL     1      -1.811  13.203  23.516  0.00  0.00    +0.000 A 
ATOM     28  C   UNL     1      -1.736  12.900  22.152  0.00  0.00    +0.000 A 
ATOM     29  C   UNL     1      -2.923  12.669  21.424  0.00  0.00    +0.000 A 
BRANCH  24  33
ATOM     30  C   UNL     1      -7.391  12.412  18.247  0.00  0.00    +0.000 C 
ATOM     31  N   UNL     1      -6.798  12.461  19.559  0.00  0.00    +0.000 N 
ATOM     32  C   UNL     1      -5.474  12.574  19.861  0.00  0.00    +0.000 A 
ATOM     33  C   UNL     1      -5.389  12.658  21.237  0.00  0.00    +0.000 A 
ATOM     34  C   UNL     1      -6.741  12.553  21.660  0.00  0.00    +0.000 A 
ATOM     35  N   UNL     1      -7.594  12.432  20.641  0.00  0.00    +0.000 NA
ENDBRANCH  24  33
ENDBRANCH   1  28
TORSDOF 3
ENDMDL
MODEL 7
REMARK VINA RESULT:      -7.5      2.737      7.971
REMARK  Name = 
REMARK  4 active torsions:
REMARK  status: ('A' for Active; 'I' for Inactive)
REMARK    1  A    between atoms: C_1  and  N_2
REMARK    2  A    between atoms: C_4  and  C_5
REMARK    3  A    between atoms: C_9  and  N_10
REMARK    4  A    between atoms: C_12  and  C_13
REMARK                            x       y       z     vdW  Elec       q    Type
REMARK                         _______ _______ _______ _____ _____    ______ ____
ROOT
ATOM      1  N   UNL     1      -0.546  14.298  20.769  0.00  0.00    +0.000 N 
ATOM      2  N   UNL     1      -1.525  14.753  21.617  0.00  0.00    +0.000 NA
ATOM      3  C   UNL     1      -1.765  13.743  22.471  0.00  0.00    +0.000 A 
ATOM      4  C   UNL     1      -0.945  12.628  22.157  0.00  0.00    +0.000 A 
ATOM      5  C   UNL     1      -0.328  12.932  20.935  0.00  0.00    +0.000 A 
ATOM      6  C   UNL     1      -0.025  11.871  19.898  0.00  0.00    +0.000 A 
ATOM      7  C   UNL     1      -0.065  12.116  18.526  0.00  0.00    +0.000 A 
ATOM      8  C   UNL     1      -0.982  11.418  17.734  0.00  0.00    +0.000 A 
ATOM      9  C   UNL     1      -1.803  10.456  18.314  0.00  0.00    +0.000 A 
ATOM     10  C   UNL     1      -1.500   9.988  19.587  0.00  0.00    +0.000 A 
ATOM     11  C   UNL     1      -0.475  10.608  20.293  0.00  0.00    +0.000 A 
ATOM     12  S   UNL     1      -0.034  10.098  21.924  0.00  0.00    +0.000 S 
ATOM     13  O   UNL     1       1.383  10.368  22.101  0.00  0.00    +0.000 OA
ATOM     14  O   UNL     1      -0.571   8.767  22.147  0.00  0.00    +0.000 OA
ATOM     15  C   UNL     1      -0.990  11.293  22.837  0.00  0.00    +0.000 C 
ENDROOT
BRANCH   3  16
ATOM     16  C   UNL     1      -2.877  13.714  23.459  0.00  0.00    +0.000 C 
ATOM     17  O   UNL     1      -2.694  14.216  24.571  0.00  0.00    +0.000 OA
ATOM     18  N   UNL     1      -4.111  13.174  23.130  0.00  0.00    +0.000 N 
ATOM     19  C   UNL     1      -4.513  12.687  21.809  0.00  0.00    +0.000 C 
ATOM     20  C   UNL     1      -5.939  13.151  21.468  0.00  0.00    +0.000 C 
ATOM     21  O   UNL     1      -6.875  12.838  22.512  0.00  0.00    +0.000 OA
ATOM     22  C   UNL     1      -6.486  13.463  23.740  0.00  0.00    +0.000 C 
ATOM     23  C   UNL     1      -5.111  12.964  24.187  0.00  0.00    +0.000 C 
ENDBRANCH   3  16
BRANCH   1  28
ATOM     24  C   UNL     1       2.154  16.052  18.873  0.00  0.00    +0.000 A 
ATOM     25  C   UNL     1       1.389  17.028  18.218  0.00  0.00    +0.000 A 
ATOM     26  C   UNL     1       0.009  17.088  18.364  0.00  0.00    +0.000 A 
ATOM     27  C   UNL     1      -0.655  16.162  19.184  0.00  0.00    +0.000 A 
ATOM     28  C   UNL     1       0.091  15.209  19.886  0.00  0.00    +0.000 A 
ATOM     29  C   UNL     1       1.486  15.130  19.686  0.00  0.00    +0.000 A 
BRANCH  24  33
ATOM     30  C   UNL     1       6.771  14.616  17.722  0.00  0.00    +0.000 C 
ATOM     31  N   UNL     1       5.633  15.357  18.205  0.00  0.00    +0.000 N 
ATOM     32  C   UNL     1       4.316  15.050  18.032  0.00  0.00    +0.000 A 
ATOM     33  C   UNL     1       3.595  15.998  18.731  0.00  0.00    +0.000 A 
ATOM     34  C   UNL     1       4.598  16.850  19.265  0.00  0.00    +0.000 A 
ATOM     35  N   UNL     1       5.834  16.461  18.944  0.00  0.00    +0.000 NA
ENDBRANCH  24  33
ENDBRANCH   1  28
TORSDOF 3
ENDMDL
MODEL 8
REMARK VINA RESULT:      -7.5      1.106      1.181
REMARK  Name = 
REMARK  4 active torsions:
REMARK  status: ('A' for Active; 'I' for Inactive)
REMARK    1  A    between atoms: C_1  and  N_2
REMARK    2  A    between atoms: C_4  and  C_5
REMARK    3  A    between atoms: C_9  and  N_10
REMARK    4  A    between atoms: C_12  and  C_13
REMARK                            x       y       z     vdW  Elec       q    Type
REMARK                         _______ _______ _______ _____ _____    ______ ____
ROOT
ATOM      1  N   UNL     1       0.236  14.312  22.341  0.00  0.00    +0.000 N 
ATOM      2  N   UNL     1       1.477  14.887  22.461  0.00  0.00    +0.000 NA
ATOM      3  C   UNL     1       2.204  14.399  21.441  0.00  0.00    +0.000 A 
ATOM      4  C   UNL     1       1.428  13.492  20.674  0.00  0.00    +0.000 A 
ATOM      5  C   UNL     1       0.241  13.292  21.393  0.00  0.00    +0.000 A 
ATOM      6  C   UNL     1      -0.479  11.960  21.407  0.00  0.00    +0.000 A 
ATOM      7  C   UNL     1      -1.183  11.487  22.514  0.00  0.00    +0.000 A 
ATOM      8  C   UNL     1      -0.767  10.305  23.134  0.00  0.00    +0.000 A 
ATOM      9  C   UNL     1       0.306   9.591  22.609  0.00  0.00    +0.000 A 
ATOM     10  C   UNL     1       0.751   9.886  21.326  0.00  0.00    +0.000 A 
ATOM     11  C   UNL     1       0.205  10.986  20.674  0.00  0.00    +0.000 A 
ATOM     12  S   UNL     1       0.724  11.452  19.052  0.00  0.00    +0.000 S 
ATOM     13  O   UNL     1      -0.407  12.087  18.395  0.00  0.00    +0.000 OA
ATOM     14  O   UNL     1       1.396  10.318  18.444  0.00  0.00    +0.000 OA
ATOM     15  C   UNL     1       1.923  12.688  19.509  0.00  0.00    +0.000 C 
ENDROOT
BRANCH   3  16
ATOM     16  C   UNL     1       3.668  14.605  21.267  0.00  0.00    +0.000 C 
ATOM     17  O   UNL     1       4.445  13.818  21.813  0.00  0.00    +0.000 OA
ATOM     18  N   UNL     1       4.155  15.634  20.475  0.00  0.00    +0.000 N 
ATOM     19  C   UNL     1       3.353  16.540  19.653  0.00  0.00    +0.000 C 
ATOM     20  C   UNL     1       4.005  16.747  18.274  0.00  0.00    +0.000 C 
ATOM     21  O   UNL     1       5.387  17.127  18.380  0.00  0.00    +0.000 OA
ATOM     22  C   UNL     1       6.132  16.123  19.080  0.00  0.00    +0.000 C 
ATOM     23  C   UNL     1       5.592  15.943  20.499  0.00  0.00    +0.000 C 
ENDBRANCH   3  16
BRANCH   1  28
ATOM     24  C   UNL     1      -3.124  14.517  23.962  0.00  0.00    +0.000 A 
ATOM     25  C   UNL     1      -2.990  15.740  24.634  0.00  0.00    +0.000 A 
ATOM     26  C   UNL     1      -1.808  16.468  24.588  0.00  0.00    +0.000 A 
ATOM     27  C   UNL     1      -0.711  15.987  23.856  0.00  0.00    +0.000 A 
ATOM     28  C   UNL     1      -0.835  14.793  23.139  0.00  0.00    +0.000 A 
ATOM     29  C   UNL     1      -2.026  14.041  23.237  0.00  0.00    +0.000 A 
BRANCH  24  33
ATOM     30  C   UNL     1      -7.916  13.223  23.699  0.00  0.00    +0.000 C 
ATOM     31  N   UNL     1      -6.484  13.201  23.867  0.00  0.00    +0.000 N 
ATOM     32  C   UNL     1      -5.611  14.218  23.623  0.00  0.00    +0.000 A 
ATOM     33  C   UNL     1      -4.362  13.764  23.999  0.00  0.00    +0.000 A 
ATOM     34  C   UNL     1      -4.609  12.434  24.432  0.00  0.00    +0.000 A 
ATOM     35  N   UNL     1      -5.897  12.093  24.350  0.00  0.00    +0.000 NA
ENDBRANCH  24  33
ENDBRANCH   1  28
TORSDOF 3
ENDMDL
MODEL 9
REMARK VINA RESULT:      -7.4      5.647      8.598
REMARK  Name = 
REMARK  4 active torsions:
REMARK  status: ('A' for Active; 'I' for Inactive)
REMARK    1  A    between atoms: C_1  and  N_2
REMARK    2  A    between atoms: C_4  and  C_5
REMARK    3  A    between atoms: C_9  and  N_10
REMARK    4  A    between atoms: C_12  and  C_13
REMARK                            x       y       z     vdW  Elec       q    Type
REMARK                         _______ _______ _______ _____ _____    ______ ____
ROOT
ATOM      1  N   UNL     1       6.081  15.273  20.130  0.00  0.00    +0.000 N 
ATOM      2  N   UNL     1       6.019  15.056  21.484  0.00  0.00    +0.000 NA
ATOM      3  C   UNL     1       7.284  15.154  21.926  0.00  0.00    +0.000 A 
ATOM      4  C   UNL     1       8.164  15.420  20.845  0.00  0.00    +0.000 A 
ATOM      5  C   UNL     1       7.398  15.281  19.679  0.00  0.00    +0.000 A 
ATOM      6  C   UNL     1       7.979  14.732  18.392  0.00  0.00    +0.000 A 
ATOM      7  C   UNL     1       7.241  13.970  17.488  0.00  0.00    +0.000 A 
ATOM      8  C   UNL     1       7.630  12.652  17.228  0.00  0.00    +0.000 A 
ATOM      9  C   UNL     1       8.774  12.139  17.831  0.00  0.00    +0.000 A 
ATOM     10  C   UNL     1       9.671  13.013  18.432  0.00  0.00    +0.000 A 
ATOM     11  C   UNL     1       9.317  14.353  18.541  0.00  0.00    +0.000 A 
ATOM     12  S   UNL     1      10.381  15.533  19.309  0.00  0.00    +0.000 S 
ATOM     13  O   UNL     1      10.135  16.821  18.681  0.00  0.00    +0.000 OA
ATOM     14  O   UNL     1      11.720  14.975  19.361  0.00  0.00    +0.000 OA
ATOM     15  C   UNL     1       9.657  15.513  20.938  0.00  0.00    +0.000 C 
ENDROOT
BRANCH   3  16
ATOM     16  C   UNL     1       7.729  14.817  23.306  0.00  0.00    +0.000 C 
ATOM     17  O   UNL     1       8.158  15.721  24.027  0.00  0.00    +0.000 OA
ATOM     18  N   UNL     1       7.627  13.522  23.793  0.00  0.00    +0.000 N 
ATOM     19  C   UNL     1       7.001  12.392  23.106  0.00  0.00    +0.000 C 
ATOM     20  C   UNL     1       6.136  11.574  24.081  0.00  0.00    +0.000 C 
ATOM     21  O   UNL     1       6.858  11.206  25.268  0.00  0.00    +0.000 OA
ATOM     22  C   UNL     1       7.323  12.373  25.956  0.00  0.00    +0.000 C 
ATOM     23  C   UNL     1       8.271  13.180  25.069  0.00  0.00    +0.000 C 
ENDBRANCH   3  16
BRANCH   1  28
ATOM     24  C   UNL     1       2.698  14.594  18.696  0.00  0.00    +0.000 A 
ATOM     25  C   UNL     1       2.535  15.746  17.914  0.00  0.00    +0.000 A 
ATOM     26  C   UNL     1       3.499  16.746  17.885  0.00  0.00    +0.000 A 
ATOM     27  C   UNL     1       4.671  16.619  18.646  0.00  0.00    +0.000 A 
ATOM     28  C   UNL     1       4.878  15.457  19.397  0.00  0.00    +0.000 A 
ATOM     29  C   UNL     1       3.867  14.475  19.456  0.00  0.00    +0.000 A 
BRANCH  24  33
ATOM     30  C   UNL     1       0.457  10.159  18.794  0.00  0.00    +0.000 C 
ATOM     31  N   UNL     1       0.719  11.576  18.772  0.00  0.00    +0.000 N 
ATOM     32  C   UNL     1       1.931  12.191  18.857  0.00  0.00    +0.000 A 
ATOM     33  C   UNL     1       1.698  13.545  18.717  0.00  0.00    +0.000 A 
ATOM     34  C   UNL     1       0.286  13.626  18.581  0.00  0.00    +0.000 A 
ATOM     35  N   UNL     1      -0.307  12.431  18.616  0.00  0.00    +0.000 NA
ENDBRANCH  24  33
ENDBRANCH   1  28
TORSDOF 3
ENDMDL
