MODEL 1
REMARK VINA RESULT:      -7.9      0.000      0.000
REMARK  Name = 
REMARK  9 active torsions:
REMARK  status: ('A' for Active; 'I' for Inactive)
REMARK    1  A    between atoms: C_1  and  C_2
REMARK    2  A    between atoms: C_2  and  O_4
REMARK    3  A    between atoms: O_4  and  C_5
REMARK    4  A    between atoms: C_10  and  C_11
REMARK    5  A    between atoms: C_11  and  N_12
REMARK    6  A    between atoms: C_13  and  C_14
REMARK    7  A    between atoms: C_15  and  C_16
REMARK    8  A    between atoms: N_18  and  C_19
REMARK    9  A    between atoms: C_19  and  C_20
REMARK                            x       y       z     vdW  Elec       q    Type
REMARK                         _______ _______ _______ _____ _____    ______ ____
ROOT
ATOM      1  N   UNL     1       2.305   7.429  19.406  0.00  0.00    +0.000 N 
ATOM      2  C   UNL     1       1.421   8.267  20.096  0.00  0.00    +0.000 A 
ATOM      3  C   UNL     1       0.920   7.934  21.465  0.00  0.00    +0.000 C 
ATOM      4  C   UNL     1       1.117   9.393  19.416  0.00  0.00    +0.000 A 
ATOM      5  S   UNL     1       1.862   9.429  17.845  0.00  0.00    +0.000 S 
ATOM      6  C   UNL     1       2.701   7.912  18.161  0.00  0.00    +0.000 A 
ATOM      7  O   UNL     1       3.504   7.432  17.382  0.00  0.00    +0.000 OA
ENDROOT
BRANCH   4   8
ATOM      8  C   UNL     1       0.338  10.577  19.912  0.00  0.00    +0.000 C 
ATOM      9  O   UNL     1       0.714  11.245  20.870  0.00  0.00    +0.000 OA
ATOM     10  N   UNL     1      -0.785  10.887  19.178  0.00  0.00    +0.000 N 
ATOM     11  H   UNL     1      -1.027  10.294  18.394  0.00  0.00    +0.000 HD
BRANCH  10  12
ATOM     12  C   UNL     1      -1.548  12.105  19.360  0.00  0.00    +0.000 C 
BRANCH  12  13
ATOM     13  C   UNL     1      -2.984  11.927  18.933  0.00  0.00    +0.000 A 
ATOM     14  C   UNL     1      -3.276  11.315  17.702  0.00  0.00    +0.000 A 
ATOM     15  C   UNL     1      -4.599  11.152  17.288  0.00  0.00    +0.000 A 
ATOM     16  C   UNL     1      -5.631  11.603  18.099  0.00  0.00    +0.000 A 
ATOM     17  F   UNL     1      -6.901  11.450  17.698  0.00  0.00    +0.000 F 
ATOM     18  C   UNL     1      -5.367  12.214  19.320  0.00  0.00    +0.000 A 
ATOM     19  C   UNL     1      -4.043  12.377  19.737  0.00  0.00    +0.000 A 
ENDBRANCH  12  13
ENDBRANCH  10  12
ENDBRANCH   4   8
BRANCH   1  20
ATOM     20  C   UNL     1       2.976   6.248  19.966  0.00  0.00    +0.000 C 
BRANCH  20  26
ATOM     21  C   UNL     1       2.820   4.109  18.541  0.00  0.00    +0.000 A 
ATOM     22  C   UNL     1       2.204   2.881  18.240  0.00  0.00    +0.000 A 
ATOM     23  C   UNL     1       1.076   2.469  18.937  0.00  0.00    +0.000 A 
ATOM     24  C   UNL     1       0.572   3.268  19.952  0.00  0.00    +0.000 A 
ATOM     25  C   UNL     1       1.208   4.470  20.282  0.00  0.00    +0.000 A 
ATOM     26  C   UNL     1       2.364   4.909  19.605  0.00  0.00    +0.000 A 
BRANCH  21  27
ATOM     27  O   UNL     1       3.975   4.469  17.818  0.00  0.00    +0.000 OA
BRANCH  27  29
ATOM     28  C   UNL     1       6.322   4.745  17.627  0.00  0.00    +0.000 C 
ATOM     29  C   UNL     1       5.192   4.135  18.412  0.00  0.00    +0.000 C 
ATOM     30  O   UNL     1       5.357   3.455  19.417  0.00  0.00    +0.000 OA
ENDBRANCH  27  29
ENDBRANCH  21  27
ENDBRANCH  20  26
ENDBRANCH   1  20
TORSDOF 7
ENDMDL
MODEL 2
REMARK VINA RESULT:      -7.8      1.913      3.478
REMARK  Name = 
REMARK  9 active torsions:
REMARK  status: ('A' for Active; 'I' for Inactive)
REMARK    1  A    between atoms: C_1  and  C_2
REMARK    2  A    between atoms: C_2  and  O_4
REMARK    3  A    between atoms: O_4  and  C_5
REMARK    4  A    between atoms: C_10  and  C_11
REMARK    5  A    between atoms: C_11  and  N_12
REMARK    6  A    between atoms: C_13  and  C_14
REMARK    7  A    between atoms: C_15  and  C_16
REMARK    8  A    between atoms: N_18  and  C_19
REMARK    9  A    between atoms: C_19  and  C_20
REMARK                            x       y       z     vdW  Elec       q    Type
REMARK                         _______ _______ _______ _____ _____    ______ ____
ROOT
ATOM      1  N   UNL     1       2.372   6.888  19.138  0.00  0.00    +0.000 N 
ATOM      2  C   UNL     1       1.923   8.172  18.812  0.00  0.00    +0.000 A 
ATOM      3  C   UNL     1       2.124   8.759  17.450  0.00  0.00    +0.000 C 
ATOM      4  C   UNL     1       1.275   8.782  19.826  0.00  0.00    +0.000 A 
ATOM      5  S   UNL     1       1.256   7.810  21.268  0.00  0.00    +0.000 S 
ATOM      6  C   UNL     1       2.066   6.485  20.436  0.00  0.00    +0.000 A 
ATOM      7  O   UNL     1       2.271   5.407  20.964  0.00  0.00    +0.000 OA
ENDROOT
BRANCH   4   8
ATOM      8  C   UNL     1       0.527  10.085  19.781  0.00  0.00    +0.000 C 
ATOM      9  O   UNL     1       1.092  11.161  19.946  0.00  0.00    +0.000 OA
ATOM     10  N   UNL     1      -0.812   9.979  19.481  0.00  0.00    +0.000 N 
ATOM     11  H   UNL     1      -1.205   9.055  19.348  0.00  0.00    +0.000 HD
BRANCH  10  12
ATOM     12  C   UNL     1      -1.656  11.118  19.181  0.00  0.00    +0.000 C 
BRANCH  12  13
ATOM     13  C   UNL     1      -2.412  10.921  17.891  0.00  0.00    +0.000 A 
ATOM     14  C   UNL     1      -3.658  11.546  17.708  0.00  0.00    +0.000 A 
ATOM     15  C   UNL     1      -4.374  11.366  16.524  0.00  0.00    +0.000 A 
ATOM     16  C   UNL     1      -3.851  10.557  15.523  0.00  0.00    +0.000 A 
ATOM     17  F   UNL     1      -4.542  10.381  14.388  0.00  0.00    +0.000 F 
ATOM     18  C   UNL     1      -2.622   9.927  15.682  0.00  0.00    +0.000 A 
ATOM     19  C   UNL     1      -1.903  10.108  16.866  0.00  0.00    +0.000 A 
ENDBRANCH  12  13
ENDBRANCH  10  12
ENDBRANCH   4   8
BRANCH   1  20
ATOM     20  C   UNL     1       2.921   5.907  18.191  0.00  0.00    +0.000 C 
BRANCH  20  26
ATOM     21  C   UNL     1       5.192   4.839  18.767  0.00  0.00    +0.000 A 
ATOM     22  C   UNL     1       6.596   4.828  18.681  0.00  0.00    +0.000 A 
ATOM     23  C   UNL     1       7.271   5.847  18.024  0.00  0.00    +0.000 A 
ATOM     24  C   UNL     1       6.547   6.870  17.429  0.00  0.00    +0.000 A 
ATOM     25  C   UNL     1       5.148   6.862  17.476  0.00  0.00    +0.000 A 
ATOM     26  C   UNL     1       4.433   5.833  18.121  0.00  0.00    +0.000 A 
BRANCH  21  27
ATOM     27  O   UNL     1       4.556   3.768  19.427  0.00  0.00    +0.000 OA
BRANCH  27  29
ATOM     28  C   UNL     1       2.694   2.303  19.360  0.00  0.00    +0.000 C 
ATOM     29  C   UNL     1       3.866   2.874  18.609  0.00  0.00    +0.000 C 
ATOM     30  O   UNL     1       4.138   2.576  17.452  0.00  0.00    +0.000 OA
ENDBRANCH  27  29
ENDBRANCH  21  27
ENDBRANCH  20  26
ENDBRANCH   1  20
TORSDOF 7
ENDMDL
MODEL 3
REMARK VINA RESULT:      -7.7      2.011      3.591
REMARK  Name = 
REMARK  9 active torsions:
REMARK  status: ('A' for Active; 'I' for Inactive)
REMARK    1  A    between atoms: C_1  and  C_2
REMARK    2  A    between atoms: C_2  and  O_4
REMARK    3  A    between atoms: O_4  and  C_5
REMARK    4  A    between atoms: C_10  and  C_11
REMARK    5  A    between atoms: C_11  and  N_12
REMARK    6  A    between atoms: C_13  and  C_14
REMARK    7  A    between atoms: C_15  and  C_16
REMARK    8  A    between atoms: N_18  and  C_19
REMARK    9  A    between atoms: C_19  and  C_20
REMARK                            x       y       z     vdW  Elec       q    Type
REMARK                         _______ _______ _______ _____ _____    ______ ____
ROOT
ATOM      1  N   UNL     1       2.962   5.890  19.011  0.00  0.00    +0.000 N 
ATOM      2  C   UNL     1       2.631   7.243  18.871  0.00  0.00    +0.000 A 
ATOM      3  C   UNL     1       3.121   8.063  17.718  0.00  0.00    +0.000 C 
ATOM      4  C   UNL     1       1.814   7.694  19.846  0.00  0.00    +0.000 A 
ATOM      5  S   UNL     1       1.474   6.469  21.031  0.00  0.00    +0.000 S 
ATOM      6  C   UNL     1       2.388   5.271  20.119  0.00  0.00    +0.000 A 
ATOM      7  O   UNL     1       2.447   4.100  20.448  0.00  0.00    +0.000 OA
ENDROOT
BRANCH   4   8
ATOM      8  C   UNL     1       1.135   9.032  19.922  0.00  0.00    +0.000 C 
ATOM      9  O   UNL     1       1.083   9.673  20.967  0.00  0.00    +0.000 OA
ATOM     10  N   UNL     1       0.638   9.504  18.729  0.00  0.00    +0.000 N 
ATOM     11  H   UNL     1       0.727   8.921  17.906  0.00  0.00    +0.000 HD
BRANCH  10  12
ATOM     12  C   UNL     1       0.142  10.853  18.547  0.00  0.00    +0.000 C 
BRANCH  12  13
ATOM     13  C   UNL     1      -1.335  10.862  18.238  0.00  0.00    +0.000 A 
ATOM     14  C   UNL     1      -1.856   9.967  17.288  0.00  0.00    +0.000 A 
ATOM     15  C   UNL     1      -3.218   9.970  16.985  0.00  0.00    +0.000 A 
ATOM     16  C   UNL     1      -4.061  10.869  17.623  0.00  0.00    +0.000 A 
ATOM     17  F   UNL     1      -5.368  10.874  17.327  0.00  0.00    +0.000 F 
ATOM     18  C   UNL     1      -3.568  11.766  18.564  0.00  0.00    +0.000 A 
ATOM     19  C   UNL     1      -2.205  11.764  18.871  0.00  0.00    +0.000 A 
ENDBRANCH  12  13
ENDBRANCH  10  12
ENDBRANCH   4   8
BRANCH   1  20
ATOM     20  C   UNL     1       3.656   5.071  18.008  0.00  0.00    +0.000 C 
BRANCH  20  26
ATOM     21  C   UNL     1       5.999   4.500  17.106  0.00  0.00    +0.000 A 
ATOM     22  C   UNL     1       7.399   4.512  17.242  0.00  0.00    +0.000 A 
ATOM     23  C   UNL     1       7.992   5.014  18.393  0.00  0.00    +0.000 A 
ATOM     24  C   UNL     1       7.191   5.527  19.403  0.00  0.00    +0.000 A 
ATOM     25  C   UNL     1       5.800   5.556  19.253  0.00  0.00    +0.000 A 
ATOM     26  C   UNL     1       5.169   5.069  18.091  0.00  0.00    +0.000 A 
BRANCH  21  27
ATOM     27  O   UNL     1       5.450   3.999  15.909  0.00  0.00    +0.000 OA
BRANCH  27  29
ATOM     28  C   UNL     1       6.084   3.877  13.628  0.00  0.00    +0.000 C 
ATOM     29  C   UNL     1       5.677   4.770  14.768  0.00  0.00    +0.000 C 
ATOM     30  O   UNL     1       5.569   5.986  14.670  0.00  0.00    +0.000 OA
ENDBRANCH  27  29
ENDBRANCH  21  27
ENDBRANCH  20  26
ENDBRANCH   1  20
TORSDOF 7
ENDMDL
MODEL 4
REMARK VINA RESULT:      -7.5      2.901      4.333
REMARK  Name = 
REMARK  9 active torsions:
REMARK  status: ('A' for Active; 'I' for Inactive)
REMARK    1  A    between atoms: C_1  and  C_2
REMARK    2  A    between atoms: C_2  and  O_4
REMARK    3  A    between atoms: O_4  and  C_5
REMARK    4  A    between atoms: C_10  and  C_11
REMARK    5  A    between atoms: C_11  and  N_12
REMARK    6  A    between atoms: C_13  and  C_14
REMARK    7  A    between atoms: C_15  and  C_16
REMARK    8  A    between atoms: N_18  and  C_19
REMARK    9  A    between atoms: C_19  and  C_20
REMARK                            x       y       z     vdW  Elec       q    Type
REMARK                         _______ _______ _______ _____ _____    ______ ____
ROOT
ATOM      1  N   UNL     1       2.999   5.908  19.136  0.00  0.00    +0.000 N 
ATOM      2  C   UNL     1       2.811   7.179  18.580  0.00  0.00    +0.000 A 
ATOM      3  C   UNL     1       3.478   7.593  17.306  0.00  0.00    +0.000 C 
ATOM      4  C   UNL     1       1.955   7.947  19.287  0.00  0.00    +0.000 A 
ATOM      5  S   UNL     1       1.396   7.146  20.725  0.00  0.00    +0.000 S 
ATOM      6  C   UNL     1       2.272   5.678  20.301  0.00  0.00    +0.000 A 
ATOM      7  O   UNL     1       2.190   4.653  20.954  0.00  0.00    +0.000 OA
ENDROOT
BRANCH   4   8
ATOM      8  C   UNL     1       1.402   9.289  18.903  0.00  0.00    +0.000 C 
ATOM      9  O   UNL     1       1.246   9.614  17.730  0.00  0.00    +0.000 OA
ATOM     10  N   UNL     1       1.032  10.092  19.958  0.00  0.00    +0.000 N 
ATOM     11  H   UNL     1       1.183   9.750  20.899  0.00  0.00    +0.000 HD
BRANCH  10  12
ATOM     12  C   UNL     1       0.287  11.325  19.801  0.00  0.00    +0.000 C 
BRANCH  12  13
ATOM     13  C   UNL     1      -0.673  11.540  20.945  0.00  0.00    +0.000 A 
ATOM     14  C   UNL     1      -0.502  10.827  22.144  0.00  0.00    +0.000 A 
ATOM     15  C   UNL     1      -1.387  11.008  23.208  0.00  0.00    +0.000 A 
ATOM     16  C   UNL     1      -2.446  11.895  23.076  0.00  0.00    +0.000 A 
ATOM     17  F   UNL     1      -3.298  12.064  24.097  0.00  0.00    +0.000 F 
ATOM     18  C   UNL     1      -2.637  12.610  21.898  0.00  0.00    +0.000 A 
ATOM     19  C   UNL     1      -1.751  12.432  20.833  0.00  0.00    +0.000 A 
ENDBRANCH  12  13
ENDBRANCH  10  12
ENDBRANCH   4   8
BRANCH   1  20
ATOM     20  C   UNL     1       3.700   4.789  18.492  0.00  0.00    +0.000 C 
BRANCH  20  26
ATOM     21  C   UNL     1       5.964   4.494  17.301  0.00  0.00    +0.000 A 
ATOM     22  C   UNL     1       7.365   4.620  17.286  0.00  0.00    +0.000 A 
ATOM     23  C   UNL     1       8.043   5.088  18.404  0.00  0.00    +0.000 A 
ATOM     24  C   UNL     1       7.324   5.453  19.533  0.00  0.00    +0.000 A 
ATOM     25  C   UNL     1       5.927   5.370  19.536  0.00  0.00    +0.000 A 
ATOM     26  C   UNL     1       5.209   4.914  18.412  0.00  0.00    +0.000 A 
BRANCH  21  27
ATOM     27  O   UNL     1       5.325   4.035  16.132  0.00  0.00    +0.000 OA
BRANCH  27  29
ATOM     28  C   UNL     1       5.977   3.876  13.858  0.00  0.00    +0.000 C 
ATOM     29  C   UNL     1       5.554   4.787  14.979  0.00  0.00    +0.000 C 
ATOM     30  O   UNL     1       5.438   6.000  14.858  0.00  0.00    +0.000 OA
ENDBRANCH  27  29
ENDBRANCH  21  27
ENDBRANCH  20  26
ENDBRANCH   1  20
TORSDOF 7
ENDMDL
MODEL 5
REMARK VINA RESULT:      -7.5      3.744      5.017
REMARK  Name = 
REMARK  9 active torsions:
REMARK  status: ('A' for Active; 'I' for Inactive)
REMARK    1  A    between atoms: C_1  and  C_2
REMARK    2  A    between atoms: C_2  and  O_4
REMARK    3  A    between atoms: O_4  and  C_5
REMARK    4  A    between atoms: C_10  and  C_11
REMARK    5  A    between atoms: C_11  and  N_12
REMARK    6  A    between atoms: C_13  and  C_14
REMARK    7  A    between atoms: C_15  and  C_16
REMARK    8  A    between atoms: N_18  and  C_19
REMARK    9  A    between atoms: C_19  and  C_20
REMARK                            x       y       z     vdW  Elec       q    Type
REMARK                         _______ _______ _______ _____ _____    ______ ____
ROOT
ATOM      1  N   UNL     1       2.107   7.259  19.190  0.00  0.00    +0.000 N 
ATOM      2  C   UNL     1       1.770   8.589  18.914  0.00  0.00    +0.000 A 
ATOM      3  C   UNL     1       2.047   9.216  17.584  0.00  0.00    +0.000 C 
ATOM      4  C   UNL     1       1.150   9.204  19.943  0.00  0.00    +0.000 A 
ATOM      5  S   UNL     1       1.022   8.175  21.338  0.00  0.00    +0.000 S 
ATOM      6  C   UNL     1       1.741   6.826  20.462  0.00  0.00    +0.000 A 
ATOM      7  O   UNL     1       1.848   5.713  20.945  0.00  0.00    +0.000 OA
ENDROOT
BRANCH   4   8
ATOM      8  C   UNL     1       0.511  10.564  19.943  0.00  0.00    +0.000 C 
ATOM      9  O   UNL     1      -0.679  10.720  19.692  0.00  0.00    +0.000 OA
ATOM     10  N   UNL     1       1.343  11.600  20.303  0.00  0.00    +0.000 N 
ATOM     11  H   UNL     1       2.313  11.391  20.505  0.00  0.00    +0.000 HD
BRANCH  10  12
ATOM     12  C   UNL     1       0.874  12.945  20.569  0.00  0.00    +0.000 C 
BRANCH  12  13
ATOM     13  C   UNL     1       1.534  13.950  19.657  0.00  0.00    +0.000 A 
ATOM     14  C   UNL     1       2.720  13.611  18.984  0.00  0.00    +0.000 A 
ATOM     15  C   UNL     1       3.347  14.533  18.145  0.00  0.00    +0.000 A 
ATOM     16  C   UNL     1       2.795  15.796  17.981  0.00  0.00    +0.000 A 
ATOM     17  F   UNL     1       3.401  16.682  17.178  0.00  0.00    +0.000 F 
ATOM     18  C   UNL     1       1.624  16.156  18.638  0.00  0.00    +0.000 A 
ATOM     19  C   UNL     1       0.994  15.234  19.478  0.00  0.00    +0.000 A 
ENDBRANCH  12  13
ENDBRANCH  10  12
ENDBRANCH   4   8
BRANCH   1  20
ATOM     20  C   UNL     1       2.596   6.279  18.210  0.00  0.00    +0.000 C 
BRANCH  20  26
ATOM     21  C   UNL     1       4.837   5.233  18.925  0.00  0.00    +0.000 A 
ATOM     22  C   UNL     1       6.237   5.144  18.815  0.00  0.00    +0.000 A 
ATOM     23  C   UNL     1       6.934   5.998  17.971  0.00  0.00    +0.000 A 
ATOM     24  C   UNL     1       6.235   6.928  17.215  0.00  0.00    +0.000 A 
ATOM     25  C   UNL     1       4.839   6.990  17.290  0.00  0.00    +0.000 A 
ATOM     26  C   UNL     1       4.102   6.127  18.125  0.00  0.00    +0.000 A 
BRANCH  21  27
ATOM     27  O   UNL     1       4.178   4.327  19.780  0.00  0.00    +0.000 OA
BRANCH  27  29
ATOM     28  C   UNL     1       3.669   2.619  18.218  0.00  0.00    +0.000 C 
ATOM     29  C   UNL     1       4.372   2.975  19.499  0.00  0.00    +0.000 C 
ATOM     30  O   UNL     1       5.012   2.170  20.166  0.00  0.00    +0.000 OA
ENDBRANCH  27  29
ENDBRANCH  21  27
ENDBRANCH  20  26
ENDBRANCH   1  20
TORSDOF 7
ENDMDL
MODEL 6
REMARK VINA RESULT:      -7.5      2.914      3.937
REMARK  Name = 
REMARK  9 active torsions:
REMARK  status: ('A' for Active; 'I' for Inactive)
REMARK    1  A    between atoms: C_1  and  C_2
REMARK    2  A    between atoms: C_2  and  O_4
REMARK    3  A    between atoms: O_4  and  C_5
REMARK    4  A    between atoms: C_10  and  C_11
REMARK    5  A    between atoms: C_11  and  N_12
REMARK    6  A    between atoms: C_13  and  C_14
REMARK    7  A    between atoms: C_15  and  C_16
REMARK    8  A    between atoms: N_18  and  C_19
REMARK    9  A    between atoms: C_19  and  C_20
REMARK                            x       y       z     vdW  Elec       q    Type
REMARK                         _______ _______ _______ _____ _____    ______ ____
ROOT
ATOM      1  N   UNL     1       2.160   7.267  19.166  0.00  0.00    +0.000 N 
ATOM      2  C   UNL     1       1.871   8.601  18.857  0.00  0.00    +0.000 A 
ATOM      3  C   UNL     1       2.211   9.197  17.526  0.00  0.00    +0.000 C 
ATOM      4  C   UNL     1       1.237   9.253  19.854  0.00  0.00    +0.000 A 
ATOM      5  S   UNL     1       1.032   8.253  21.261  0.00  0.00    +0.000 S 
ATOM      6  C   UNL     1       1.739   6.868  20.432  0.00  0.00    +0.000 A 
ATOM      7  O   UNL     1       1.797   5.761  20.937  0.00  0.00    +0.000 OA
ENDROOT
BRANCH   4   8
ATOM      8  C   UNL     1       0.639  10.630  19.810  0.00  0.00    +0.000 C 
ATOM      9  O   UNL     1      -0.259  10.921  19.026  0.00  0.00    +0.000 OA
ATOM     10  N   UNL     1       1.129  11.510  20.748  0.00  0.00    +0.000 N 
ATOM     11  H   UNL     1       1.864  11.193  21.368  0.00  0.00    +0.000 HD
BRANCH  10  12
ATOM     12  C   UNL     1       0.541  12.809  21.010  0.00  0.00    +0.000 C 
BRANCH  12  13
ATOM     13  C   UNL     1      -0.788  12.681  21.713  0.00  0.00    +0.000 A 
ATOM     14  C   UNL     1      -1.858  13.513  21.342  0.00  0.00    +0.000 A 
ATOM     15  C   UNL     1      -3.091  13.414  21.989  0.00  0.00    +0.000 A 
ATOM     16  C   UNL     1      -3.255  12.489  23.012  0.00  0.00    +0.000 A 
ATOM     17  F   UNL     1      -4.438  12.398  23.636  0.00  0.00    +0.000 F 
ATOM     18  C   UNL     1      -2.210  11.657  23.398  0.00  0.00    +0.000 A 
ATOM     19  C   UNL     1      -0.976  11.754  22.750  0.00  0.00    +0.000 A 
ENDBRANCH  12  13
ENDBRANCH  10  12
ENDBRANCH   4   8
BRANCH   1  20
ATOM     20  C   UNL     1       2.651   6.256  18.220  0.00  0.00    +0.000 C 
BRANCH  20  26
ATOM     21  C   UNL     1       4.879   5.215  18.982  0.00  0.00    +0.000 A 
ATOM     22  C   UNL     1       6.279   5.115  18.888  0.00  0.00    +0.000 A 
ATOM     23  C   UNL     1       6.989   5.943  18.029  0.00  0.00    +0.000 A 
ATOM     24  C   UNL     1       6.304   6.858  17.243  0.00  0.00    +0.000 A 
ATOM     25  C   UNL     1       4.907   6.930  17.303  0.00  0.00    +0.000 A 
ATOM     26  C   UNL     1       4.157   6.093  18.153  0.00  0.00    +0.000 A 
BRANCH  21  27
ATOM     27  O   UNL     1       4.206   4.336  19.854  0.00  0.00    +0.000 OA
BRANCH  27  29
ATOM     28  C   UNL     1       3.635   2.620  18.322  0.00  0.00    +0.000 C 
ATOM     29  C   UNL     1       4.365   2.976  19.588  0.00  0.00    +0.000 C 
ATOM     30  O   UNL     1       4.996   2.166  20.256  0.00  0.00    +0.000 OA
ENDBRANCH  27  29
ENDBRANCH  21  27
ENDBRANCH  20  26
ENDBRANCH   1  20
TORSDOF 7
ENDMDL
MODEL 7
REMARK VINA RESULT:      -7.5      1.277      1.505
REMARK  Name = 
REMARK  9 active torsions:
REMARK  status: ('A' for Active; 'I' for Inactive)
REMARK    1  A    between atoms: C_1  and  C_2
REMARK    2  A    between atoms: C_2  and  O_4
REMARK    3  A    between atoms: O_4  and  C_5
REMARK    4  A    between atoms: C_10  and  C_11
REMARK    5  A    between atoms: C_11  and  N_12
REMARK    6  A    between atoms: C_13  and  C_14
REMARK    7  A    between atoms: C_15  and  C_16
REMARK    8  A    between atoms: N_18  and  C_19
REMARK    9  A    between atoms: C_19  and  C_20
REMARK                            x       y       z     vdW  Elec       q    Type
REMARK                         _______ _______ _______ _____ _____    ______ ____
ROOT
ATOM      1  N   UNL     1       1.986   8.040  19.452  0.00  0.00    +0.000 N 
ATOM      2  C   UNL     1       1.248   8.769  20.391  0.00  0.00    +0.000 A 
ATOM      3  C   UNL     1       1.148   8.344  21.822  0.00  0.00    +0.000 C 
ATOM      4  C   UNL     1       0.687   9.884  19.877  0.00  0.00    +0.000 A 
ATOM      5  S   UNL     1       0.993  10.043  18.173  0.00  0.00    +0.000 S 
ATOM      6  C   UNL     1       2.005   8.600  18.177  0.00  0.00    +0.000 A 
ATOM      7  O   UNL     1       2.613   8.224  17.192  0.00  0.00    +0.000 OA
ENDROOT
BRANCH   4   8
ATOM      8  C   UNL     1      -0.029  10.974  20.623  0.00  0.00    +0.000 C 
ATOM      9  O   UNL     1       0.268  11.272  21.776  0.00  0.00    +0.000 OA
ATOM     10  N   UNL     1      -0.989  11.644  19.900  0.00  0.00    +0.000 N 
ATOM     11  H   UNL     1      -1.171  11.346  18.949  0.00  0.00    +0.000 HD
BRANCH  10  12
ATOM     12  C   UNL     1      -1.638  12.855  20.361  0.00  0.00    +0.000 C 
BRANCH  12  13
ATOM     13  C   UNL     1      -3.126  12.658  20.518  0.00  0.00    +0.000 A 
ATOM     14  C   UNL     1      -3.908  12.321  19.400  0.00  0.00    +0.000 A 
ATOM     15  C   UNL     1      -5.287  12.146  19.527  0.00  0.00    +0.000 A 
ATOM     16  C   UNL     1      -5.887  12.313  20.768  0.00  0.00    +0.000 A 
ATOM     17  F   UNL     1      -7.212  12.148  20.888  0.00  0.00    +0.000 F 
ATOM     18  C   UNL     1      -5.134  12.649  21.887  0.00  0.00    +0.000 A 
ATOM     19  C   UNL     1      -3.754  12.823  21.763  0.00  0.00    +0.000 A 
ENDBRANCH  12  13
ENDBRANCH  10  12
ENDBRANCH   4   8
BRANCH   1  20
ATOM     20  C   UNL     1       2.873   6.908  19.753  0.00  0.00    +0.000 C 
BRANCH  20  26
ATOM     21  C   UNL     1       2.549   4.788  18.328  0.00  0.00    +0.000 A 
ATOM     22  C   UNL     1       1.972   3.520  18.133  0.00  0.00    +0.000 A 
ATOM     23  C   UNL     1       1.069   3.008  19.055  0.00  0.00    +0.000 A 
ATOM     24  C   UNL     1       0.755   3.748  20.186  0.00  0.00    +0.000 A 
ATOM     25  C   UNL     1       1.361   4.991  20.403  0.00  0.00    +0.000 A 
ATOM     26  C   UNL     1       2.293   5.531  19.495  0.00  0.00    +0.000 A 
BRANCH  21  27
ATOM     27  O   UNL     1       3.477   5.251  17.373  0.00  0.00    +0.000 OA
BRANCH  27  29
ATOM     28  C   UNL     1       5.063   4.190  15.966  0.00  0.00    +0.000 C 
ATOM     29  C   UNL     1       4.716   4.609  17.369  0.00  0.00    +0.000 C 
ATOM     30  O   UNL     1       5.439   4.401  18.335  0.00  0.00    +0.000 OA
ENDBRANCH  27  29
ENDBRANCH  21  27
ENDBRANCH  20  26
ENDBRANCH   1  20
TORSDOF 7
ENDMDL
MODEL 8
REMARK VINA RESULT:      -7.5      1.964      2.482
REMARK  Name = 
REMARK  9 active torsions:
REMARK  status: ('A' for Active; 'I' for Inactive)
REMARK    1  A    between atoms: C_1  and  C_2
REMARK    2  A    between atoms: C_2  and  O_4
REMARK    3  A    between atoms: O_4  and  C_5
REMARK    4  A    between atoms: C_10  and  C_11
REMARK    5  A    between atoms: C_11  and  N_12
REMARK    6  A    between atoms: C_13  and  C_14
REMARK    7  A    between atoms: C_15  and  C_16
REMARK    8  A    between atoms: N_18  and  C_19
REMARK    9  A    between atoms: C_19  and  C_20
REMARK                            x       y       z     vdW  Elec       q    Type
REMARK                         _______ _______ _______ _____ _____    ______ ____
ROOT
ATOM      1  N   UNL     1       2.248   7.555  19.491  0.00  0.00    +0.000 N 
ATOM      2  C   UNL     1       1.513   8.519  20.189  0.00  0.00    +0.000 A 
ATOM      3  C   UNL     1       1.146   8.345  21.629  0.00  0.00    +0.000 C 
ATOM      4  C   UNL     1       1.219   9.605  19.444  0.00  0.00    +0.000 A 
ATOM      5  S   UNL     1       1.783   9.447  17.807  0.00  0.00    +0.000 S 
ATOM      6  C   UNL     1       2.537   7.897  18.172  0.00  0.00    +0.000 A 
ATOM      7  O   UNL     1       3.209   7.287  17.359  0.00  0.00    +0.000 OA
ENDROOT
BRANCH   4   8
ATOM      8  C   UNL     1       0.591  10.889  19.908  0.00  0.00    +0.000 C 
ATOM      9  O   UNL     1       1.243  11.762  20.470  0.00  0.00    +0.000 OA
ATOM     10  N   UNL     1      -0.744  11.030  19.602  0.00  0.00    +0.000 N 
ATOM     11  H   UNL     1      -1.212  10.269  19.127  0.00  0.00    +0.000 HD
BRANCH  10  12
ATOM     12  C   UNL     1      -1.475  12.270  19.770  0.00  0.00    +0.000 C 
BRANCH  12  13
ATOM     13  C   UNL     1      -2.234  12.291  21.074  0.00  0.00    +0.000 A 
ATOM     14  C   UNL     1      -3.556  12.766  21.106  0.00  0.00    +0.000 A 
ATOM     15  C   UNL     1      -4.268  12.800  22.306  0.00  0.00    +0.000 A 
ATOM     16  C   UNL     1      -3.660  12.366  23.476  0.00  0.00    +0.000 A 
ATOM     17  F   UNL     1      -4.343  12.404  24.629  0.00  0.00    +0.000 F 
ATOM     18  C   UNL     1      -2.352  11.894  23.470  0.00  0.00    +0.000 A 
ATOM     19  C   UNL     1      -1.638  11.858  22.270  0.00  0.00    +0.000 A 
ENDBRANCH  12  13
ENDBRANCH  10  12
ENDBRANCH   4   8
BRANCH   1  20
ATOM     20  C   UNL     1       2.889   6.372  20.083  0.00  0.00    +0.000 C 
BRANCH  20  26
ATOM     21  C   UNL     1       2.799   4.175  18.744  0.00  0.00    +0.000 A 
ATOM     22  C   UNL     1       2.173   2.953  18.437  0.00  0.00    +0.000 A 
ATOM     23  C   UNL     1       0.969   2.608  19.036  0.00  0.00    +0.000 A 
ATOM     24  C   UNL     1       0.397   3.469  19.961  0.00  0.00    +0.000 A 
ATOM     25  C   UNL     1       1.039   4.665  20.300  0.00  0.00    +0.000 A 
ATOM     26  C   UNL     1       2.269   5.037  19.722  0.00  0.00    +0.000 A 
BRANCH  21  27
ATOM     27  O   UNL     1       4.030   4.467  18.123  0.00  0.00    +0.000 OA
BRANCH  27  29
ATOM     28  C   UNL     1       6.204   5.249  18.654  0.00  0.00    +0.000 C 
ATOM     29  C   UNL     1       5.171   4.177  18.872  0.00  0.00    +0.000 C 
ATOM     30  O   UNL     1       5.343   3.212  19.607  0.00  0.00    +0.000 OA
ENDBRANCH  27  29
ENDBRANCH  21  27
ENDBRANCH  20  26
ENDBRANCH   1  20
TORSDOF 7
ENDMDL
MODEL 9
REMARK VINA RESULT:      -7.5      1.745      3.122
REMARK  Name = 
REMARK  9 active torsions:
REMARK  status: ('A' for Active; 'I' for Inactive)
REMARK    1  A    between atoms: C_1  and  C_2
REMARK    2  A    between atoms: C_2  and  O_4
REMARK    3  A    between atoms: O_4  and  C_5
REMARK    4  A    between atoms: C_10  and  C_11
REMARK    5  A    between atoms: C_11  and  N_12
REMARK    6  A    between atoms: C_13  and  C_14
REMARK    7  A    between atoms: C_15  and  C_16
REMARK    8  A    between atoms: N_18  and  C_19
REMARK    9  A    between atoms: C_19  and  C_20
REMARK                            x       y       z     vdW  Elec       q    Type
REMARK                         _______ _______ _______ _____ _____    ______ ____
ROOT
ATOM      1  N   UNL     1       2.131   7.313  19.161  0.00  0.00    +0.000 N 
ATOM      2  C   UNL     1       1.862   8.662  18.902  0.00  0.00    +0.000 A 
ATOM      3  C   UNL     1       2.193   9.298  17.588  0.00  0.00    +0.000 C 
ATOM      4  C   UNL     1       1.254   9.289  19.931  0.00  0.00    +0.000 A 
ATOM      5  S   UNL     1       1.052   8.244  21.306  0.00  0.00    +0.000 S 
ATOM      6  C   UNL     1       1.721   6.877  20.418  0.00  0.00    +0.000 A 
ATOM      7  O   UNL     1       1.767   5.753  20.883  0.00  0.00    +0.000 OA
ENDROOT
BRANCH   4   8
ATOM      8  C   UNL     1       0.680  10.678  19.943  0.00  0.00    +0.000 C 
ATOM      9  O   UNL     1       1.384  11.668  20.118  0.00  0.00    +0.000 OA
ATOM     10  N   UNL     1      -0.670  10.754  19.686  0.00  0.00    +0.000 N 
ATOM     11  H   UNL     1      -1.182   9.893  19.542  0.00  0.00    +0.000 HD
BRANCH  10  12
ATOM     12  C   UNL     1      -1.368  12.001  19.444  0.00  0.00    +0.000 C 
BRANCH  12  13
ATOM     13  C   UNL     1      -2.782  11.760  18.977  0.00  0.00    +0.000 A 
ATOM     14  C   UNL     1      -3.857  12.334  19.676  0.00  0.00    +0.000 A 
ATOM     15  C   UNL     1      -5.171  12.113  19.262  0.00  0.00    +0.000 A 
ATOM     16  C   UNL     1      -5.416  11.313  18.154  0.00  0.00    +0.000 A 
ATOM     17  F   UNL     1      -6.679  11.097  17.761  0.00  0.00    +0.000 F 
ATOM     18  C   UNL     1      -4.368  10.731  17.448  0.00  0.00    +0.000 A 
ATOM     19  C   UNL     1      -3.052  10.953  17.859  0.00  0.00    +0.000 A 
ENDBRANCH  12  13
ENDBRANCH  10  12
ENDBRANCH   4   8
BRANCH   1  20
ATOM     20  C   UNL     1       2.590   6.328  18.172  0.00  0.00    +0.000 C 
BRANCH  20  26
ATOM     21  C   UNL     1       4.829   5.238  18.828  0.00  0.00    +0.000 A 
ATOM     22  C   UNL     1       6.226   5.134  18.694  0.00  0.00    +0.000 A 
ATOM     23  C   UNL     1       6.920   5.997  17.856  0.00  0.00    +0.000 A 
ATOM     24  C   UNL     1       6.221   6.952  17.132  0.00  0.00    +0.000 A 
ATOM     25  C   UNL     1       4.827   7.030  17.231  0.00  0.00    +0.000 A 
ATOM     26  C   UNL     1       4.092   6.159  18.059  0.00  0.00    +0.000 A 
BRANCH  21  27
ATOM     27  O   UNL     1       4.172   4.323  19.675  0.00  0.00    +0.000 OA
BRANCH  27  29
ATOM     28  C   UNL     1       4.436   2.042  20.261  0.00  0.00    +0.000 C 
ATOM     29  C   UNL     1       4.052   3.022  19.186  0.00  0.00    +0.000 C 
ATOM     30  O   UNL     1       3.692   2.689  18.064  0.00  0.00    +0.000 OA
ENDBRANCH  27  29
ENDBRANCH  21  27
ENDBRANCH  20  26
ENDBRANCH   1  20
TORSDOF 7
ENDMDL
