MODEL 1
REMARK VINA RESULT:      -7.1      0.000      0.000
REMARK  Name = 
REMARK  5 active torsions:
REMARK  status: ('A' for Active; 'I' for Inactive)
REMARK    1  A    between atoms: C_1  and  C_2
REMARK    2  A    between atoms: C_2  and  C_3
REMARK    3  A    between atoms: C_2  and  C_10
REMARK    4  A    between atoms: C_3  and  C_4
REMARK    5  A    between atoms: N_12  and  C_13
REMARK                            x       y       z     vdW  Elec       q    Type
REMARK                         _______ _______ _______ _____ _____    ______ ____
ROOT
ATOM      1  C   UNL     1       2.741   5.306  18.092  0.00  0.00    +0.000 C 
ATOM      2  O   UNL     1       1.592   5.110  17.687  0.00  0.00    +0.000 OA
ATOM      3  N   UNL     1       3.171   6.492  18.663  0.00  0.00    +0.000 N 
ATOM      4  H   UNL     1       4.165   6.656  18.744  0.00  0.00    +0.000 HD
ENDROOT
BRANCH   3   5
ATOM      5  C   UNL     1       2.320   7.570  19.015  0.00  0.00    +0.000 A 
ATOM      6  C   UNL     1       1.804   7.730  20.303  0.00  0.00    +0.000 A 
ATOM      7  C   UNL     1       0.973   8.806  20.623  0.00  0.00    +0.000 A 
ATOM      8  C   UNL     1       0.657   9.744  19.646  0.00  0.00    +0.000 A 
ATOM      9 BR   UNL     1      -0.459  11.203  20.086  0.00  0.00    +0.000 Br
ATOM     10  C   UNL     1       1.170   9.611  18.360  0.00  0.00    +0.000 A 
ATOM     11  C   UNL     1       2.010   8.533  18.044  0.00  0.00    +0.000 A 
ENDBRANCH   3   5
BRANCH   1  13
ATOM     12  C   UNL     1       3.067   2.887  17.622  0.00  0.00    +0.000 C 
ATOM     13  C   UNL     1       3.790   4.194  17.995  0.00  0.00    +0.000 C 
BRANCH  13  14
ATOM     14  C   UNL     1       4.889   4.537  16.974  0.00  0.00    +0.000 C 
BRANCH  14  15
ATOM     15  C   UNL     1       6.001   5.401  17.526  0.00  0.00    +0.000 A 
ATOM     16  C   UNL     1       6.305   6.630  16.922  0.00  0.00    +0.000 A 
ATOM     17  C   UNL     1       7.343   7.426  17.414  0.00  0.00    +0.000 A 
ATOM     18  C   UNL     1       8.087   7.004  18.514  0.00  0.00    +0.000 A 
ATOM     19  C   UNL     1       7.789   5.789  19.127  0.00  0.00    +0.000 A 
ATOM     20  C   UNL     1       6.749   4.994  18.641  0.00  0.00    +0.000 A 
ENDBRANCH  14  15
ENDBRANCH  13  14
ENDBRANCH   1  13
TORSDOF 4
ENDMDL
MODEL 2
REMARK VINA RESULT:      -6.9      1.708      2.643
REMARK  Name = 
REMARK  5 active torsions:
REMARK  status: ('A' for Active; 'I' for Inactive)
REMARK    1  A    between atoms: C_1  and  C_2
REMARK    2  A    between atoms: C_2  and  C_3
REMARK    3  A    between atoms: C_2  and  C_10
REMARK    4  A    between atoms: C_3  and  C_4
REMARK    5  A    between atoms: N_12  and  C_13
REMARK                            x       y       z     vdW  Elec       q    Type
REMARK                         _______ _______ _______ _____ _____    ______ ____
ROOT
ATOM      1  C   UNL     1       2.066   4.714  20.190  0.00  0.00    +0.000 C 
ATOM      2  O   UNL     1       0.939   4.559  19.712  0.00  0.00    +0.000 OA
ATOM      3  N   UNL     1       2.718   5.933  20.261  0.00  0.00    +0.000 N 
ATOM      4  H   UNL     1       3.712   5.939  20.438  0.00  0.00    +0.000 HD
ENDROOT
BRANCH   3   5
ATOM      5  C   UNL     1       2.121   7.183  19.958  0.00  0.00    +0.000 A 
ATOM      6  C   UNL     1       1.373   7.905  20.892  0.00  0.00    +0.000 A 
ATOM      7  C   UNL     1       0.802   9.137  20.567  0.00  0.00    +0.000 A 
ATOM      8  C   UNL     1       0.986   9.665  19.294  0.00  0.00    +0.000 A 
ATOM      9 BR   UNL     1       0.219  11.337  18.862  0.00  0.00    +0.000 Br
ATOM     10  C   UNL     1       1.737   8.970  18.352  0.00  0.00    +0.000 A 
ATOM     11  C   UNL     1       2.315   7.735  18.684  0.00  0.00    +0.000 A 
ENDBRANCH   3   5
BRANCH   1  13
ATOM     12  C   UNL     1       1.854   2.715  21.652  0.00  0.00    +0.000 C 
ATOM     13  C   UNL     1       2.826   3.517  20.768  0.00  0.00    +0.000 C 
BRANCH  13  14
ATOM     14  C   UNL     1       3.430   2.637  19.660  0.00  0.00    +0.000 C 
BRANCH  14  15
ATOM     15  C   UNL     1       4.264   3.397  18.651  0.00  0.00    +0.000 A 
ATOM     16  C   UNL     1       5.408   4.094  19.064  0.00  0.00    +0.000 A 
ATOM     17  C   UNL     1       6.174   4.813  18.142  0.00  0.00    +0.000 A 
ATOM     18  C   UNL     1       5.805   4.842  16.799  0.00  0.00    +0.000 A 
ATOM     19  C   UNL     1       4.675   4.147  16.375  0.00  0.00    +0.000 A 
ATOM     20  C   UNL     1       3.912   3.423  17.293  0.00  0.00    +0.000 A 
ENDBRANCH  14  15
ENDBRANCH  13  14
ENDBRANCH   1  13
TORSDOF 4
ENDMDL
MODEL 3
REMARK VINA RESULT:      -6.9      2.806      4.791
REMARK  Name = 
REMARK  5 active torsions:
REMARK  status: ('A' for Active; 'I' for Inactive)
REMARK    1  A    between atoms: C_1  and  C_2
REMARK    2  A    between atoms: C_2  and  C_3
REMARK    3  A    between atoms: C_2  and  C_10
REMARK    4  A    between atoms: C_3  and  C_4
REMARK    5  A    between atoms: N_12  and  C_13
REMARK                            x       y       z     vdW  Elec       q    Type
REMARK                         _______ _______ _______ _____ _____    ______ ____
ROOT
ATOM      1  C   UNL     1       1.927   8.694  18.319  0.00  0.00    +0.000 C 
ATOM      2  O   UNL     1       2.084   9.545  17.440  0.00  0.00    +0.000 OA
ATOM      3  N   UNL     1       1.214   8.907  19.486  0.00  0.00    +0.000 N 
ATOM      4  H   UNL     1       1.333   8.257  20.251  0.00  0.00    +0.000 HD
ENDROOT
BRANCH   3   5
ATOM      5  C   UNL     1       0.429  10.058  19.750  0.00  0.00    +0.000 A 
ATOM      6  C   UNL     1      -0.781  10.309  19.096  0.00  0.00    +0.000 A 
ATOM      7  C   UNL     1      -1.536  11.448  19.381  0.00  0.00    +0.000 A 
ATOM      8  C   UNL     1      -1.086  12.349  20.340  0.00  0.00    +0.000 A 
ATOM      9 BR   UNL     1      -2.116  13.884  20.729  0.00  0.00    +0.000 Br
ATOM     10  C   UNL     1       0.109  12.113  21.012  0.00  0.00    +0.000 A 
ATOM     11  C   UNL     1       0.862  10.964  20.728  0.00  0.00    +0.000 A 
ENDBRANCH   3   5
BRANCH   1  13
ATOM     12  C   UNL     1       3.893   7.441  17.457  0.00  0.00    +0.000 C 
ATOM     13  C   UNL     1       2.527   7.294  18.151  0.00  0.00    +0.000 C 
BRANCH  13  14
ATOM     14  C   UNL     1       2.659   6.566  19.500  0.00  0.00    +0.000 C 
BRANCH  14  15
ATOM     15  C   UNL     1       2.062   5.176  19.515  0.00  0.00    +0.000 A 
ATOM     16  C   UNL     1       1.884   4.472  18.315  0.00  0.00    +0.000 A 
ATOM     17  C   UNL     1       1.316   3.195  18.318  0.00  0.00    +0.000 A 
ATOM     18  C   UNL     1       0.922   2.608  19.519  0.00  0.00    +0.000 A 
ATOM     19  C   UNL     1       1.101   3.294  20.718  0.00  0.00    +0.000 A 
ATOM     20  C   UNL     1       1.673   4.568  20.718  0.00  0.00    +0.000 A 
ENDBRANCH  14  15
ENDBRANCH  13  14
ENDBRANCH   1  13
TORSDOF 4
ENDMDL
MODEL 4
REMARK VINA RESULT:      -6.9      2.795      4.864
REMARK  Name = 
REMARK  5 active torsions:
REMARK  status: ('A' for Active; 'I' for Inactive)
REMARK    1  A    between atoms: C_1  and  C_2
REMARK    2  A    between atoms: C_2  and  C_3
REMARK    3  A    between atoms: C_2  and  C_10
REMARK    4  A    between atoms: C_3  and  C_4
REMARK    5  A    between atoms: N_12  and  C_13
REMARK                            x       y       z     vdW  Elec       q    Type
REMARK                         _______ _______ _______ _____ _____    ______ ____
ROOT
ATOM      1  C   UNL     1       1.926   8.676  18.302  0.00  0.00    +0.000 C 
ATOM      2  O   UNL     1       2.012   9.505  17.392  0.00  0.00    +0.000 OA
ATOM      3  N   UNL     1       1.271   8.905  19.500  0.00  0.00    +0.000 N 
ATOM      4  H   UNL     1       1.449   8.280  20.274  0.00  0.00    +0.000 HD
ENDROOT
BRANCH   3   5
ATOM      5  C   UNL     1       0.472  10.043  19.776  0.00  0.00    +0.000 A 
ATOM      6  C   UNL     1      -0.726  10.301  19.105  0.00  0.00    +0.000 A 
ATOM      7  C   UNL     1      -1.496  11.427  19.402  0.00  0.00    +0.000 A 
ATOM      8  C   UNL     1      -1.070  12.309  20.390  0.00  0.00    +0.000 A 
ATOM      9 BR   UNL     1      -2.120  13.826  20.795  0.00  0.00    +0.000 Br
ATOM     10  C   UNL     1       0.114  12.066  21.080  0.00  0.00    +0.000 A 
ATOM     11  C   UNL     1       0.880  10.929  20.783  0.00  0.00    +0.000 A 
ENDBRANCH   3   5
BRANCH   1  13
ATOM     12  C   UNL     1       3.921   7.458  17.458  0.00  0.00    +0.000 C 
ATOM     13  C   UNL     1       2.551   7.287  18.138  0.00  0.00    +0.000 C 
BRANCH  13  14
ATOM     14  C   UNL     1       2.681   6.560  19.488  0.00  0.00    +0.000 C 
BRANCH  14  15
ATOM     15  C   UNL     1       2.064   5.179  19.510  0.00  0.00    +0.000 A 
ATOM     16  C   UNL     1       1.716   4.582  20.730  0.00  0.00    +0.000 A 
ATOM     17  C   UNL     1       1.162   3.299  20.761  0.00  0.00    +0.000 A 
ATOM     18  C   UNL     1       0.950   2.600  19.575  0.00  0.00    +0.000 A 
ATOM     19  C   UNL     1       1.285   3.186  18.356  0.00  0.00    +0.000 A 
ATOM     20  C   UNL     1       1.832   4.470  18.322  0.00  0.00    +0.000 A 
ENDBRANCH  14  15
ENDBRANCH  13  14
ENDBRANCH   1  13
TORSDOF 4
ENDMDL
MODEL 5
REMARK VINA RESULT:      -6.9      0.377      1.165
REMARK  Name = 
REMARK  5 active torsions:
REMARK  status: ('A' for Active; 'I' for Inactive)
REMARK    1  A    between atoms: C_1  and  C_2
REMARK    2  A    between atoms: C_2  and  C_3
REMARK    3  A    between atoms: C_2  and  C_10
REMARK    4  A    between atoms: C_3  and  C_4
REMARK    5  A    between atoms: N_12  and  C_13
REMARK                            x       y       z     vdW  Elec       q    Type
REMARK                         _______ _______ _______ _____ _____    ______ ____
ROOT
ATOM      1  C   UNL     1       2.687   5.238  18.436  0.00  0.00    +0.000 C 
ATOM      2  O   UNL     1       1.633   4.814  18.917  0.00  0.00    +0.000 OA
ATOM      3  N   UNL     1       2.983   6.580  18.275  0.00  0.00    +0.000 N 
ATOM      4  H   UNL     1       3.745   6.837  17.664  0.00  0.00    +0.000 HD
ENDROOT
BRANCH   3   5
ATOM      5  C   UNL     1       2.200   7.644  18.792  0.00  0.00    +0.000 A 
ATOM      6  C   UNL     1       1.876   7.749  20.147  0.00  0.00    +0.000 A 
ATOM      7  C   UNL     1       1.109   8.812  20.628  0.00  0.00    +0.000 A 
ATOM      8  C   UNL     1       0.662   9.791  19.748  0.00  0.00    +0.000 A 
ATOM      9 BR   UNL     1      -0.368  11.232  20.406  0.00  0.00    +0.000 Br
ATOM     10  C   UNL     1       0.982   9.713  18.396  0.00  0.00    +0.000 A 
ATOM     11  C   UNL     1       1.760   8.648  17.917  0.00  0.00    +0.000 A 
ENDBRANCH   3   5
BRANCH   1  13
ATOM     12  C   UNL     1       3.087   2.990  17.451  0.00  0.00    +0.000 C 
ATOM     13  C   UNL     1       3.776   4.257  17.989  0.00  0.00    +0.000 C 
BRANCH  13  14
ATOM     14  C   UNL     1       4.704   4.882  16.933  0.00  0.00    +0.000 C 
BRANCH  14  15
ATOM     15  C   UNL     1       5.907   5.596  17.509  0.00  0.00    +0.000 A 
ATOM     16  C   UNL     1       6.542   5.097  18.655  0.00  0.00    +0.000 A 
ATOM     17  C   UNL     1       7.642   5.760  19.204  0.00  0.00    +0.000 A 
ATOM     18  C   UNL     1       8.120   6.929  18.614  0.00  0.00    +0.000 A 
ATOM     19  C   UNL     1       7.503   7.430  17.470  0.00  0.00    +0.000 A 
ATOM     20  C   UNL     1       6.407   6.765  16.916  0.00  0.00    +0.000 A 
ENDBRANCH  14  15
ENDBRANCH  13  14
ENDBRANCH   1  13
TORSDOF 4
ENDMDL
MODEL 6
REMARK VINA RESULT:      -6.9      1.233      2.122
REMARK  Name = 
REMARK  5 active torsions:
REMARK  status: ('A' for Active; 'I' for Inactive)
REMARK    1  A    between atoms: C_1  and  C_2
REMARK    2  A    between atoms: C_2  and  C_3
REMARK    3  A    between atoms: C_2  and  C_10
REMARK    4  A    between atoms: C_3  and  C_4
REMARK    5  A    between atoms: N_12  and  C_13
REMARK                            x       y       z     vdW  Elec       q    Type
REMARK                         _______ _______ _______ _____ _____    ______ ____
ROOT
ATOM      1  C   UNL     1       2.702   5.152  19.201  0.00  0.00    +0.000 C 
ATOM      2  O   UNL     1       1.793   4.938  18.395  0.00  0.00    +0.000 OA
ATOM      3  N   UNL     1       3.026   6.406  19.690  0.00  0.00    +0.000 N 
ATOM      4  H   UNL     1       3.919   6.530  20.146  0.00  0.00    +0.000 HD
ENDROOT
BRANCH   3   5
ATOM      5  C   UNL     1       2.259   7.578  19.469  0.00  0.00    +0.000 A 
ATOM      6  C   UNL     1       2.201   8.216  18.227  0.00  0.00    +0.000 A 
ATOM      7  C   UNL     1       1.431   9.365  18.038  0.00  0.00    +0.000 A 
ATOM      8  C   UNL     1       0.700   9.885  19.100  0.00  0.00    +0.000 A 
ATOM      9 BR   UNL     1      -0.348  11.434  18.836  0.00  0.00    +0.000 Br
ATOM     10  C   UNL     1       0.733   9.259  20.343  0.00  0.00    +0.000 A 
ATOM     11  C   UNL     1       1.501   8.100  20.527  0.00  0.00    +0.000 A 
ENDBRANCH   3   5
BRANCH   1  13
ATOM     12  C   UNL     1       2.639   3.114  20.624  0.00  0.00    +0.000 C 
ATOM     13  C   UNL     1       3.543   3.990  19.737  0.00  0.00    +0.000 C 
BRANCH  13  14
ATOM     14  C   UNL     1       4.173   3.170  18.597  0.00  0.00    +0.000 C 
BRANCH  14  15
ATOM     15  C   UNL     1       5.092   3.964  17.696  0.00  0.00    +0.000 A 
ATOM     16  C   UNL     1       4.801   4.097  16.331  0.00  0.00    +0.000 A 
ATOM     17  C   UNL     1       5.654   4.813  15.488  0.00  0.00    +0.000 A 
ATOM     18  C   UNL     1       6.807   5.405  16.000  0.00  0.00    +0.000 A 
ATOM     19  C   UNL     1       7.103   5.288  17.356  0.00  0.00    +0.000 A 
ATOM     20  C   UNL     1       6.249   4.577  18.201  0.00  0.00    +0.000 A 
ENDBRANCH  14  15
ENDBRANCH  13  14
ENDBRANCH   1  13
TORSDOF 4
ENDMDL
MODEL 7
REMARK VINA RESULT:      -6.9      1.119      1.372
REMARK  Name = 
REMARK  5 active torsions:
REMARK  status: ('A' for Active; 'I' for Inactive)
REMARK    1  A    between atoms: C_1  and  C_2
REMARK    2  A    between atoms: C_2  and  C_3
REMARK    3  A    between atoms: C_2  and  C_10
REMARK    4  A    between atoms: C_3  and  C_4
REMARK    5  A    between atoms: N_12  and  C_13
REMARK                            x       y       z     vdW  Elec       q    Type
REMARK                         _______ _______ _______ _____ _____    ______ ____
ROOT
ATOM      1  C   UNL     1       2.696   5.115  19.230  0.00  0.00    +0.000 C 
ATOM      2  O   UNL     1       1.815   4.919  18.389  0.00  0.00    +0.000 OA
ATOM      3  N   UNL     1       2.989   6.355  19.772  0.00  0.00    +0.000 N 
ATOM      4  H   UNL     1       3.866   6.473  20.261  0.00  0.00    +0.000 HD
ENDROOT
BRANCH   3   5
ATOM      5  C   UNL     1       2.215   7.525  19.569  0.00  0.00    +0.000 A 
ATOM      6  C   UNL     1       1.469   8.120  20.590  0.00  0.00    +0.000 A 
ATOM      7  C   UNL     1       0.721   9.277  20.361  0.00  0.00    +0.000 A 
ATOM      8  C   UNL     1       0.721   9.857  19.098  0.00  0.00    +0.000 A 
ATOM      9 BR   UNL     1      -0.285  11.427  18.796  0.00  0.00    +0.000 Br
ATOM     10  C   UNL     1       1.466   9.289  18.069  0.00  0.00    +0.000 A 
ATOM     11  C   UNL     1       2.223   8.131  18.304  0.00  0.00    +0.000 A 
ENDBRANCH   3   5
BRANCH   1  13
ATOM     12  C   UNL     1       2.571   2.836  20.215  0.00  0.00    +0.000 C 
ATOM     13  C   UNL     1       3.535   3.945  19.752  0.00  0.00    +0.000 C 
BRANCH  13  14
ATOM     14  C   UNL     1       4.513   3.426  18.684  0.00  0.00    +0.000 C 
BRANCH  14  15
ATOM     15  C   UNL     1       5.471   4.473  18.160  0.00  0.00    +0.000 A 
ATOM     16  C   UNL     1       5.473   4.809  16.799  0.00  0.00    +0.000 A 
ATOM     17  C   UNL     1       6.367   5.761  16.303  0.00  0.00    +0.000 A 
ATOM     18  C   UNL     1       7.268   6.388  17.161  0.00  0.00    +0.000 A 
ATOM     19  C   UNL     1       7.271   6.069  18.517  0.00  0.00    +0.000 A 
ATOM     20  C   UNL     1       6.374   5.121  19.016  0.00  0.00    +0.000 A 
ENDBRANCH  14  15
ENDBRANCH  13  14
ENDBRANCH   1  13
TORSDOF 4
ENDMDL
MODEL 8
REMARK VINA RESULT:      -6.8      1.221      1.981
REMARK  Name = 
REMARK  5 active torsions:
REMARK  status: ('A' for Active; 'I' for Inactive)
REMARK    1  A    between atoms: C_1  and  C_2
REMARK    2  A    between atoms: C_2  and  C_3
REMARK    3  A    between atoms: C_2  and  C_10
REMARK    4  A    between atoms: C_3  and  C_4
REMARK    5  A    between atoms: N_12  and  C_13
REMARK                            x       y       z     vdW  Elec       q    Type
REMARK                         _______ _______ _______ _____ _____    ______ ____
ROOT
ATOM      1  C   UNL     1       2.677   5.210  19.147  0.00  0.00    +0.000 C 
ATOM      2  O   UNL     1       1.781   5.006  18.324  0.00  0.00    +0.000 OA
ATOM      3  N   UNL     1       2.967   6.450  19.688  0.00  0.00    +0.000 N 
ATOM      4  H   UNL     1       3.852   6.577  20.159  0.00  0.00    +0.000 HD
ENDROOT
BRANCH   3   5
ATOM      5  C   UNL     1       2.175   7.612  19.506  0.00  0.00    +0.000 A 
ATOM      6  C   UNL     1       1.442   8.192  20.546  0.00  0.00    +0.000 A 
ATOM      7  C   UNL     1       0.676   9.341  20.339  0.00  0.00    +0.000 A 
ATOM      8  C   UNL     1       0.643   9.927  19.078  0.00  0.00    +0.000 A 
ATOM      9 BR   UNL     1      -0.388  11.487  18.806  0.00  0.00    +0.000 Br
ATOM     10  C   UNL     1       1.374   9.374  18.032  0.00  0.00    +0.000 A 
ATOM     11  C   UNL     1       2.149   8.224  18.245  0.00  0.00    +0.000 A 
ENDBRANCH   3   5
BRANCH   1  13
ATOM     12  C   UNL     1       2.675   3.168  20.565  0.00  0.00    +0.000 C 
ATOM     13  C   UNL     1       3.541   4.047  19.645  0.00  0.00    +0.000 C 
BRANCH  13  14
ATOM     14  C   UNL     1       4.125   3.231  18.478  0.00  0.00    +0.000 C 
BRANCH  14  15
ATOM     15  C   UNL     1       5.088   4.002  17.603  0.00  0.00    +0.000 A 
ATOM     16  C   UNL     1       6.251   4.559  18.154  0.00  0.00    +0.000 A 
ATOM     17  C   UNL     1       7.137   5.288  17.357  0.00  0.00    +0.000 A 
ATOM     18  C   UNL     1       6.871   5.468  16.001  0.00  0.00    +0.000 A 
ATOM     19  C   UNL     1       5.723   4.914  15.440  0.00  0.00    +0.000 A 
ATOM     20  C   UNL     1       4.839   4.179  16.234  0.00  0.00    +0.000 A 
ENDBRANCH  14  15
ENDBRANCH  13  14
ENDBRANCH   1  13
TORSDOF 4
ENDMDL
MODEL 9
REMARK VINA RESULT:      -6.8      2.126      4.120
REMARK  Name = 
REMARK  5 active torsions:
REMARK  status: ('A' for Active; 'I' for Inactive)
REMARK    1  A    between atoms: C_1  and  C_2
REMARK    2  A    between atoms: C_2  and  C_3
REMARK    3  A    between atoms: C_2  and  C_10
REMARK    4  A    between atoms: C_3  and  C_4
REMARK    5  A    between atoms: N_12  and  C_13
REMARK                            x       y       z     vdW  Elec       q    Type
REMARK                         _______ _______ _______ _____ _____    ______ ____
ROOT
ATOM      1  C   UNL     1       3.894   5.495  17.832  0.00  0.00    +0.000 C 
ATOM      2  O   UNL     1       4.836   6.023  18.428  0.00  0.00    +0.000 OA
ATOM      3  N   UNL     1       2.584   5.935  17.908  0.00  0.00    +0.000 N 
ATOM      4  H   UNL     1       1.849   5.317  17.593  0.00  0.00    +0.000 HD
ENDROOT
BRANCH   3   5
ATOM      5  C   UNL     1       2.175   7.140  18.533  0.00  0.00    +0.000 A 
ATOM      6  C   UNL     1       1.973   8.325  17.821  0.00  0.00    +0.000 A 
ATOM      7  C   UNL     1       1.564   9.496  18.462  0.00  0.00    +0.000 A 
ATOM      8  C   UNL     1       1.343   9.485  19.835  0.00  0.00    +0.000 A 
ATOM      9 BR   UNL     1       0.779  11.069  20.697  0.00  0.00    +0.000 Br
ATOM     10  C   UNL     1       1.525   8.313  20.563  0.00  0.00    +0.000 A 
ATOM     11  C   UNL     1       1.929   7.137  19.913  0.00  0.00    +0.000 A 
ENDBRANCH   3   5
BRANCH   1  13
ATOM     12  C   UNL     1       5.478   4.497  16.197  0.00  0.00    +0.000 C 
ATOM     13  C   UNL     1       4.140   4.284  16.927  0.00  0.00    +0.000 C 
BRANCH  13  14
ATOM     14  C   UNL     1       4.139   2.968  17.724  0.00  0.00    +0.000 C 
BRANCH  14  15
ATOM     15  C   UNL     1       3.102   2.910  18.824  0.00  0.00    +0.000 A 
ATOM     16  C   UNL     1       3.496   2.969  20.169  0.00  0.00    +0.000 A 
ATOM     17  C   UNL     1       2.547   2.897  21.192  0.00  0.00    +0.000 A 
ATOM     18  C   UNL     1       1.195   2.766  20.882  0.00  0.00    +0.000 A 
ATOM     19  C   UNL     1       0.790   2.714  19.550  0.00  0.00    +0.000 A 
ATOM     20  C   UNL     1       1.737   2.792  18.526  0.00  0.00    +0.000 A 
ENDBRANCH  14  15
ENDBRANCH  13  14
ENDBRANCH   1  13
TORSDOF 4
ENDMDL
