MODEL 1
REMARK VINA RESULT:      -7.4      0.000      0.000
REMARK  Name = 
REMARK  11 active torsions:
REMARK  status: ('A' for Active; 'I' for Inactive)
REMARK    1  A    between atoms: C_1  and  O_2
REMARK    2  A    between atoms: O_2  and  C_3
REMARK    3  A    between atoms: C_6  and  O_7
REMARK    4  A    between atoms: O_7  and  C_8
REMARK    5  A    between atoms: C_9  and  N_10
REMARK    6  A    between atoms: C_11  and  C_13
REMARK    7  A    between atoms: N_15  and  C_16
REMARK    8  A    between atoms: C_21  and  O_22
REMARK    9  A    between atoms: O_22  and  C_23
REMARK   10  A    between atoms: C_24  and  O_25
REMARK   11  A    between atoms: O_25  and  C_26
REMARK                            x       y       z     vdW  Elec       q    Type
REMARK                         _______ _______ _______ _____ _____    ______ ____
ROOT
ATOM      1  C   UNL     1       1.225   9.562  18.110  0.00  0.00    +0.000 A 
ATOM      2  C   UNL     1       2.114  10.567  18.349  0.00  0.00    +0.000 A 
ATOM      3  N   UNL     1       1.779  11.734  18.995  0.00  0.00    +0.000 N 
ATOM      4  C   UNL     1       1.366  12.789  18.067  0.00  0.00    +0.000 C 
ATOM      5  C   UNL     1       1.023  11.517  20.133  0.00  0.00    +0.000 A 
ATOM      6  O   UNL     1       1.260  12.065  21.201  0.00  0.00    +0.000 OA
ATOM      7  C   UNL     1      -0.215  10.745  19.900  0.00  0.00    +0.000 A 
ATOM      8  C   UNL     1      -1.290  11.430  20.547  0.00  0.00    +0.000 A 
ATOM      9  C   UNL     1      -2.382  11.867  19.809  0.00  0.00    +0.000 A 
ATOM     10  C   UNL     1      -2.456  11.430  18.470  0.00  0.00    +0.000 A 
ATOM     11  C   UNL     1      -1.400  10.511  17.907  0.00  0.00    +0.000 A 
ATOM     12  C   UNL     1      -0.238  10.055  18.651  0.00  0.00    +0.000 A 
ENDROOT
BRANCH   1  14
ATOM     13  N   UNL     1       2.330   7.236  19.064  0.00  0.00    +0.000 N 
ATOM     14  C   UNL     1       2.234   8.243  18.102  0.00  0.00    +0.000 C 
ATOM     15  O   UNL     1       2.923   8.098  17.084  0.00  0.00    +0.000 OA
ATOM     16  H   UNL     1       1.881   7.388  19.956  0.00  0.00    +0.000 HD
BRANCH  13  21
ATOM     17  C   UNL     1       5.383   4.896  19.117  0.00  0.00    +0.000 A 
ATOM     18  C   UNL     1       4.913   3.624  18.871  0.00  0.00    +0.000 A 
ATOM     19  C   UNL     1       3.556   3.469  18.672  0.00  0.00    +0.000 A 
ATOM     20  C   UNL     1       2.644   4.575  18.636  0.00  0.00    +0.000 A 
ATOM     21  C   UNL     1       3.091   5.914  18.953  0.00  0.00    +0.000 A 
ATOM     22  C   UNL     1       4.496   6.007  19.197  0.00  0.00    +0.000 A 
BRANCH  17  24
ATOM     23  C   UNL     1       7.414   4.786  17.924  0.00  0.00    +0.000 C 
ATOM     24  O   UNL     1       6.749   4.946  19.162  0.00  0.00    +0.000 OA
ENDBRANCH  17  24
BRANCH  20  25
ATOM     25  O   UNL     1       1.337   4.263  18.330  0.00  0.00    +0.000 OA
ATOM     26  C   UNL     1       0.908   2.918  18.627  0.00  0.00    +0.000 C 
ENDBRANCH  20  25
ENDBRANCH  13  21
ENDBRANCH   1  14
BRANCH   9  27
ATOM     27  O   UNL     1      -3.299  12.738  20.349  0.00  0.00    +0.000 OA
ATOM     28  C   UNL     1      -3.462  12.808  21.772  0.00  0.00    +0.000 C 
ENDBRANCH   9  27
BRANCH  10  29
ATOM     29  O   UNL     1      -3.422  11.891  17.574  0.00  0.00    +0.000 OA
ATOM     30  C   UNL     1      -4.154  10.958  16.736  0.00  0.00    +0.000 C 
ENDBRANCH  10  29
TORSDOF 6
ENDMDL
MODEL 2
REMARK VINA RESULT:      -7.1      0.959      2.495
REMARK  Name = 
REMARK  11 active torsions:
REMARK  status: ('A' for Active; 'I' for Inactive)
REMARK    1  A    between atoms: C_1  and  O_2
REMARK    2  A    between atoms: O_2  and  C_3
REMARK    3  A    between atoms: C_6  and  O_7
REMARK    4  A    between atoms: O_7  and  C_8
REMARK    5  A    between atoms: C_9  and  N_10
REMARK    6  A    between atoms: C_11  and  C_13
REMARK    7  A    between atoms: N_15  and  C_16
REMARK    8  A    between atoms: C_21  and  O_22
REMARK    9  A    between atoms: O_22  and  C_23
REMARK   10  A    between atoms: C_24  and  O_25
REMARK   11  A    between atoms: O_25  and  C_26
REMARK                            x       y       z     vdW  Elec       q    Type
REMARK                         _______ _______ _______ _____ _____    ______ ____
ROOT
ATOM      1  C   UNL     1       1.191   9.708  18.017  0.00  0.00    +0.000 A 
ATOM      2  C   UNL     1       2.098  10.695  18.263  0.00  0.00    +0.000 A 
ATOM      3  N   UNL     1       1.817  11.807  19.022  0.00  0.00    +0.000 N 
ATOM      4  C   UNL     1       1.336  12.930  18.214  0.00  0.00    +0.000 C 
ATOM      5  C   UNL     1       1.151  11.500  20.195  0.00  0.00    +0.000 A 
ATOM      6  O   UNL     1       1.472  11.964  21.281  0.00  0.00    +0.000 OA
ATOM      7  C   UNL     1      -0.102  10.744  20.001  0.00  0.00    +0.000 A 
ATOM      8  C   UNL     1      -1.122  11.373  20.780  0.00  0.00    +0.000 A 
ATOM      9  C   UNL     1      -2.267  11.861  20.166  0.00  0.00    +0.000 A 
ATOM     10  C   UNL     1      -2.446  11.529  18.806  0.00  0.00    +0.000 A 
ATOM     11  C   UNL     1      -1.440  10.660  18.094  0.00  0.00    +0.000 A 
ATOM     12  C   UNL     1      -0.224  10.153  18.707  0.00  0.00    +0.000 A 
ENDROOT
BRANCH   1  14
ATOM     13  N   UNL     1       2.253   7.248  18.618  0.00  0.00    +0.000 N 
ATOM     14  C   UNL     1       2.192   8.398  17.828  0.00  0.00    +0.000 C 
ATOM     15  O   UNL     1       2.914   8.411  16.822  0.00  0.00    +0.000 OA
ATOM     16  H   UNL     1       1.776   7.260  19.508  0.00  0.00    +0.000 HD
BRANCH  13  21
ATOM     17  C   UNL     1       2.730   3.465  18.116  0.00  0.00    +0.000 A 
ATOM     18  C   UNL     1       4.052   3.273  17.777  0.00  0.00    +0.000 A 
ATOM     19  C   UNL     1       4.862   4.388  17.696  0.00  0.00    +0.000 A 
ATOM     20  C   UNL     1       4.404   5.706  18.022  0.00  0.00    +0.000 A 
ATOM     21  C   UNL     1       3.010   5.954  18.319  0.00  0.00    +0.000 A 
ATOM     22  C   UNL     1       2.210   4.770  18.342  0.00  0.00    +0.000 A 
BRANCH  17  24
ATOM     23  C   UNL     1       0.759   2.389  18.836  0.00  0.00    +0.000 C 
ATOM     24  O   UNL     1       2.063   2.284  18.297  0.00  0.00    +0.000 OA
ENDBRANCH  17  24
BRANCH  20  25
ATOM     25  O   UNL     1       5.360   6.697  17.985  0.00  0.00    +0.000 OA
ATOM     26  C   UNL     1       6.460   6.500  17.073  0.00  0.00    +0.000 C 
ENDBRANCH  20  25
ENDBRANCH  13  21
ENDBRANCH   1  14
BRANCH   9  27
ATOM     27  O   UNL     1      -3.138  12.685  20.842  0.00  0.00    +0.000 OA
ATOM     28  C   UNL     1      -3.198  12.634  22.273  0.00  0.00    +0.000 C 
ENDBRANCH   9  27
BRANCH  10  29
ATOM     29  O   UNL     1      -3.478  12.055  18.027  0.00  0.00    +0.000 OA
ATOM     30  C   UNL     1      -4.644  11.249  17.708  0.00  0.00    +0.000 C 
ENDBRANCH  10  29
TORSDOF 6
ENDMDL
MODEL 3
REMARK VINA RESULT:      -7.1      2.043      2.963
REMARK  Name = 
REMARK  11 active torsions:
REMARK  status: ('A' for Active; 'I' for Inactive)
REMARK    1  A    between atoms: C_1  and  O_2
REMARK    2  A    between atoms: O_2  and  C_3
REMARK    3  A    between atoms: C_6  and  O_7
REMARK    4  A    between atoms: O_7  and  C_8
REMARK    5  A    between atoms: C_9  and  N_10
REMARK    6  A    between atoms: C_11  and  C_13
REMARK    7  A    between atoms: N_15  and  C_16
REMARK    8  A    between atoms: C_21  and  O_22
REMARK    9  A    between atoms: O_22  and  C_23
REMARK   10  A    between atoms: C_24  and  O_25
REMARK   11  A    between atoms: O_25  and  C_26
REMARK                            x       y       z     vdW  Elec       q    Type
REMARK                         _______ _______ _______ _____ _____    ______ ____
ROOT
ATOM      1  C   UNL     1       0.607   9.701  19.330  0.00  0.00    +0.000 A 
ATOM      2  C   UNL     1      -0.033  10.254  18.262  0.00  0.00    +0.000 A 
ATOM      3  N   UNL     1      -0.608  11.503  18.290  0.00  0.00    +0.000 N 
ATOM      4  C   UNL     1      -2.022  11.460  18.672  0.00  0.00    +0.000 C 
ATOM      5  C   UNL     1       0.208  12.455  18.874  0.00  0.00    +0.000 A 
ATOM      6  O   UNL     1       0.402  13.557  18.378  0.00  0.00    +0.000 OA
ATOM      7  C   UNL     1       0.650  12.118  20.242  0.00  0.00    +0.000 A 
ATOM      8  C   UNL     1       0.437  13.264  21.069  0.00  0.00    +0.000 A 
ATOM      9  C   UNL     1      -0.388  13.177  22.182  0.00  0.00    +0.000 A 
ATOM     10  C   UNL     1      -0.825  11.886  22.546  0.00  0.00    +0.000 A 
ATOM     11  C   UNL     1      -0.375  10.678  21.762  0.00  0.00    +0.000 A 
ATOM     12  C   UNL     1       0.473  10.744  20.583  0.00  0.00    +0.000 A 
ENDROOT
BRANCH   1  14
ATOM     13  N   UNL     1       2.231   7.507  19.024  0.00  0.00    +0.000 N 
ATOM     14  C   UNL     1       1.705   8.717  18.566  0.00  0.00    +0.000 C 
ATOM     15  O   UNL     1       2.034   9.062  17.423  0.00  0.00    +0.000 OA
ATOM     16  H   UNL     1       2.085   7.265  19.993  0.00  0.00    +0.000 HD
BRANCH  13  21
ATOM     17  C   UNL     1       5.255   6.197  17.042  0.00  0.00    +0.000 A 
ATOM     18  C   UNL     1       4.983   4.885  16.721  0.00  0.00    +0.000 A 
ATOM     19  C   UNL     1       3.778   4.359  17.144  0.00  0.00    +0.000 A 
ATOM     20  C   UNL     1       2.786   5.137  17.825  0.00  0.00    +0.000 A 
ATOM     21  C   UNL     1       3.063   6.497  18.233  0.00  0.00    +0.000 A 
ATOM     22  C   UNL     1       4.343   6.973  17.810  0.00  0.00    +0.000 A 
BRANCH  17  24
ATOM     23  C   UNL     1       7.455   6.992  17.345  0.00  0.00    +0.000 C 
ATOM     24  O   UNL     1       6.409   6.646  16.458  0.00  0.00    +0.000 OA
ENDBRANCH  17  24
BRANCH  20  25
ATOM     25  O   UNL     1       1.599   4.491  18.093  0.00  0.00    +0.000 OA
ATOM     26  C   UNL     1       1.448   3.941  19.417  0.00  0.00    +0.000 C 
ENDBRANCH  20  25
ENDBRANCH  13  21
ENDBRANCH   1  14
BRANCH   9  27
ATOM     27  O   UNL     1      -0.809  14.309  22.843  0.00  0.00    +0.000 OA
ATOM     28  C   UNL     1      -1.254  15.446  22.093  0.00  0.00    +0.000 C 
ENDBRANCH   9  27
BRANCH  10  29
ATOM     29  O   UNL     1      -1.759  11.659  23.558  0.00  0.00    +0.000 OA
ATOM     30  C   UNL     1      -3.114  12.167  23.436  0.00  0.00    +0.000 C 
ENDBRANCH  10  29
TORSDOF 6
ENDMDL
MODEL 4
REMARK VINA RESULT:      -7.1      2.035      3.702
REMARK  Name = 
REMARK  11 active torsions:
REMARK  status: ('A' for Active; 'I' for Inactive)
REMARK    1  A    between atoms: C_1  and  O_2
REMARK    2  A    between atoms: O_2  and  C_3
REMARK    3  A    between atoms: C_6  and  O_7
REMARK    4  A    between atoms: O_7  and  C_8
REMARK    5  A    between atoms: C_9  and  N_10
REMARK    6  A    between atoms: C_11  and  C_13
REMARK    7  A    between atoms: N_15  and  C_16
REMARK    8  A    between atoms: C_21  and  O_22
REMARK    9  A    between atoms: O_22  and  C_23
REMARK   10  A    between atoms: C_24  and  O_25
REMARK   11  A    between atoms: O_25  and  C_26
REMARK                            x       y       z     vdW  Elec       q    Type
REMARK                         _______ _______ _______ _____ _____    ______ ____
ROOT
ATOM      1  C   UNL     1       0.711   9.603  19.228  0.00  0.00    +0.000 A 
ATOM      2  C   UNL     1       0.187  10.256  18.153  0.00  0.00    +0.000 A 
ATOM      3  N   UNL     1      -0.251  11.558  18.199  0.00  0.00    +0.000 N 
ATOM      4  C   UNL     1      -1.678  11.659  18.515  0.00  0.00    +0.000 C 
ATOM      5  C   UNL     1       0.634  12.398  18.853  0.00  0.00    +0.000 A 
ATOM      6  O   UNL     1       0.969  13.486  18.405  0.00  0.00    +0.000 OA
ATOM      7  C   UNL     1       0.970  11.973  20.226  0.00  0.00    +0.000 A 
ATOM      8  C   UNL     1       0.842  13.110  21.083  0.00  0.00    +0.000 A 
ATOM      9  C   UNL     1      -0.041  13.080  22.153  0.00  0.00    +0.000 A 
ATOM     10  C   UNL     1      -0.632  11.834  22.452  0.00  0.00    +0.000 A 
ATOM     11  C   UNL     1      -0.277  10.609  21.646  0.00  0.00    +0.000 A 
ATOM     12  C   UNL     1       0.629  10.617  20.510  0.00  0.00    +0.000 A 
ENDROOT
BRANCH   1  14
ATOM     13  N   UNL     1       2.179   7.298  18.964  0.00  0.00    +0.000 N 
ATOM     14  C   UNL     1       1.732   8.529  18.481  0.00  0.00    +0.000 C 
ATOM     15  O   UNL     1       2.071   8.822  17.326  0.00  0.00    +0.000 OA
ATOM     16  H   UNL     1       2.028   7.090  19.941  0.00  0.00    +0.000 HD
BRANCH  13  21
ATOM     17  C   UNL     1       2.788   3.827  17.423  0.00  0.00    +0.000 A 
ATOM     18  C   UNL     1       4.004   3.887  16.776  0.00  0.00    +0.000 A 
ATOM     19  C   UNL     1       4.692   5.083  16.815  0.00  0.00    +0.000 A 
ATOM     20  C   UNL     1       4.233   6.221  17.555  0.00  0.00    +0.000 A 
ATOM     21  C   UNL     1       2.934   6.215  18.192  0.00  0.00    +0.000 A 
ATOM     22  C   UNL     1       2.245   4.968  18.079  0.00  0.00    +0.000 A 
BRANCH  17  24
ATOM     23  C   UNL     1       1.416   2.254  18.520  0.00  0.00    +0.000 C 
ATOM     24  O   UNL     1       2.266   2.563  17.432  0.00  0.00    +0.000 OA
ENDBRANCH  17  24
BRANCH  20  25
ATOM     25  O   UNL     1       5.082   7.305  17.573  0.00  0.00    +0.000 OA
ATOM     26  C   UNL     1       6.475   7.038  17.314  0.00  0.00    +0.000 C 
ENDBRANCH  20  25
ENDBRANCH  13  21
ENDBRANCH   1  14
BRANCH   9  27
ATOM     27  O   UNL     1      -0.369  14.231  22.834  0.00  0.00    +0.000 OA
ATOM     28  C   UNL     1      -0.131  15.508  22.229  0.00  0.00    +0.000 C 
ENDBRANCH   9  27
BRANCH  10  29
ATOM     29  O   UNL     1      -1.633  11.680  23.411  0.00  0.00    +0.000 OA
ATOM     30  C   UNL     1      -2.975  12.177  23.163  0.00  0.00    +0.000 C 
ENDBRANCH  10  29
TORSDOF 6
ENDMDL
MODEL 5
REMARK VINA RESULT:      -7.0      1.313      1.373
REMARK  Name = 
REMARK  11 active torsions:
REMARK  status: ('A' for Active; 'I' for Inactive)
REMARK    1  A    between atoms: C_1  and  O_2
REMARK    2  A    between atoms: O_2  and  C_3
REMARK    3  A    between atoms: C_6  and  O_7
REMARK    4  A    between atoms: O_7  and  C_8
REMARK    5  A    between atoms: C_9  and  N_10
REMARK    6  A    between atoms: C_11  and  C_13
REMARK    7  A    between atoms: N_15  and  C_16
REMARK    8  A    between atoms: C_21  and  O_22
REMARK    9  A    between atoms: O_22  and  C_23
REMARK   10  A    between atoms: C_24  and  O_25
REMARK   11  A    between atoms: O_25  and  C_26
REMARK                            x       y       z     vdW  Elec       q    Type
REMARK                         _______ _______ _______ _____ _____    ______ ____
ROOT
ATOM      1  C   UNL     1       0.839   9.689  18.623  0.00  0.00    +0.000 A 
ATOM      2  C   UNL     1       1.735  10.704  18.775  0.00  0.00    +0.000 A 
ATOM      3  N   UNL     1       1.400  11.940  19.276  0.00  0.00    +0.000 N 
ATOM      4  C   UNL     1       1.029  12.889  18.224  0.00  0.00    +0.000 C 
ATOM      5  C   UNL     1       0.607  11.861  20.408  0.00  0.00    +0.000 A 
ATOM      6  O   UNL     1       0.822  12.522  21.415  0.00  0.00    +0.000 OA
ATOM      7  C   UNL     1      -0.634  11.083  20.226  0.00  0.00    +0.000 A 
ATOM      8  C   UNL     1      -1.717  11.848  20.759  0.00  0.00    +0.000 A 
ATOM      9  C   UNL     1      -2.781  12.212  19.945  0.00  0.00    +0.000 A 
ATOM     10  C   UNL     1      -2.823  11.628  18.661  0.00  0.00    +0.000 A 
ATOM     11  C   UNL     1      -1.765  10.640  18.237  0.00  0.00    +0.000 A 
ATOM     12  C   UNL     1      -0.632  10.257  19.062  0.00  0.00    +0.000 A 
ENDROOT
BRANCH   1  14
ATOM     13  N   UNL     1       2.531   7.692  17.793  0.00  0.00    +0.000 N 
ATOM     14  C   UNL     1       1.827   8.366  18.793  0.00  0.00    +0.000 C 
ATOM     15  O   UNL     1       2.022   7.984  19.955  0.00  0.00    +0.000 OA
ATOM     16  H   UNL     1       2.297   7.894  16.832  0.00  0.00    +0.000 HD
BRANCH  13  21
ATOM     17  C   UNL     1       6.065   6.178  17.698  0.00  0.00    +0.000 A 
ATOM     18  C   UNL     1       5.963   4.898  18.197  0.00  0.00    +0.000 A 
ATOM     19  C   UNL     1       4.715   4.462  18.593  0.00  0.00    +0.000 A 
ATOM     20  C   UNL     1       3.529   5.252  18.435  0.00  0.00    +0.000 A 
ATOM     21  C   UNL     1       3.608   6.621  17.975  0.00  0.00    +0.000 A 
ATOM     22  C   UNL     1       4.930   7.034  17.625  0.00  0.00    +0.000 A 
BRANCH  17  24
ATOM     23  C   UNL     1       7.828   7.735  17.515  0.00  0.00    +0.000 C 
ATOM     24  O   UNL     1       7.317   6.450  17.215  0.00  0.00    +0.000 OA
ENDBRANCH  17  24
BRANCH  20  25
ATOM     25  O   UNL     1       2.349   4.636  18.789  0.00  0.00    +0.000 OA
ATOM     26  C   UNL     1       1.525   4.150  17.710  0.00  0.00    +0.000 C 
ENDBRANCH  20  25
ENDBRANCH  13  21
ENDBRANCH   1  14
BRANCH   9  27
ATOM     27  O   UNL     1      -3.700  13.149  20.356  0.00  0.00    +0.000 OA
ATOM     28  C   UNL     1      -4.524  12.884  21.499  0.00  0.00    +0.000 C 
ENDBRANCH   9  27
BRANCH  10  29
ATOM     29  O   UNL     1      -3.756  11.997  17.691  0.00  0.00    +0.000 OA
ATOM     30  C   UNL     1      -5.020  11.293  17.579  0.00  0.00    +0.000 C 
ENDBRANCH  10  29
TORSDOF 6
ENDMDL
MODEL 6
REMARK VINA RESULT:      -7.0      2.113      4.163
REMARK  Name = 
REMARK  11 active torsions:
REMARK  status: ('A' for Active; 'I' for Inactive)
REMARK    1  A    between atoms: C_1  and  O_2
REMARK    2  A    between atoms: O_2  and  C_3
REMARK    3  A    between atoms: C_6  and  O_7
REMARK    4  A    between atoms: O_7  and  C_8
REMARK    5  A    between atoms: C_9  and  N_10
REMARK    6  A    between atoms: C_11  and  C_13
REMARK    7  A    between atoms: N_15  and  C_16
REMARK    8  A    between atoms: C_21  and  O_22
REMARK    9  A    between atoms: O_22  and  C_23
REMARK   10  A    between atoms: C_24  and  O_25
REMARK   11  A    between atoms: O_25  and  C_26
REMARK                            x       y       z     vdW  Elec       q    Type
REMARK                         _______ _______ _______ _____ _____    ______ ____
ROOT
ATOM      1  C   UNL     1       1.604  10.145  19.185  0.00  0.00    +0.000 A 
ATOM      2  C   UNL     1       0.520   9.634  19.834  0.00  0.00    +0.000 A 
ATOM      3  N   UNL     1      -0.602  10.372  20.128  0.00  0.00    +0.000 N 
ATOM      4  C   UNL     1      -0.535  10.989  21.454  0.00  0.00    +0.000 C 
ATOM      5  C   UNL     1      -1.033  11.140  19.059  0.00  0.00    +0.000 A 
ATOM      6  O   UNL     1      -2.204  11.191  18.710  0.00  0.00    +0.000 OA
ATOM      7  C   UNL     1      -0.007  12.053  18.517  0.00  0.00    +0.000 A 
ATOM      8  C   UNL     1      -0.599  13.345  18.373  0.00  0.00    +0.000 A 
ATOM      9  C   UNL     1      -0.061  14.437  19.041  0.00  0.00    +0.000 A 
ATOM     10  C   UNL     1       1.179  14.237  19.684  0.00  0.00    +0.000 A 
ATOM     11  C   UNL     1       1.873  12.900  19.605  0.00  0.00    +0.000 A 
ATOM     12  C   UNL     1       1.323  11.737  18.929  0.00  0.00    +0.000 A 
ENDROOT
BRANCH   1  14
ATOM     13  N   UNL     1       2.583   7.585  19.018  0.00  0.00    +0.000 N 
ATOM     14  C   UNL     1       2.190   8.788  18.429  0.00  0.00    +0.000 C 
ATOM     15  O   UNL     1       2.204   8.824  17.191  0.00  0.00    +0.000 OA
ATOM     16  H   UNL     1       2.705   7.567  20.021  0.00  0.00    +0.000 HD
BRANCH  13  21
ATOM     17  C   UNL     1       1.993   3.985  17.801  0.00  0.00    +0.000 A 
ATOM     18  C   UNL     1       3.107   3.623  17.075  0.00  0.00    +0.000 A 
ATOM     19  C   UNL     1       4.120   4.553  16.948  0.00  0.00    +0.000 A 
ATOM     20  C   UNL     1       4.088   5.830  17.597  0.00  0.00    +0.000 A 
ATOM     21  C   UNL     1       2.909   6.268  18.313  0.00  0.00    +0.000 A 
ATOM     22  C   UNL     1       1.875   5.284  18.371  0.00  0.00    +0.000 A 
BRANCH  17  24
ATOM     23  C   UNL     1       1.259   2.217  19.178  0.00  0.00    +0.000 C 
ATOM     24  O   UNL     1       1.123   2.943  17.971  0.00  0.00    +0.000 OA
ENDBRANCH  17  24
BRANCH  20  25
ATOM     25  O   UNL     1       5.218   6.604  17.451  0.00  0.00    +0.000 OA
ATOM     26  C   UNL     1       6.457   5.901  17.227  0.00  0.00    +0.000 C 
ENDBRANCH  20  25
ENDBRANCH  13  21
ENDBRANCH   1  14
BRANCH   9  27
ATOM     27  O   UNL     1      -0.748  15.626  19.124  0.00  0.00    +0.000 OA
ATOM     28  C   UNL     1      -0.416  16.702  18.237  0.00  0.00    +0.000 C 
ENDBRANCH   9  27
BRANCH  10  29
ATOM     29  O   UNL     1       1.774  15.200  20.500  0.00  0.00    +0.000 OA
ATOM     30  C   UNL     1       2.875  16.006  20.004  0.00  0.00    +0.000 C 
ENDBRANCH  10  29
TORSDOF 6
ENDMDL
MODEL 7
REMARK VINA RESULT:      -7.0      1.418      2.579
REMARK  Name = 
REMARK  11 active torsions:
REMARK  status: ('A' for Active; 'I' for Inactive)
REMARK    1  A    between atoms: C_1  and  O_2
REMARK    2  A    between atoms: O_2  and  C_3
REMARK    3  A    between atoms: C_6  and  O_7
REMARK    4  A    between atoms: O_7  and  C_8
REMARK    5  A    between atoms: C_9  and  N_10
REMARK    6  A    between atoms: C_11  and  C_13
REMARK    7  A    between atoms: N_15  and  C_16
REMARK    8  A    between atoms: C_21  and  O_22
REMARK    9  A    between atoms: O_22  and  C_23
REMARK   10  A    between atoms: C_24  and  O_25
REMARK   11  A    between atoms: O_25  and  C_26
REMARK                            x       y       z     vdW  Elec       q    Type
REMARK                         _______ _______ _______ _____ _____    ______ ____
ROOT
ATOM      1  C   UNL     1       1.236   9.521  18.258  0.00  0.00    +0.000 A 
ATOM      2  C   UNL     1       2.148  10.521  18.410  0.00  0.00    +0.000 A 
ATOM      3  N   UNL     1       1.840  11.749  18.950  0.00  0.00    +0.000 N 
ATOM      4  C   UNL     1       1.454  12.727  17.931  0.00  0.00    +0.000 C 
ATOM      5  C   UNL     1       1.077  11.651  20.100  0.00  0.00    +0.000 A 
ATOM      6  O   UNL     1       1.325  12.285  21.116  0.00  0.00    +0.000 OA
ATOM      7  C   UNL     1      -0.178  10.892  19.931  0.00  0.00    +0.000 A 
ATOM      8  C   UNL     1      -1.238  11.657  20.511  0.00  0.00    +0.000 A 
ATOM      9  C   UNL     1      -2.318  12.052  19.733  0.00  0.00    +0.000 A 
ATOM     10  C   UNL     1      -2.400  11.500  18.437  0.00  0.00    +0.000 A 
ATOM     11  C   UNL     1      -1.366  10.510  17.962  0.00  0.00    +0.000 A 
ATOM     12  C   UNL     1      -0.216  10.095  18.748  0.00  0.00    +0.000 A 
ENDROOT
BRANCH   1  14
ATOM     13  N   UNL     1       3.108   7.697  17.416  0.00  0.00    +0.000 N 
ATOM     14  C   UNL     1       2.212   8.183  18.370  0.00  0.00    +0.000 C 
ATOM     15  O   UNL     1       2.198   7.595  19.460  0.00  0.00    +0.000 OA
ATOM     16  H   UNL     1       3.052   8.072  16.480  0.00  0.00    +0.000 HD
BRANCH  13  21
ATOM     17  C   UNL     1       4.469   4.207  18.288  0.00  0.00    +0.000 A 
ATOM     18  C   UNL     1       5.827   4.239  18.053  0.00  0.00    +0.000 A 
ATOM     19  C   UNL     1       6.370   5.422  17.592  0.00  0.00    +0.000 A 
ATOM     20  C   UNL     1       5.598   6.619  17.426  0.00  0.00    +0.000 A 
ATOM     21  C   UNL     1       4.162   6.605  17.602  0.00  0.00    +0.000 A 
ATOM     22  C   UNL     1       3.650   5.342  18.033  0.00  0.00    +0.000 A 
BRANCH  17  24
ATOM     23  C   UNL     1       3.398   2.124  18.018  0.00  0.00    +0.000 C 
ATOM     24  O   UNL     1       4.070   3.033  18.867  0.00  0.00    +0.000 OA
ENDBRANCH  17  24
BRANCH  20  25
ATOM     25  O   UNL     1       6.306   7.740  17.052  0.00  0.00    +0.000 OA
ATOM     26  C   UNL     1       7.658   7.844  17.544  0.00  0.00    +0.000 C 
ENDBRANCH  20  25
ENDBRANCH  13  21
ENDBRANCH   1  14
BRANCH   9  27
ATOM     27  O   UNL     1      -3.215  12.990  20.191  0.00  0.00    +0.000 OA
ATOM     28  C   UNL     1      -4.370  12.568  20.927  0.00  0.00    +0.000 C 
ENDBRANCH   9  27
BRANCH  10  29
ATOM     29  O   UNL     1      -3.353  11.903  17.501  0.00  0.00    +0.000 OA
ATOM     30  C   UNL     1      -3.833  10.975  16.492  0.00  0.00    +0.000 C 
ENDBRANCH  10  29
TORSDOF 6
ENDMDL
MODEL 8
REMARK VINA RESULT:      -6.9      1.042      1.042
REMARK  Name = 
REMARK  11 active torsions:
REMARK  status: ('A' for Active; 'I' for Inactive)
REMARK    1  A    between atoms: C_1  and  O_2
REMARK    2  A    between atoms: O_2  and  C_3
REMARK    3  A    between atoms: C_6  and  O_7
REMARK    4  A    between atoms: O_7  and  C_8
REMARK    5  A    between atoms: C_9  and  N_10
REMARK    6  A    between atoms: C_11  and  C_13
REMARK    7  A    between atoms: N_15  and  C_16
REMARK    8  A    between atoms: C_21  and  O_22
REMARK    9  A    between atoms: O_22  and  C_23
REMARK   10  A    between atoms: C_24  and  O_25
REMARK   11  A    between atoms: O_25  and  C_26
REMARK                            x       y       z     vdW  Elec       q    Type
REMARK                         _______ _______ _______ _____ _____    ______ ____
ROOT
ATOM      1  C   UNL     1       1.160   9.721  18.248  0.00  0.00    +0.000 A 
ATOM      2  C   UNL     1       2.051  10.739  18.412  0.00  0.00    +0.000 A 
ATOM      3  N   UNL     1       1.739  11.924  19.036  0.00  0.00    +0.000 N 
ATOM      4  C   UNL     1       1.274  12.946  18.096  0.00  0.00    +0.000 C 
ATOM      5  C   UNL     1       1.039  11.739  20.215  0.00  0.00    +0.000 A 
ATOM      6  O   UNL     1       1.322  12.323  21.252  0.00  0.00    +0.000 OA
ATOM      7  C   UNL     1      -0.202  10.953  20.066  0.00  0.00    +0.000 A 
ATOM      8  C   UNL     1      -1.250  11.652  20.741  0.00  0.00    +0.000 A 
ATOM      9  C   UNL     1      -2.380  12.057  20.043  0.00  0.00    +0.000 A 
ATOM     10  C   UNL     1      -2.514  11.577  18.723  0.00  0.00    +0.000 A 
ATOM     11  C   UNL     1      -1.479  10.647  18.140  0.00  0.00    +0.000 A 
ATOM     12  C   UNL     1      -0.280  10.223  18.842  0.00  0.00    +0.000 A 
ENDROOT
BRANCH   1  14
ATOM     13  N   UNL     1       2.351   7.452  19.236  0.00  0.00    +0.000 N 
ATOM     14  C   UNL     1       2.177   8.409  18.234  0.00  0.00    +0.000 C 
ATOM     15  O   UNL     1       2.793   8.216  17.177  0.00  0.00    +0.000 OA
ATOM     16  H   UNL     1       1.965   7.648  20.149  0.00  0.00    +0.000 HD
BRANCH  13  21
ATOM     17  C   UNL     1       4.935   4.954  17.868  0.00  0.00    +0.000 A 
ATOM     18  C   UNL     1       4.826   3.811  18.631  0.00  0.00    +0.000 A 
ATOM     19  C   UNL     1       3.887   3.804  19.643  0.00  0.00    +0.000 A 
ATOM     20  C   UNL     1       2.986   4.893  19.875  0.00  0.00    +0.000 A 
ATOM     21  C   UNL     1       3.114   6.131  19.137  0.00  0.00    +0.000 A 
ATOM     22  C   UNL     1       4.132   6.099  18.136  0.00  0.00    +0.000 A 
BRANCH  17  24
ATOM     23  C   UNL     1       7.164   4.659  17.155  0.00  0.00    +0.000 C 
ATOM     24  O   UNL     1       5.797   4.797  16.817  0.00  0.00    +0.000 OA
ENDBRANCH  17  24
BRANCH  20  25
ATOM     25  O   UNL     1       2.044   4.691  20.861  0.00  0.00    +0.000 OA
ATOM     26  C   UNL     1       1.865   3.333  21.313  0.00  0.00    +0.000 C 
ENDBRANCH  20  25
ENDBRANCH  13  21
ENDBRANCH   1  14
BRANCH   9  27
ATOM     27  O   UNL     1      -3.277  12.941  20.599  0.00  0.00    +0.000 OA
ATOM     28  C   UNL     1      -3.758  12.722  21.931  0.00  0.00    +0.000 C 
ENDBRANCH   9  27
BRANCH  10  29
ATOM     29  O   UNL     1      -3.525  12.003  17.860  0.00  0.00    +0.000 OA
ATOM     30  C   UNL     1      -4.778  11.275  17.778  0.00  0.00    +0.000 C 
ENDBRANCH  10  29
TORSDOF 6
ENDMDL
MODEL 9
REMARK VINA RESULT:      -6.9      2.188      4.036
REMARK  Name = 
REMARK  11 active torsions:
REMARK  status: ('A' for Active; 'I' for Inactive)
REMARK    1  A    between atoms: C_1  and  O_2
REMARK    2  A    between atoms: O_2  and  C_3
REMARK    3  A    between atoms: C_6  and  O_7
REMARK    4  A    between atoms: O_7  and  C_8
REMARK    5  A    between atoms: C_9  and  N_10
REMARK    6  A    between atoms: C_11  and  C_13
REMARK    7  A    between atoms: N_15  and  C_16
REMARK    8  A    between atoms: C_21  and  O_22
REMARK    9  A    between atoms: O_22  and  C_23
REMARK   10  A    between atoms: C_24  and  O_25
REMARK   11  A    between atoms: O_25  and  C_26
REMARK                            x       y       z     vdW  Elec       q    Type
REMARK                         _______ _______ _______ _____ _____    ______ ____
ROOT
ATOM      1  C   UNL     1       1.423  10.028  19.425  0.00  0.00    +0.000 A 
ATOM      2  C   UNL     1       0.318   9.675  20.140  0.00  0.00    +0.000 A 
ATOM      3  N   UNL     1      -0.726  10.535  20.391  0.00  0.00    +0.000 N 
ATOM      4  C   UNL     1      -0.566  11.258  21.655  0.00  0.00    +0.000 C 
ATOM      5  C   UNL     1      -1.118  11.242  19.267  0.00  0.00    +0.000 A 
ATOM      6  O   UNL     1      -2.290  11.368  18.939  0.00  0.00    +0.000 OA
ATOM      7  C   UNL     1      -0.032  12.008  18.623  0.00  0.00    +0.000 A 
ATOM      8  C   UNL     1      -0.512  13.331  18.376  0.00  0.00    +0.000 A 
ATOM      9  C   UNL     1       0.140  14.423  18.932  0.00  0.00    +0.000 A 
ATOM     10  C   UNL     1       1.376  14.169  19.564  0.00  0.00    +0.000 A 
ATOM     11  C   UNL     1       1.946  12.773  19.590  0.00  0.00    +0.000 A 
ATOM     12  C   UNL     1       1.276  11.610  19.033  0.00  0.00    +0.000 A 
ENDROOT
BRANCH   1  14
ATOM     13  N   UNL     1       2.390   7.458  19.455  0.00  0.00    +0.000 N 
ATOM     14  C   UNL     1       1.865   8.563  18.782  0.00  0.00    +0.000 C 
ATOM     15  O   UNL     1       1.625   8.409  17.577  0.00  0.00    +0.000 OA
ATOM     16  H   UNL     1       2.714   7.591  20.403  0.00  0.00    +0.000 HD
BRANCH  13  21
ATOM     17  C   UNL     1       1.934   3.644  19.267  0.00  0.00    +0.000 A 
ATOM     18  C   UNL     1       2.657   3.210  18.176  0.00  0.00    +0.000 A 
ATOM     19  C   UNL     1       3.339   4.159  17.441  0.00  0.00    +0.000 A 
ATOM     20  C   UNL     1       3.384   5.543  17.809  0.00  0.00    +0.000 A 
ATOM     21  C   UNL     1       2.587   6.043  18.908  0.00  0.00    +0.000 A 
ATOM     22  C   UNL     1       1.865   5.025  19.603  0.00  0.00    +0.000 A 
BRANCH  17  24
ATOM     23  C   UNL     1       1.387   2.788  21.395  0.00  0.00    +0.000 C 
ATOM     24  O   UNL     1       1.416   2.606  19.992  0.00  0.00    +0.000 OA
ENDBRANCH  17  24
BRANCH  20  25
ATOM     25  O   UNL     1       4.187   6.345  17.028  0.00  0.00    +0.000 OA
ATOM     26  C   UNL     1       5.564   6.471  17.435  0.00  0.00    +0.000 C 
ENDBRANCH  20  25
ENDBRANCH  13  21
ENDBRANCH   1  14
BRANCH   9  27
ATOM     27  O   UNL     1      -0.437  15.673  18.922  0.00  0.00    +0.000 OA
ATOM     28  C   UNL     1      -1.270  16.080  20.015  0.00  0.00    +0.000 C 
ENDBRANCH   9  27
BRANCH  10  29
ATOM     29  O   UNL     1       2.077  15.142  20.277  0.00  0.00    +0.000 OA
ATOM     30  C   UNL     1       2.010  15.184  21.727  0.00  0.00    +0.000 C 
ENDBRANCH  10  29
TORSDOF 6
ENDMDL
