MODEL 1
REMARK VINA RESULT:      -8.0      0.000      0.000
REMARK  Name = 
REMARK  0 active torsions:
REMARK  status: ('A' for Active; 'I' for Inactive)
REMARK                            x       y       z     vdW  Elec       q    Type
REMARK                         _______ _______ _______ _____ _____    ______ ____
ROOT
ATOM      1  O   UNL     1       4.012   1.918  17.875  0.00  0.00    +0.000 OA
ATOM      2  C   UNL     1       3.897   3.138  17.869  0.00  0.00    +0.000 C 
ATOM      3  C   UNL     1       4.589   3.960  16.848  0.00  0.00    +0.000 A 
ATOM      4  C   UNL     1       5.383   3.322  15.884  0.00  0.00    +0.000 A 
ATOM      5  C   UNL     1       6.042   4.077  14.918  0.00  0.00    +0.000 A 
ATOM      6  C   UNL     1       5.908   5.463  14.915  0.00  0.00    +0.000 A 
ATOM      7  C   UNL     1       5.115   6.095  15.879  0.00  0.00    +0.000 A 
ATOM      8  C   UNL     1       4.439   5.357  16.867  0.00  0.00    +0.000 A 
ATOM      9  C   UNL     1       3.598   5.997  17.894  0.00  0.00    +0.000 A 
ATOM     10  N   UNL     1       3.503   7.349  17.845  0.00  0.00    +0.000 NA
ATOM     11  C   UNL     1       2.735   7.954  18.778  0.00  0.00    +0.000 A 
ATOM     12  C   UNL     1       2.046   7.279  19.774  0.00  0.00    +0.000 A 
ATOM     13 BR   UNL     1       1.021   8.313  20.993  0.00  0.00    +0.000 Br
ATOM     14  C   UNL     1       2.139   5.873  19.835  0.00  0.00    +0.000 A 
ATOM     15  C   UNL     1       1.485   5.068  20.800  0.00  0.00    +0.000 A 
ATOM     16  C   UNL     1       1.615   3.679  20.807  0.00  0.00    +0.000 A 
ATOM     17  C   UNL     1       2.403   3.053  19.850  0.00  0.00    +0.000 A 
ATOM     18  C   UNL     1       3.060   3.821  18.885  0.00  0.00    +0.000 A 
ATOM     19  C   UNL     1       2.939   5.222  18.863  0.00  0.00    +0.000 A 
ENDROOT
TORSDOF 0
ENDMDL
MODEL 2
REMARK VINA RESULT:      -7.8      2.334      3.427
REMARK  Name = 
REMARK  0 active torsions:
REMARK  status: ('A' for Active; 'I' for Inactive)
REMARK                            x       y       z     vdW  Elec       q    Type
REMARK                         _______ _______ _______ _____ _____    ______ ____
ROOT
ATOM      1  O   UNL     1       3.850   8.066  17.072  0.00  0.00    +0.000 OA
ATOM      2  C   UNL     1       3.864   6.886  17.402  0.00  0.00    +0.000 C 
ATOM      3  C   UNL     1       4.639   5.890  16.625  0.00  0.00    +0.000 A 
ATOM      4  C   UNL     1       5.360   6.315  15.500  0.00  0.00    +0.000 A 
ATOM      5  C   UNL     1       6.093   5.394  14.757  0.00  0.00    +0.000 A 
ATOM      6  C   UNL     1       6.105   4.055  15.137  0.00  0.00    +0.000 A 
ATOM      7  C   UNL     1       5.384   3.635  16.260  0.00  0.00    +0.000 A 
ATOM      8  C   UNL     1       4.635   4.544  17.028  0.00  0.00    +0.000 A 
ATOM      9  C   UNL     1       3.866   4.129  18.215  0.00  0.00    +0.000 A 
ATOM     10  N   UNL     1       3.914   2.813  18.540  0.00  0.00    +0.000 NA
ATOM     11  C   UNL     1       3.216   2.413  19.626  0.00  0.00    +0.000 A 
ATOM     12  C   UNL     1       2.460   3.263  20.420  0.00  0.00    +0.000 A 
ATOM     13 BR   UNL     1       1.551   2.506  21.905  0.00  0.00    +0.000 Br
ATOM     14  C   UNL     1       2.404   4.633  20.091  0.00  0.00    +0.000 A 
ATOM     15  C   UNL     1       1.672   5.602  20.820  0.00  0.00    +0.000 A 
ATOM     16  C   UNL     1       1.656   6.947  20.444  0.00  0.00    +0.000 A 
ATOM     17  C   UNL     1       2.372   7.362  19.329  0.00  0.00    +0.000 A 
ATOM     18  C   UNL     1       3.104   6.428  18.591  0.00  0.00    +0.000 A 
ATOM     19  C   UNL     1       3.131   5.070  18.956  0.00  0.00    +0.000 A 
ENDROOT
TORSDOF 0
ENDMDL
MODEL 3
REMARK VINA RESULT:      -7.1      3.042      6.010
REMARK  Name = 
REMARK  0 active torsions:
REMARK  status: ('A' for Active; 'I' for Inactive)
REMARK                            x       y       z     vdW  Elec       q    Type
REMARK                         _______ _______ _______ _____ _____    ______ ____
ROOT
ATOM      1  O   UNL     1       2.538   9.497  17.315  0.00  0.00    +0.000 OA
ATOM      2  C   UNL     1       2.389   8.615  18.153  0.00  0.00    +0.000 C 
ATOM      3  C   UNL     1       1.500   8.821  19.321  0.00  0.00    +0.000 A 
ATOM      4  C   UNL     1       0.828  10.044  19.458  0.00  0.00    +0.000 A 
ATOM      5  C   UNL     1      -0.010  10.257  20.549  0.00  0.00    +0.000 A 
ATOM      6  C   UNL     1      -0.176   9.252  21.498  0.00  0.00    +0.000 A 
ATOM      7  C   UNL     1       0.497   8.033  21.357  0.00  0.00    +0.000 A 
ATOM      8  C   UNL     1       1.350   7.792  20.266  0.00  0.00    +0.000 A 
ATOM      9  C   UNL     1       2.071   6.518  20.093  0.00  0.00    +0.000 A 
ATOM     10  N   UNL     1       1.873   5.574  21.047  0.00  0.00    +0.000 NA
ATOM     11  C   UNL     1       2.525   4.399  20.905  0.00  0.00    +0.000 A 
ATOM     12  C   UNL     1       3.377   4.105  19.852  0.00  0.00    +0.000 A 
ATOM     13 BR   UNL     1       4.200   2.394  19.834  0.00  0.00    +0.000 Br
ATOM     14  C   UNL     1       3.590   5.079  18.855  0.00  0.00    +0.000 A 
ATOM     15  C   UNL     1       4.433   4.904  17.730  0.00  0.00    +0.000 A 
ATOM     16  C   UNL     1       4.603   5.908  16.775  0.00  0.00    +0.000 A 
ATOM     17  C   UNL     1       3.935   7.117  16.916  0.00  0.00    +0.000 A 
ATOM     18  C   UNL     1       3.096   7.319  18.016  0.00  0.00    +0.000 A 
ATOM     19  C   UNL     1       2.914   6.317  18.987  0.00  0.00    +0.000 A 
ENDROOT
TORSDOF 0
ENDMDL
MODEL 4
REMARK VINA RESULT:      -6.9      2.698      4.999
REMARK  Name = 
REMARK  0 active torsions:
REMARK  status: ('A' for Active; 'I' for Inactive)
REMARK                            x       y       z     vdW  Elec       q    Type
REMARK                         _______ _______ _______ _____ _____    ______ ____
ROOT
ATOM      1  O   UNL     1       1.630   5.805  21.088  0.00  0.00    +0.000 OA
ATOM      2  C   UNL     1       2.204   6.157  20.063  0.00  0.00    +0.000 C 
ATOM      3  C   UNL     1       1.990   7.512  19.501  0.00  0.00    +0.000 A 
ATOM      4  C   UNL     1       1.118   8.391  20.158  0.00  0.00    +0.000 A 
ATOM      5  C   UNL     1       0.903   9.668  19.645  0.00  0.00    +0.000 A 
ATOM      6  C   UNL     1       1.558  10.062  18.481  0.00  0.00    +0.000 A 
ATOM      7  C   UNL     1       2.427   9.181  17.829  0.00  0.00    +0.000 A 
ATOM      8  C   UNL     1       2.661   7.886  18.325  0.00  0.00    +0.000 A 
ATOM      9  C   UNL     1       3.571   6.937  17.658  0.00  0.00    +0.000 A 
ATOM     10  N   UNL     1       4.182   7.373  16.528  0.00  0.00    +0.000 NA
ATOM     11  C   UNL     1       5.020   6.518  15.903  0.00  0.00    +0.000 A 
ATOM     12  C   UNL     1       5.290   5.232  16.345  0.00  0.00    +0.000 A 
ATOM     13 BR   UNL     1       6.500   4.184  15.324  0.00  0.00    +0.000 Br
ATOM     14  C   UNL     1       4.660   4.768  17.519  0.00  0.00    +0.000 A 
ATOM     15  C   UNL     1       4.851   3.479  18.074  0.00  0.00    +0.000 A 
ATOM     16  C   UNL     1       4.198   3.078  19.242  0.00  0.00    +0.000 A 
ATOM     17  C   UNL     1       3.336   3.954  19.887  0.00  0.00    +0.000 A 
ATOM     18  C   UNL     1       3.128   5.232  19.363  0.00  0.00    +0.000 A 
ATOM     19  C   UNL     1       3.778   5.652  18.188  0.00  0.00    +0.000 A 
ENDROOT
TORSDOF 0
ENDMDL
MODEL 5
REMARK VINA RESULT:      -6.8      2.518      4.935
REMARK  Name = 
REMARK  0 active torsions:
REMARK  status: ('A' for Active; 'I' for Inactive)
REMARK                            x       y       z     vdW  Elec       q    Type
REMARK                         _______ _______ _______ _____ _____    ______ ____
ROOT
ATOM      1  O   UNL     1       1.298   3.975  21.126  0.00  0.00    +0.000 OA
ATOM      2  C   UNL     1       1.896   4.605  20.261  0.00  0.00    +0.000 C 
ATOM      3  C   UNL     1       1.789   6.081  20.187  0.00  0.00    +0.000 A 
ATOM      4  C   UNL     1       0.992   6.754  21.125  0.00  0.00    +0.000 A 
ATOM      5  C   UNL     1       0.879   8.141  21.072  0.00  0.00    +0.000 A 
ATOM      6  C   UNL     1       1.559   8.851  20.087  0.00  0.00    +0.000 A 
ATOM      7  C   UNL     1       2.354   8.176  19.153  0.00  0.00    +0.000 A 
ATOM      8  C   UNL     1       2.485   6.776  19.184  0.00  0.00    +0.000 A 
ATOM      9  C   UNL     1       3.315   6.039  18.214  0.00  0.00    +0.000 A 
ATOM     10  N   UNL     1       3.956   6.781  17.276  0.00  0.00    +0.000 NA
ATOM     11  C   UNL     1       4.722   6.124  16.378  0.00  0.00    +0.000 A 
ATOM     12  C   UNL     1       4.889   4.747  16.359  0.00  0.00    +0.000 A 
ATOM     13 BR   UNL     1       6.009   4.013  15.013  0.00  0.00    +0.000 Br
ATOM     14  C   UNL     1       4.227   3.967  17.329  0.00  0.00    +0.000 A 
ATOM     15  C   UNL     1       4.316   2.555  17.419  0.00  0.00    +0.000 A 
ATOM     16  C   UNL     1       3.636   1.838  18.405  0.00  0.00    +0.000 A 
ATOM     17  C   UNL     1       2.848   2.509  19.329  0.00  0.00    +0.000 A 
ATOM     18  C   UNL     1       2.741   3.901  19.266  0.00  0.00    +0.000 A 
ATOM     19  C   UNL     1       3.420   4.640  18.279  0.00  0.00    +0.000 A 
ENDROOT
TORSDOF 0
ENDMDL
MODEL 6
REMARK VINA RESULT:      -6.7      2.924      5.632
REMARK  Name = 
REMARK  0 active torsions:
REMARK  status: ('A' for Active; 'I' for Inactive)
REMARK                            x       y       z     vdW  Elec       q    Type
REMARK                         _______ _______ _______ _____ _____    ______ ____
ROOT
ATOM      1  O   UNL     1       2.034   7.015  19.958  0.00  0.00    +0.000 OA
ATOM      2  C   UNL     1       2.549   6.064  19.380  0.00  0.00    +0.000 C 
ATOM      3  C   UNL     1       2.322   4.677  19.851  0.00  0.00    +0.000 A 
ATOM      4  C   UNL     1       1.506   4.464  20.972  0.00  0.00    +0.000 A 
ATOM      5  C   UNL     1       1.281   3.168  21.430  0.00  0.00    +0.000 A 
ATOM      6  C   UNL     1       1.868   2.092  20.771  0.00  0.00    +0.000 A 
ATOM      7  C   UNL     1       2.682   2.310  19.653  0.00  0.00    +0.000 A 
ATOM      8  C   UNL     1       2.926   3.607  19.170  0.00  0.00    +0.000 A 
ATOM      9  C   UNL     1       3.778   3.866  17.995  0.00  0.00    +0.000 A 
ATOM     10  N   UNL     1       4.324   2.781  17.391  0.00  0.00    +0.000 NA
ATOM     11  C   UNL     1       5.108   2.997  16.312  0.00  0.00    +0.000 A 
ATOM     12  C   UNL     1       5.384   4.252  15.791  0.00  0.00    +0.000 A 
ATOM     13 BR   UNL     1       6.511   4.345  14.266  0.00  0.00    +0.000 Br
ATOM     14  C   UNL     1       4.821   5.387  16.411  0.00  0.00    +0.000 A 
ATOM     15  C   UNL     1       5.024   6.720  15.978  0.00  0.00    +0.000 A 
ATOM     16  C   UNL     1       4.437   7.803  16.634  0.00  0.00    +0.000 A 
ATOM     17  C   UNL     1       3.631   7.586  17.744  0.00  0.00    +0.000 A 
ATOM     18  C   UNL     1       3.413   6.281  18.195  0.00  0.00    +0.000 A 
ATOM     19  C   UNL     1       3.996   5.178  17.544  0.00  0.00    +0.000 A 
ENDROOT
TORSDOF 0
ENDMDL
MODEL 7
REMARK VINA RESULT:      -6.4      3.634      5.995
REMARK  Name = 
REMARK  0 active torsions:
REMARK  status: ('A' for Active; 'I' for Inactive)
REMARK                            x       y       z     vdW  Elec       q    Type
REMARK                         _______ _______ _______ _____ _____    ______ ____
ROOT
ATOM      1  O   UNL     1       2.506   9.047  17.102  0.00  0.00    +0.000 OA
ATOM      2  C   UNL     1       2.024   8.879  18.217  0.00  0.00    +0.000 C 
ATOM      3  C   UNL     1       2.180   7.586  18.924  0.00  0.00    +0.000 A 
ATOM      4  C   UNL     1       2.890   6.550  18.299  0.00  0.00    +0.000 A 
ATOM      5  C   UNL     1       3.047   5.328  18.947  0.00  0.00    +0.000 A 
ATOM      6  C   UNL     1       2.497   5.143  20.213  0.00  0.00    +0.000 A 
ATOM      7  C   UNL     1       1.789   6.179  20.832  0.00  0.00    +0.000 A 
ATOM      8  C   UNL     1       1.616   7.423  20.200  0.00  0.00    +0.000 A 
ATOM      9  C   UNL     1       0.875   8.532  20.828  0.00  0.00    +0.000 A 
ATOM     10  N   UNL     1       0.361   8.297  22.061  0.00  0.00    +0.000 NA
ATOM     11  C   UNL     1      -0.321   9.301  22.655  0.00  0.00    +0.000 A 
ATOM     12  C   UNL     1      -0.524  10.547  22.080  0.00  0.00    +0.000 A 
ATOM     13 BR   UNL     1      -1.511  11.827  23.077  0.00  0.00    +0.000 Br
ATOM     14  C   UNL     1       0.006  10.802  20.799  0.00  0.00    +0.000 A 
ATOM     15  C   UNL     1      -0.130  12.030  20.105  0.00  0.00    +0.000 A 
ATOM     16  C   UNL     1       0.420  12.222  18.836  0.00  0.00    +0.000 A 
ATOM     17  C   UNL     1       1.121  11.192  18.223  0.00  0.00    +0.000 A 
ATOM     18  C   UNL     1       1.271   9.970  18.883  0.00  0.00    +0.000 A 
ATOM     19  C   UNL     1       0.725   9.760  20.163  0.00  0.00    +0.000 A 
ENDROOT
TORSDOF 0
ENDMDL
MODEL 8
REMARK VINA RESULT:      -6.4      2.587      4.028
REMARK  Name = 
REMARK  0 active torsions:
REMARK  status: ('A' for Active; 'I' for Inactive)
REMARK                            x       y       z     vdW  Elec       q    Type
REMARK                         _______ _______ _______ _____ _____    ______ ____
ROOT
ATOM      1  O   UNL     1       1.820   5.383  21.132  0.00  0.00    +0.000 OA
ATOM      2  C   UNL     1       1.972   6.308  20.342  0.00  0.00    +0.000 C 
ATOM      3  C   UNL     1       2.833   6.149  19.146  0.00  0.00    +0.000 A 
ATOM      4  C   UNL     1       3.475   4.922  18.928  0.00  0.00    +0.000 A 
ATOM      5  C   UNL     1       4.289   4.754  17.810  0.00  0.00    +0.000 A 
ATOM      6  C   UNL     1       4.459   5.807  16.916  0.00  0.00    +0.000 A 
ATOM      7  C   UNL     1       3.815   7.030  17.138  0.00  0.00    +0.000 A 
ATOM      8  C   UNL     1       2.989   7.227  18.258  0.00  0.00    +0.000 A 
ATOM      9  C   UNL     1       2.300   8.503  18.517  0.00  0.00    +0.000 A 
ATOM     10  N   UNL     1       2.500   9.495  17.613  0.00  0.00    +0.000 NA
ATOM     11  C   UNL     1       1.876  10.674  17.832  0.00  0.00    +0.000 A 
ATOM     12  C   UNL     1       1.051  10.925  18.918  0.00  0.00    +0.000 A 
ATOM     13 BR   UNL     1       0.266  12.649  19.047  0.00  0.00    +0.000 Br
ATOM     14  C   UNL     1       0.836   9.901  19.863  0.00  0.00    +0.000 A 
ATOM     15  C   UNL     1       0.017  10.031  21.012  0.00  0.00    +0.000 A 
ATOM     16  C   UNL     1      -0.158   8.978  21.912  0.00  0.00    +0.000 A 
ATOM     17  C   UNL     1       0.482   7.766  21.691  0.00  0.00    +0.000 A 
ATOM     18  C   UNL     1       1.296   7.608  20.566  0.00  0.00    +0.000 A 
ATOM     19  C   UNL     1       1.482   8.659  19.648  0.00  0.00    +0.000 A 
ENDROOT
TORSDOF 0
ENDMDL
MODEL 9
REMARK VINA RESULT:      -6.3     10.211     11.701
REMARK  Name = 
REMARK  0 active torsions:
REMARK  status: ('A' for Active; 'I' for Inactive)
REMARK                            x       y       z     vdW  Elec       q    Type
REMARK                         _______ _______ _______ _____ _____    ______ ____
ROOT
ATOM      1  O   UNL     1      11.285  13.394  16.446  0.00  0.00    +0.000 OA
ATOM      2  C   UNL     1      10.895  13.773  17.545  0.00  0.00    +0.000 C 
ATOM      3  C   UNL     1      10.970  15.204  17.923  0.00  0.00    +0.000 A 
ATOM      4  C   UNL     1      11.494  16.125  17.004  0.00  0.00    +0.000 A 
ATOM      5  C   UNL     1      11.573  17.474  17.342  0.00  0.00    +0.000 A 
ATOM      6  C   UNL     1      11.130  17.899  18.591  0.00  0.00    +0.000 A 
ATOM      7  C   UNL     1      10.608  16.977  19.505  0.00  0.00    +0.000 A 
ATOM      8  C   UNL     1      10.518  15.609  19.190  0.00  0.00    +0.000 A 
ATOM      9  C   UNL     1       9.972  14.616  20.133  0.00  0.00    +0.000 A 
ATOM     10  N   UNL     1       9.555  15.085  21.335  0.00  0.00    +0.000 NA
ATOM     11  C   UNL     1       9.051  14.190  22.213  0.00  0.00    +0.000 A 
ATOM     12  C   UNL     1       8.938  12.832  21.959  0.00  0.00    +0.000 A 
ATOM     13 BR   UNL     1       8.202  11.738  23.325  0.00  0.00    +0.000 Br
ATOM     14  C   UNL     1       9.368  12.333  20.712  0.00  0.00    +0.000 A 
ATOM     15  C   UNL     1       9.305  10.971  20.329  0.00  0.00    +0.000 A 
ATOM     16  C   UNL     1       9.747  10.539  19.077  0.00  0.00    +0.000 A 
ATOM     17  C   UNL     1      10.266  11.455  18.172  0.00  0.00    +0.000 A 
ATOM     18  C   UNL     1      10.340  12.806  18.522  0.00  0.00    +0.000 A 
ATOM     19  C   UNL     1       9.898  13.259  19.779  0.00  0.00    +0.000 A 
ENDROOT
TORSDOF 0
ENDMDL
