MODEL 1
REMARK VINA RESULT:      -6.7      0.000      0.000
REMARK  Name = 
REMARK  7 active torsions:
REMARK  status: ('A' for Active; 'I' for Inactive)
REMARK    1  A    between atoms: C_1  and  C_2
REMARK    2  A    between atoms: C_2  and  N_3
REMARK    3  A    between atoms: N_9  and  C_10
REMARK    4  A    between atoms: C_13  and  O_14
REMARK    5  A    between atoms: O_14  and  C_15
REMARK    6  A    between atoms: C_17  and  O_18
REMARK    7  A    between atoms: O_18  and  C_19
REMARK                            x       y       z     vdW  Elec       q    Type
REMARK                         _______ _______ _______ _____ _____    ______ ____
ROOT
ATOM      1  N   UNL     1      -0.730   9.980  20.943  0.00  0.00    +0.000 NA
ATOM      2  C   UNL     1      -0.544  10.194  19.485  0.00  0.00    +0.000 C 
ATOM      3  C   UNL     1       0.925  10.136  19.023  0.00  0.00    +0.000 C 
ATOM      4  N   UNL     1       1.549   8.883  19.454  0.00  0.00    +0.000 N 
ATOM      5  C   UNL     1       2.214   8.134  18.508  0.00  0.00    +0.000 C 
ATOM      6  O   UNL     1       2.316   8.530  17.346  0.00  0.00    +0.000 OA
ATOM      7  N   UNL     1       2.705   6.920  18.932  0.00  0.00    +0.000 N 
ATOM      8  C   UNL     1       1.427   8.617  20.889  0.00  0.00    +0.000 C 
ATOM      9  C   UNL     1      -0.050   8.723  21.327  0.00  0.00    +0.000 C 
ATOM     10  H   UNL     1       2.170   6.449  19.638  0.00  0.00    +0.000 HD
ENDROOT
BRANCH   7  11
ATOM     11  C   UNL     1       3.443   6.089  18.057  0.00  0.00    +0.000 A 
ATOM     12  C   UNL     1       4.551   6.636  17.393  0.00  0.00    +0.000 A 
ATOM     13  C   UNL     1       5.322   5.864  16.531  0.00  0.00    +0.000 A 
ATOM     14  C   UNL     1       5.003   4.527  16.311  0.00  0.00    +0.000 A 
ATOM     15  C   UNL     1       3.915   3.965  16.984  0.00  0.00    +0.000 A 
ATOM     16  C   UNL     1       3.135   4.733  17.868  0.00  0.00    +0.000 A 
BRANCH  14  17
ATOM     17  O   UNL     1       5.829   3.896  15.425  0.00  0.00    +0.000 OA
ATOM     18  C   UNL     1       6.796   4.697  14.767  0.00  0.00    +0.000 C 
ENDBRANCH  14  17
BRANCH  16  19
ATOM     19  O   UNL     1       2.147   4.033  18.514  0.00  0.00    +0.000 OA
ATOM     20  C   UNL     1       1.926   2.696  18.076  0.00  0.00    +0.000 C 
ENDBRANCH  16  19
ENDBRANCH   7  11
BRANCH   1  22
ATOM     21  C   UNL     1      -1.135  11.514  22.893  0.00  0.00    +0.000 C 
ATOM     22  C   UNL     1      -0.276  11.165  21.686  0.00  0.00    +0.000 C 
ENDBRANCH   1  22
TORSDOF 4
ENDMDL
MODEL 2
REMARK VINA RESULT:      -6.0      1.230      1.695
REMARK  Name = 
REMARK  7 active torsions:
REMARK  status: ('A' for Active; 'I' for Inactive)
REMARK    1  A    between atoms: C_1  and  C_2
REMARK    2  A    between atoms: C_2  and  N_3
REMARK    3  A    between atoms: N_9  and  C_10
REMARK    4  A    between atoms: C_13  and  O_14
REMARK    5  A    between atoms: O_14  and  C_15
REMARK    6  A    between atoms: C_17  and  O_18
REMARK    7  A    between atoms: O_18  and  C_19
REMARK                            x       y       z     vdW  Elec       q    Type
REMARK                         _______ _______ _______ _____ _____    ______ ____
ROOT
ATOM      1  N   UNL     1       0.726  10.823  21.635  0.00  0.00    +0.000 NA
ATOM      2  C   UNL     1       1.299   9.630  22.310  0.00  0.00    +0.000 C 
ATOM      3  C   UNL     1       0.991   8.298  21.600  0.00  0.00    +0.000 C 
ATOM      4  N   UNL     1       1.406   8.358  20.196  0.00  0.00    +0.000 N 
ATOM      5  C   UNL     1       2.199   7.339  19.712  0.00  0.00    +0.000 C 
ATOM      6  O   UNL     1       2.511   6.387  20.429  0.00  0.00    +0.000 OA
ATOM      7  N   UNL     1       2.643   7.480  18.418  0.00  0.00    +0.000 N 
ATOM      8  C   UNL     1       0.857   9.497  19.459  0.00  0.00    +0.000 C 
ATOM      9  C   UNL     1       1.146  10.811  20.216  0.00  0.00    +0.000 C 
ATOM     10  H   UNL     1       2.815   8.419  18.109  0.00  0.00    +0.000 HD
ENDROOT
BRANCH   7  11
ATOM     11  C   UNL     1       3.425   6.474  17.804  0.00  0.00    +0.000 A 
ATOM     12  C   UNL     1       4.742   6.784  17.436  0.00  0.00    +0.000 A 
ATOM     13  C   UNL     1       5.565   5.834  16.841  0.00  0.00    +0.000 A 
ATOM     14  C   UNL     1       5.087   4.548  16.598  0.00  0.00    +0.000 A 
ATOM     15  C   UNL     1       3.784   4.220  16.980  0.00  0.00    +0.000 A 
ATOM     16  C   UNL     1       2.948   5.171  17.594  0.00  0.00    +0.000 A 
BRANCH  14  17
ATOM     17  O   UNL     1       5.991   3.725  15.990  0.00  0.00    +0.000 OA
ATOM     18  C   UNL     1       6.206   3.922  14.603  0.00  0.00    +0.000 C 
ENDBRANCH  14  17
BRANCH  16  19
ATOM     19  O   UNL     1       1.723   4.689  17.982  0.00  0.00    +0.000 OA
ATOM     20  C   UNL     1       1.636   3.286  18.213  0.00  0.00    +0.000 C 
ENDBRANCH  16  19
ENDBRANCH   7  11
BRANCH   1  22
ATOM     21  C   UNL     1      -1.437  11.978  21.078  0.00  0.00    +0.000 C 
ATOM     22  C   UNL     1      -0.731  10.861  21.834  0.00  0.00    +0.000 C 
ENDBRANCH   1  22
TORSDOF 4
ENDMDL
MODEL 3
REMARK VINA RESULT:      -5.8      2.278      7.967
REMARK  Name = 
REMARK  7 active torsions:
REMARK  status: ('A' for Active; 'I' for Inactive)
REMARK    1  A    between atoms: C_1  and  C_2
REMARK    2  A    between atoms: C_2  and  N_3
REMARK    3  A    between atoms: N_9  and  C_10
REMARK    4  A    between atoms: C_13  and  O_14
REMARK    5  A    between atoms: O_14  and  C_15
REMARK    6  A    between atoms: C_17  and  O_18
REMARK    7  A    between atoms: O_18  and  C_19
REMARK                            x       y       z     vdW  Elec       q    Type
REMARK                         _______ _______ _______ _____ _____    ______ ____
ROOT
ATOM      1  N   UNL     1       4.271   4.682  16.857  0.00  0.00    +0.000 NA
ATOM      2  C   UNL     1       3.171   4.113  17.677  0.00  0.00    +0.000 C 
ATOM      3  C   UNL     1       3.149   4.617  19.134  0.00  0.00    +0.000 C 
ATOM      4  N   UNL     1       3.128   6.081  19.170  0.00  0.00    +0.000 N 
ATOM      5  C   UNL     1       2.167   6.695  19.943  0.00  0.00    +0.000 C 
ATOM      6  O   UNL     1       1.378   6.029  20.616  0.00  0.00    +0.000 OA
ATOM      7  N   UNL     1       2.122   8.068  19.877  0.00  0.00    +0.000 N 
ATOM      8  C   UNL     1       4.202   6.713  18.401  0.00  0.00    +0.000 C 
ATOM      9  C   UNL     1       4.224   6.158  16.960  0.00  0.00    +0.000 C 
ATOM     10  H   UNL     1       2.371   8.477  18.994  0.00  0.00    +0.000 HD
ENDROOT
BRANCH   7  11
ATOM     11  C   UNL     1       1.205   8.805  20.663  0.00  0.00    +0.000 A 
ATOM     12  C   UNL     1       1.299   8.713  22.059  0.00  0.00    +0.000 A 
ATOM     13  C   UNL     1       0.433   9.423  22.884  0.00  0.00    +0.000 A 
ATOM     14  C   UNL     1      -0.548  10.242  22.332  0.00  0.00    +0.000 A 
ATOM     15  C   UNL     1      -0.637  10.359  20.942  0.00  0.00    +0.000 A 
ATOM     16  C   UNL     1       0.241   9.655  20.098  0.00  0.00    +0.000 A 
BRANCH  14  17
ATOM     17  O   UNL     1      -1.341  10.861  23.255  0.00  0.00    +0.000 OA
ATOM     18  C   UNL     1      -2.068  11.996  22.818  0.00  0.00    +0.000 C 
ENDBRANCH  14  17
BRANCH  16  19
ATOM     19  O   UNL     1       0.087   9.922  18.761  0.00  0.00    +0.000 OA
ATOM     20  C   UNL     1      -0.796  10.987  18.425  0.00  0.00    +0.000 C 
ENDBRANCH  16  19
ENDBRANCH   7  11
BRANCH   1  22
ATOM     21  C   UNL     1       6.737   4.514  16.397  0.00  0.00    +0.000 C 
ATOM     22  C   UNL     1       5.555   4.088  17.258  0.00  0.00    +0.000 C 
ENDBRANCH   1  22
TORSDOF 4
ENDMDL
MODEL 4
REMARK VINA RESULT:      -5.8      2.457      7.591
REMARK  Name = 
REMARK  7 active torsions:
REMARK  status: ('A' for Active; 'I' for Inactive)
REMARK    1  A    between atoms: C_1  and  C_2
REMARK    2  A    between atoms: C_2  and  N_3
REMARK    3  A    between atoms: N_9  and  C_10
REMARK    4  A    between atoms: C_13  and  O_14
REMARK    5  A    between atoms: O_14  and  C_15
REMARK    6  A    between atoms: C_17  and  O_18
REMARK    7  A    between atoms: O_18  and  C_19
REMARK                            x       y       z     vdW  Elec       q    Type
REMARK                         _______ _______ _______ _____ _____    ______ ____
ROOT
ATOM      1  N   UNL     1       4.481   4.486  19.143  0.00  0.00    +0.000 NA
ATOM      2  C   UNL     1       4.925   5.695  18.404  0.00  0.00    +0.000 C 
ATOM      3  C   UNL     1       3.790   6.439  17.675  0.00  0.00    +0.000 C 
ATOM      4  N   UNL     1       2.707   6.761  18.607  0.00  0.00    +0.000 N 
ATOM      5  C   UNL     1       2.252   8.061  18.644  0.00  0.00    +0.000 C 
ATOM      6  O   UNL     1       2.714   8.914  17.885  0.00  0.00    +0.000 OA
ATOM      7  N   UNL     1       1.300   8.343  19.597  0.00  0.00    +0.000 N 
ATOM      8  C   UNL     1       2.199   5.609  19.355  0.00  0.00    +0.000 C 
ATOM      9  C   UNL     1       3.365   4.862  20.039  0.00  0.00    +0.000 C 
ATOM     10  H   UNL     1       1.366   7.825  20.455  0.00  0.00    +0.000 HD
ENDROOT
BRANCH   7  11
ATOM     11  C   UNL     1       0.729   9.633  19.695  0.00  0.00    +0.000 A 
ATOM     12  C   UNL     1       0.070  10.159  18.575  0.00  0.00    +0.000 A 
ATOM     13  C   UNL     1      -0.522  11.417  18.615  0.00  0.00    +0.000 A 
ATOM     14  C   UNL     1      -0.465  12.181  19.778  0.00  0.00    +0.000 A 
ATOM     15  C   UNL     1       0.171  11.660  20.908  0.00  0.00    +0.000 A 
ATOM     16  C   UNL     1       0.761  10.383  20.882  0.00  0.00    +0.000 A 
BRANCH  14  17
ATOM     17  O   UNL     1      -1.066  13.402  19.670  0.00  0.00    +0.000 OA
ATOM     18  C   UNL     1      -0.271  14.467  19.178  0.00  0.00    +0.000 C 
ENDBRANCH  14  17
BRANCH  16  19
ATOM     19  O   UNL     1       1.282   9.970  22.082  0.00  0.00    +0.000 OA
ATOM     20  C   UNL     1       0.351   9.494  23.049  0.00  0.00    +0.000 C 
ENDBRANCH  16  19
ENDBRANCH   7  11
BRANCH   1  22
ATOM     21  C   UNL     1       3.568   2.162  18.841  0.00  0.00    +0.000 C 
ATOM     22  C   UNL     1       4.158   3.408  18.195  0.00  0.00    +0.000 C 
ENDBRANCH   1  22
TORSDOF 4
ENDMDL
MODEL 5
REMARK VINA RESULT:      -5.7      1.376      1.782
REMARK  Name = 
REMARK  7 active torsions:
REMARK  status: ('A' for Active; 'I' for Inactive)
REMARK    1  A    between atoms: C_1  and  C_2
REMARK    2  A    between atoms: C_2  and  N_3
REMARK    3  A    between atoms: N_9  and  C_10
REMARK    4  A    between atoms: C_13  and  O_14
REMARK    5  A    between atoms: O_14  and  C_15
REMARK    6  A    between atoms: C_17  and  O_18
REMARK    7  A    between atoms: O_18  and  C_19
REMARK                            x       y       z     vdW  Elec       q    Type
REMARK                         _______ _______ _______ _____ _____    ______ ____
ROOT
ATOM      1  N   UNL     1      -0.011  11.921  20.128  0.00  0.00    +0.000 NA
ATOM      2  C   UNL     1       0.740  11.094  21.106  0.00  0.00    +0.000 C 
ATOM      3  C   UNL     1       0.583   9.575  20.897  0.00  0.00    +0.000 C 
ATOM      4  N   UNL     1       0.930   9.208  19.522  0.00  0.00    +0.000 N 
ATOM      5  C   UNL     1       1.829   8.182  19.334  0.00  0.00    +0.000 C 
ATOM      6  O   UNL     1       2.293   7.565  20.294  0.00  0.00    +0.000 OA
ATOM      7  N   UNL     1       2.199   7.930  18.033  0.00  0.00    +0.000 N 
ATOM      8  C   UNL     1       0.206   9.968  18.500  0.00  0.00    +0.000 C 
ATOM      9  C   UNL     1       0.350  11.483  18.762  0.00  0.00    +0.000 C 
ATOM     10  H   UNL     1       2.234   8.726  17.421  0.00  0.00    +0.000 HD
ENDROOT
BRANCH   7  11
ATOM     11  C   UNL     1       3.082   6.871  17.719  0.00  0.00    +0.000 A 
ATOM     12  C   UNL     1       4.398   7.185  17.352  0.00  0.00    +0.000 A 
ATOM     13  C   UNL     1       5.316   6.187  17.045  0.00  0.00    +0.000 A 
ATOM     14  C   UNL     1       4.937   4.847  17.097  0.00  0.00    +0.000 A 
ATOM     15  C   UNL     1       3.635   4.520  17.482  0.00  0.00    +0.000 A 
ATOM     16  C   UNL     1       2.702   5.522  17.807  0.00  0.00    +0.000 A 
BRANCH  14  17
ATOM     17  O   UNL     1       5.929   3.976  16.750  0.00  0.00    +0.000 OA
ATOM     18  C   UNL     1       6.180   3.807  15.365  0.00  0.00    +0.000 C 
ENDBRANCH  14  17
BRANCH  16  19
ATOM     19  O   UNL     1       1.487   5.054  18.240  0.00  0.00    +0.000 OA
ATOM     20  C   UNL     1       1.487   3.779  18.874  0.00  0.00    +0.000 C 
ENDBRANCH  16  19
ENDBRANCH   7  11
BRANCH   1  22
ATOM     21  C   UNL     1      -1.822  12.310  21.829  0.00  0.00    +0.000 C 
ATOM     22  C   UNL     1      -1.451  11.861  20.422  0.00  0.00    +0.000 C 
ENDBRANCH   1  22
TORSDOF 4
ENDMDL
MODEL 6
REMARK VINA RESULT:      -5.7      2.405      7.822
REMARK  Name = 
REMARK  7 active torsions:
REMARK  status: ('A' for Active; 'I' for Inactive)
REMARK    1  A    between atoms: C_1  and  C_2
REMARK    2  A    between atoms: C_2  and  N_3
REMARK    3  A    between atoms: N_9  and  C_10
REMARK    4  A    between atoms: C_13  and  O_14
REMARK    5  A    between atoms: O_14  and  C_15
REMARK    6  A    between atoms: C_17  and  O_18
REMARK    7  A    between atoms: O_18  and  C_19
REMARK                            x       y       z     vdW  Elec       q    Type
REMARK                         _______ _______ _______ _____ _____    ______ ____
ROOT
ATOM      1  N   UNL     1       5.102   5.275  18.412  0.00  0.00    +0.000 NA
ATOM      2  C   UNL     1       5.202   6.527  17.620  0.00  0.00    +0.000 C 
ATOM      3  C   UNL     1       3.851   7.048  17.093  0.00  0.00    +0.000 C 
ATOM      4  N   UNL     1       2.895   7.197  18.193  0.00  0.00    +0.000 N 
ATOM      5  C   UNL     1       2.233   8.399  18.315  0.00  0.00    +0.000 C 
ATOM      6  O   UNL     1       2.409   9.303  17.497  0.00  0.00    +0.000 OA
ATOM      7  N   UNL     1       1.414   8.530  19.413  0.00  0.00    +0.000 N 
ATOM      8  C   UNL     1       2.725   5.990  19.004  0.00  0.00    +0.000 C 
ATOM      9  C   UNL     1       4.099   5.470  19.482  0.00  0.00    +0.000 C 
ATOM     10  H   UNL     1       1.709   8.050  20.245  0.00  0.00    +0.000 HD
ENDROOT
BRANCH   7  11
ATOM     11  C   UNL     1       0.651   9.704  19.615  0.00  0.00    +0.000 A 
ATOM     12  C   UNL     1      -0.121  10.189  18.550  0.00  0.00    +0.000 A 
ATOM     13  C   UNL     1      -0.902  11.332  18.692  0.00  0.00    +0.000 A 
ATOM     14  C   UNL     1      -0.926  12.018  19.903  0.00  0.00    +0.000 A 
ATOM     15  C   UNL     1      -0.177  11.533  20.978  0.00  0.00    +0.000 A 
ATOM     16  C   UNL     1       0.606  10.371  20.850  0.00  0.00    +0.000 A 
BRANCH  14  17
ATOM     17  O   UNL     1      -1.715  13.132  19.895  0.00  0.00    +0.000 OA
ATOM     18  C   UNL     1      -2.054  13.687  21.155  0.00  0.00    +0.000 C 
ENDBRANCH  14  17
BRANCH  16  19
ATOM     19  O   UNL     1       1.228   9.969  22.005  0.00  0.00    +0.000 OA
ATOM     20  C   UNL     1       0.385   9.468  23.038  0.00  0.00    +0.000 C 
ENDBRANCH  16  19
ENDBRANCH   7  11
BRANCH   1  22
ATOM     21  C   UNL     1       5.721   4.069  16.294  0.00  0.00    +0.000 C 
ATOM     22  C   UNL     1       4.822   4.138  17.520  0.00  0.00    +0.000 C 
ENDBRANCH   1  22
TORSDOF 4
ENDMDL
MODEL 7
REMARK VINA RESULT:      -5.7      1.838      3.120
REMARK  Name = 
REMARK  7 active torsions:
REMARK  status: ('A' for Active; 'I' for Inactive)
REMARK    1  A    between atoms: C_1  and  C_2
REMARK    2  A    between atoms: C_2  and  N_3
REMARK    3  A    between atoms: N_9  and  C_10
REMARK    4  A    between atoms: C_13  and  O_14
REMARK    5  A    between atoms: O_14  and  C_15
REMARK    6  A    between atoms: C_17  and  O_18
REMARK    7  A    between atoms: O_18  and  C_19
REMARK                            x       y       z     vdW  Elec       q    Type
REMARK                         _______ _______ _______ _____ _____    ______ ____
ROOT
ATOM      1  N   UNL     1       0.978  12.230  19.969  0.00  0.00    +0.000 NA
ATOM      2  C   UNL     1       1.266  11.247  21.045  0.00  0.00    +0.000 C 
ATOM      3  C   UNL     1       0.701   9.839  20.778  0.00  0.00    +0.000 C 
ATOM      4  N   UNL     1       1.157   9.342  19.477  0.00  0.00    +0.000 N 
ATOM      5  C   UNL     1       1.727   8.089  19.427  0.00  0.00    +0.000 C 
ATOM      6  O   UNL     1       1.810   7.392  20.440  0.00  0.00    +0.000 OA
ATOM      7  N   UNL     1       2.225   7.698  18.206  0.00  0.00    +0.000 N 
ATOM      8  C   UNL     1       0.883  10.250  18.361  0.00  0.00    +0.000 C 
ATOM      9  C   UNL     1       1.424  11.661  18.677  0.00  0.00    +0.000 C 
ATOM     10  H   UNL     1       2.602   8.427  17.628  0.00  0.00    +0.000 HD
ENDROOT
BRANCH   7  11
ATOM     11  C   UNL     1       2.792   6.414  18.029  0.00  0.00    +0.000 A 
ATOM     12  C   UNL     1       1.986   5.291  18.263  0.00  0.00    +0.000 A 
ATOM     13  C   UNL     1       2.483   4.003  18.094  0.00  0.00    +0.000 A 
ATOM     14  C   UNL     1       3.801   3.808  17.687  0.00  0.00    +0.000 A 
ATOM     15  C   UNL     1       4.607   4.920  17.430  0.00  0.00    +0.000 A 
ATOM     16  C   UNL     1       4.111   6.227  17.586  0.00  0.00    +0.000 A 
BRANCH  14  17
ATOM     17  O   UNL     1       4.162   2.496  17.583  0.00  0.00    +0.000 OA
ATOM     18  C   UNL     1       3.434   1.565  18.367  0.00  0.00    +0.000 C 
ENDBRANCH  14  17
BRANCH  16  19
ATOM     19  O   UNL     1       4.988   7.218  17.227  0.00  0.00    +0.000 OA
ATOM     20  C   UNL     1       6.374   6.920  17.364  0.00  0.00    +0.000 C 
ENDBRANCH  16  19
ENDBRANCH   7  11
BRANCH   1  22
ATOM     21  C   UNL     1      -0.883  13.262  21.308  0.00  0.00    +0.000 C 
ATOM     22  C   UNL     1      -0.442  12.611  20.004  0.00  0.00    +0.000 C 
ENDBRANCH   1  22
TORSDOF 4
ENDMDL
MODEL 8
REMARK VINA RESULT:      -5.6      3.424      7.533
REMARK  Name = 
REMARK  7 active torsions:
REMARK  status: ('A' for Active; 'I' for Inactive)
REMARK    1  A    between atoms: C_1  and  C_2
REMARK    2  A    between atoms: C_2  and  N_3
REMARK    3  A    between atoms: N_9  and  C_10
REMARK    4  A    between atoms: C_13  and  O_14
REMARK    5  A    between atoms: O_14  and  C_15
REMARK    6  A    between atoms: C_17  and  O_18
REMARK    7  A    between atoms: O_18  and  C_19
REMARK                            x       y       z     vdW  Elec       q    Type
REMARK                         _______ _______ _______ _____ _____    ______ ____
ROOT
ATOM      1  N   UNL     1       2.239   4.379  19.224  0.00  0.00    +0.000 NA
ATOM      2  C   UNL     1       1.544   5.025  20.367  0.00  0.00    +0.000 C 
ATOM      3  C   UNL     1       2.094   6.418  20.731  0.00  0.00    +0.000 C 
ATOM      4  N   UNL     1       2.096   7.291  19.555  0.00  0.00    +0.000 N 
ATOM      5  C   UNL     1       1.515   8.535  19.673  0.00  0.00    +0.000 C 
ATOM      6  O   UNL     1       1.049   8.915  20.749  0.00  0.00    +0.000 OA
ATOM      7  N   UNL     1       1.455   9.288  18.523  0.00  0.00    +0.000 N 
ATOM      8  C   UNL     1       2.788   6.729  18.394  0.00  0.00    +0.000 C 
ATOM      9  C   UNL     1       2.243   5.318  18.081  0.00  0.00    +0.000 C 
ATOM     10  H   UNL     1       1.341   8.777  17.666  0.00  0.00    +0.000 HD
ENDROOT
BRANCH   7  11
ATOM     11  C   UNL     1       0.921  10.597  18.538  0.00  0.00    +0.000 A 
ATOM     12  C   UNL     1       1.808  11.679  18.624  0.00  0.00    +0.000 A 
ATOM     13  C   UNL     1       1.344  12.990  18.630  0.00  0.00    +0.000 A 
ATOM     14  C   UNL     1      -0.022  13.250  18.552  0.00  0.00    +0.000 A 
ATOM     15  C   UNL     1      -0.916  12.181  18.444  0.00  0.00    +0.000 A 
ATOM     16  C   UNL     1      -0.455  10.851  18.424  0.00  0.00    +0.000 A 
BRANCH  14  17
ATOM     17  O   UNL     1      -0.339  14.577  18.591  0.00  0.00    +0.000 OA
ATOM     18  C   UNL     1       0.193  15.333  19.666  0.00  0.00    +0.000 C 
ENDBRANCH  14  17
BRANCH  16  19
ATOM     19  O   UNL     1      -1.436   9.910  18.239  0.00  0.00    +0.000 OA
ATOM     20  C   UNL     1      -2.135   9.956  16.999  0.00  0.00    +0.000 C 
ENDBRANCH  16  19
ENDBRANCH   7  11
BRANCH   1  22
ATOM     21  C   UNL     1       3.859   2.459  19.348  0.00  0.00    +0.000 C 
ATOM     22  C   UNL     1       3.576   3.927  19.640  0.00  0.00    +0.000 C 
ENDBRANCH   1  22
TORSDOF 4
ENDMDL
MODEL 9
REMARK VINA RESULT:      -5.6      2.598      7.647
REMARK  Name = 
REMARK  7 active torsions:
REMARK  status: ('A' for Active; 'I' for Inactive)
REMARK    1  A    between atoms: C_1  and  C_2
REMARK    2  A    between atoms: C_2  and  N_3
REMARK    3  A    between atoms: N_9  and  C_10
REMARK    4  A    between atoms: C_13  and  O_14
REMARK    5  A    between atoms: O_14  and  C_15
REMARK    6  A    between atoms: C_17  and  O_18
REMARK    7  A    between atoms: O_18  and  C_19
REMARK                            x       y       z     vdW  Elec       q    Type
REMARK                         _______ _______ _______ _____ _____    ______ ____
ROOT
ATOM      1  N   UNL     1       4.727   5.235  18.596  0.00  0.00    +0.000 NA
ATOM      2  C   UNL     1       5.018   6.453  17.798  0.00  0.00    +0.000 C 
ATOM      3  C   UNL     1       3.777   7.079  17.132  0.00  0.00    +0.000 C 
ATOM      4  N   UNL     1       2.736   7.340  18.129  0.00  0.00    +0.000 N 
ATOM      5  C   UNL     1       2.177   8.598  18.166  0.00  0.00    +0.000 C 
ATOM      6  O   UNL     1       2.514   9.463  17.355  0.00  0.00    +0.000 OA
ATOM      7  N   UNL     1       1.270   8.829  19.175  0.00  0.00    +0.000 N 
ATOM      8  C   UNL     1       2.378   6.173  18.938  0.00  0.00    +0.000 C 
ATOM      9  C   UNL     1       3.646   5.545  19.558  0.00  0.00    +0.000 C 
ATOM     10  H   UNL     1       1.438   8.345  20.038  0.00  0.00    +0.000 HD
ENDROOT
BRANCH   7  11
ATOM     11  C   UNL     1       0.602  10.071  19.281  0.00  0.00    +0.000 A 
ATOM     12  C   UNL     1       1.089  11.016  20.196  0.00  0.00    +0.000 A 
ATOM     13  C   UNL     1       0.482  12.259  20.336  0.00  0.00    +0.000 A 
ATOM     14  C   UNL     1      -0.630  12.586  19.565  0.00  0.00    +0.000 A 
ATOM     15  C   UNL     1      -1.113  11.662  18.635  0.00  0.00    +0.000 A 
ATOM     16  C   UNL     1      -0.498  10.407  18.476  0.00  0.00    +0.000 A 
BRANCH  14  17
ATOM     17  O   UNL     1      -1.139  13.827  19.821  0.00  0.00    +0.000 OA
ATOM     18  C   UNL     1      -0.384  14.937  19.364  0.00  0.00    +0.000 C 
ENDBRANCH  14  17
BRANCH  16  19
ATOM     19  O   UNL     1      -1.030   9.632  17.476  0.00  0.00    +0.000 OA
ATOM     20  C   UNL     1      -2.205  10.130  16.844  0.00  0.00    +0.000 C 
ENDBRANCH  16  19
ENDBRANCH   7  11
BRANCH   1  22
ATOM     21  C   UNL     1       3.847   2.888  18.399  0.00  0.00    +0.000 C 
ATOM     22  C   UNL     1       4.433   4.106  17.699  0.00  0.00    +0.000 C 
ENDBRANCH   1  22
TORSDOF 4
ENDMDL
