MODEL 1
REMARK VINA RESULT:      -8.0      0.000      0.000
REMARK  Name = 
REMARK  6 active torsions:
REMARK  status: ('A' for Active; 'I' for Inactive)
REMARK    1  A    between atoms: C_2  and  C_4
REMARK    2  A    between atoms: C_7  and  N_8
REMARK    3  A    between atoms: C_9  and  C_11
REMARK    4  A    between atoms: C_15  and  C_16
REMARK    5  A    between atoms: N_18  and  C_19
REMARK    6  A    between atoms: C_22  and  C_23
REMARK                            x       y       z     vdW  Elec       q    Type
REMARK                         _______ _______ _______ _____ _____    ______ ____
ROOT
ATOM      1  C   UNL     1       1.761  10.038  18.266  0.00  0.00    +0.000 A 
ATOM      2  C   UNL     1       2.554  11.152  17.985  0.00  0.00    +0.000 A 
ATOM      3  C   UNL     1       2.048  12.415  18.247  0.00  0.00    +0.000 A 
ATOM      4  C   UNL     1       0.772  12.523  18.780  0.00  0.00    +0.000 A 
ATOM      5  C   UNL     1       0.045  11.359  19.037  0.00  0.00    +0.000 A 
ATOM      6  N   UNL     1       0.505  10.096  18.798  0.00  0.00    +0.000 NA
ENDROOT
BRANCH   1   8
ATOM      7  N   UNL     1       2.087   7.725  18.918  0.00  0.00    +0.000 N 
ATOM      8  C   UNL     1       2.309   8.684  17.946  0.00  0.00    +0.000 C 
ATOM      9  O   UNL     1       2.864   8.515  16.864  0.00  0.00    +0.000 OA
ATOM     10  H   UNL     1       1.493   8.013  19.687  0.00  0.00    +0.000 HD
BRANCH   7  14
ATOM     11  C   UNL     1       3.376   3.709  18.866  0.00  0.00    +0.000 A 
ATOM     12  C   UNL     1       2.237   4.074  18.150  0.00  0.00    +0.000 A 
ATOM     13  C   UNL     1       1.805   5.400  18.155  0.00  0.00    +0.000 A 
ATOM     14  C   UNL     1       2.505   6.380  18.861  0.00  0.00    +0.000 A 
ATOM     15  C   UNL     1       3.676   6.019  19.541  0.00  0.00    +0.000 A 
ATOM     16  C   UNL     1       4.102   4.683  19.558  0.00  0.00    +0.000 A 
BRANCH  11  18
ATOM     17  N   UNL     1       3.128   1.420  18.178  0.00  0.00    +0.000 NA
ATOM     18  C   UNL     1       3.793   2.279  18.878  0.00  0.00    +0.000 C 
ATOM     19  N   UNL     1       4.847   1.878  19.646  0.00  0.00    +0.000 N 
ATOM     20  H   UNL     1       3.549   0.494  18.267  0.00  0.00    +0.000 HD
ATOM     21  H   UNL     1       4.857   0.891  19.875  0.00  0.00    +0.000 HD
ATOM     22  H   UNL     1       5.023   2.447  20.468  0.00  0.00    +0.000 HD
ENDBRANCH  11  18
ENDBRANCH   7  14
ENDBRANCH   1   8
BRANCH   5  23
ATOM     23  C   UNL     1      -1.339  11.498  19.587  0.00  0.00    +0.000 C 
ATOM     24  O   UNL     1      -2.265  10.973  18.975  0.00  0.00    +0.000 OA
ATOM     25  N   UNL     1      -1.445  12.250  20.745  0.00  0.00    +0.000 N 
ATOM     26  H   UNL     1      -0.600  12.726  21.038  0.00  0.00    +0.000 HD
BRANCH  25  27
ATOM     27  C   UNL     1      -2.627  12.465  21.485  0.00  0.00    +0.000 A 
ATOM     28  C   UNL     1      -3.811  12.933  20.904  0.00  0.00    +0.000 A 
ATOM     29  C   UNL     1      -4.961  13.130  21.673  0.00  0.00    +0.000 A 
ATOM     30  C   UNL     1      -4.945  12.856  23.040  0.00  0.00    +0.000 A 
ATOM     31  C   UNL     1      -3.767  12.390  23.633  0.00  0.00    +0.000 A 
ATOM     32  C   UNL     1      -2.618  12.182  22.856  0.00  0.00    +0.000 A 
BRANCH  30  33
ATOM     33  C   UNL     1      -6.187  13.065  23.836  0.00  0.00    +0.000 C 
ATOM     34  N   UNL     1      -6.999  12.103  24.139  0.00  0.00    +0.000 NA
ATOM     35  N   UNL     1      -6.525  14.308  24.278  0.00  0.00    +0.000 N 
ATOM     36  H   UNL     1      -6.702  11.217  23.721  0.00  0.00    +0.000 HD
ATOM     37  H   UNL     1      -5.761  14.905  24.576  0.00  0.00    +0.000 HD
ATOM     38  H   UNL     1      -7.277  14.262  24.960  0.00  0.00    +0.000 HD
ENDBRANCH  30  33
ENDBRANCH  25  27
ENDBRANCH   5  23
TORSDOF 6
ENDMDL
MODEL 2
REMARK VINA RESULT:      -8.0      1.077      1.570
REMARK  Name = 
REMARK  6 active torsions:
REMARK  status: ('A' for Active; 'I' for Inactive)
REMARK    1  A    between atoms: C_2  and  C_4
REMARK    2  A    between atoms: C_7  and  N_8
REMARK    3  A    between atoms: C_9  and  C_11
REMARK    4  A    between atoms: C_15  and  C_16
REMARK    5  A    between atoms: N_18  and  C_19
REMARK    6  A    between atoms: C_22  and  C_23
REMARK                            x       y       z     vdW  Elec       q    Type
REMARK                         _______ _______ _______ _____ _____    ______ ____
ROOT
ATOM      1  C   UNL     1       1.457  10.052  18.914  0.00  0.00    +0.000 A 
ATOM      2  C   UNL     1       1.989  11.182  18.291  0.00  0.00    +0.000 A 
ATOM      3  C   UNL     1       1.472  12.426  18.612  0.00  0.00    +0.000 A 
ATOM      4  C   UNL     1       0.446  12.501  19.542  0.00  0.00    +0.000 A 
ATOM      5  C   UNL     1      -0.027  11.323  20.124  0.00  0.00    +0.000 A 
ATOM      6  N   UNL     1       0.454  10.078  19.840  0.00  0.00    +0.000 NA
ENDROOT
BRANCH   1   8
ATOM      7  N   UNL     1       2.084   7.803  19.570  0.00  0.00    +0.000 N 
ATOM      8  C   UNL     1       2.004   8.713  18.532  0.00  0.00    +0.000 C 
ATOM      9  O   UNL     1       2.296   8.511  17.357  0.00  0.00    +0.000 OA
ATOM     10  H   UNL     1       1.672   8.102  20.445  0.00  0.00    +0.000 HD
BRANCH   7  14
ATOM     11  C   UNL     1       3.413   3.808  19.301  0.00  0.00    +0.000 A 
ATOM     12  C   UNL     1       4.008   4.785  18.505  0.00  0.00    +0.000 A 
ATOM     13  C   UNL     1       3.581   6.110  18.589  0.00  0.00    +0.000 A 
ATOM     14  C   UNL     1       2.566   6.482  19.474  0.00  0.00    +0.000 A 
ATOM     15  C   UNL     1       2.003   5.506  20.307  0.00  0.00    +0.000 A 
ATOM     16  C   UNL     1       2.413   4.168  20.210  0.00  0.00    +0.000 A 
BRANCH  11  18
ATOM     17  N   UNL     1       4.879   1.982  19.841  0.00  0.00    +0.000 NA
ATOM     18  C   UNL     1       3.858   2.393  19.163  0.00  0.00    +0.000 C 
ATOM     19  N   UNL     1       3.213   1.551  18.306  0.00  0.00    +0.000 N 
ATOM     20  H   UNL     1       5.042   0.990  19.661  0.00  0.00    +0.000 HD
ATOM     21  H   UNL     1       3.753   0.748  18.008  0.00  0.00    +0.000 HD
ATOM     22  H   UNL     1       2.761   2.003  17.516  0.00  0.00    +0.000 HD
ENDBRANCH  11  18
ENDBRANCH   7  14
ENDBRANCH   1   8
BRANCH   5  23
ATOM     23  C   UNL     1      -1.153  11.423  21.104  0.00  0.00    +0.000 C 
ATOM     24  O   UNL     1      -1.095  10.748  22.128  0.00  0.00    +0.000 OA
ATOM     25  N   UNL     1      -2.187  12.266  20.736  0.00  0.00    +0.000 N 
ATOM     26  H   UNL     1      -2.137  12.637  19.796  0.00  0.00    +0.000 HD
BRANCH  25  27
ATOM     27  C   UNL     1      -3.318  12.576  21.521  0.00  0.00    +0.000 A 
ATOM     28  C   UNL     1      -3.246  12.806  22.900  0.00  0.00    +0.000 A 
ATOM     29  C   UNL     1      -4.391  13.113  23.639  0.00  0.00    +0.000 A 
ATOM     30  C   UNL     1      -5.631  13.198  23.007  0.00  0.00    +0.000 A 
ATOM     31  C   UNL     1      -5.718  12.967  21.630  0.00  0.00    +0.000 A 
ATOM     32  C   UNL     1      -4.564  12.672  20.889  0.00  0.00    +0.000 A 
BRANCH  30  33
ATOM     33  C   UNL     1      -6.835  13.537  23.817  0.00  0.00    +0.000 C 
ATOM     34  N   UNL     1      -7.770  12.681  24.079  0.00  0.00    +0.000 NA
ATOM     35  N   UNL     1      -7.001  14.792  24.318  0.00  0.00    +0.000 N 
ATOM     36  H   UNL     1      -7.596  11.784  23.620  0.00  0.00    +0.000 HD
ATOM     37  H   UNL     1      -6.163  15.265  24.640  0.00  0.00    +0.000 HD
ATOM     38  H   UNL     1      -7.754  14.818  25.001  0.00  0.00    +0.000 HD
ENDBRANCH  30  33
ENDBRANCH  25  27
ENDBRANCH   5  23
TORSDOF 6
ENDMDL
MODEL 3
REMARK VINA RESULT:      -7.9      1.158     10.594
REMARK  Name = 
REMARK  6 active torsions:
REMARK  status: ('A' for Active; 'I' for Inactive)
REMARK    1  A    between atoms: C_2  and  C_4
REMARK    2  A    between atoms: C_7  and  N_8
REMARK    3  A    between atoms: C_9  and  C_11
REMARK    4  A    between atoms: C_15  and  C_16
REMARK    5  A    between atoms: N_18  and  C_19
REMARK    6  A    between atoms: C_22  and  C_23
REMARK                            x       y       z     vdW  Elec       q    Type
REMARK                         _______ _______ _______ _____ _____    ______ ____
ROOT
ATOM      1  C   UNL     1       0.008  11.417  20.287  0.00  0.00    +0.000 A 
ATOM      2  C   UNL     1       0.615  12.563  19.771  0.00  0.00    +0.000 A 
ATOM      3  C   UNL     1       1.639  12.418  18.849  0.00  0.00    +0.000 A 
ATOM      4  C   UNL     1       2.021  11.139  18.473  0.00  0.00    +0.000 A 
ATOM      5  C   UNL     1       1.359  10.044  19.033  0.00  0.00    +0.000 A 
ATOM      6  N   UNL     1       0.344  10.140  19.940  0.00  0.00    +0.000 NA
ENDROOT
BRANCH   1   8
ATOM      7  N   UNL     1      -2.206  12.236  20.844  0.00  0.00    +0.000 N 
ATOM      8  C   UNL     1      -1.073  11.590  21.306  0.00  0.00    +0.000 C 
ATOM      9  O   UNL     1      -0.901  11.130  22.430  0.00  0.00    +0.000 OA
ATOM     10  H   UNL     1      -2.224  12.427  19.849  0.00  0.00    +0.000 HD
BRANCH   7  14
ATOM     11  C   UNL     1      -5.720  13.037  23.036  0.00  0.00    +0.000 A 
ATOM     12  C   UNL     1      -4.508  12.895  23.709  0.00  0.00    +0.000 A 
ATOM     13  C   UNL     1      -3.338  12.636  22.995  0.00  0.00    +0.000 A 
ATOM     14  C   UNL     1      -3.358  12.526  21.602  0.00  0.00    +0.000 A 
ATOM     15  C   UNL     1      -4.570  12.717  20.925  0.00  0.00    +0.000 A 
ATOM     16  C   UNL     1      -5.752  12.955  21.640  0.00  0.00    +0.000 A 
BRANCH  11  18
ATOM     17  N   UNL     1      -7.835  12.325  23.926  0.00  0.00    +0.000 NA
ATOM     18  C   UNL     1      -6.961  13.272  23.825  0.00  0.00    +0.000 C 
ATOM     19  N   UNL     1      -7.185  14.485  24.409  0.00  0.00    +0.000 N 
ATOM     20  H   UNL     1      -8.611  12.626  24.517  0.00  0.00    +0.000 HD
ATOM     21  H   UNL     1      -8.155  14.684  24.620  0.00  0.00    +0.000 HD
ATOM     22  H   UNL     1      -6.740  15.273  23.949  0.00  0.00    +0.000 HD
ENDBRANCH  11  18
ENDBRANCH   7  14
ENDBRANCH   1   8
BRANCH   5  23
ATOM     23  C   UNL     1       1.804   8.672  18.635  0.00  0.00    +0.000 C 
ATOM     24  O   UNL     1       1.953   8.432  17.440  0.00  0.00    +0.000 OA
ATOM     25  N   UNL     1       1.979   7.779  19.678  0.00  0.00    +0.000 N 
ATOM     26  H   UNL     1       1.677   8.104  20.588  0.00  0.00    +0.000 HD
BRANCH  25  27
ATOM     27  C   UNL     1       2.456   6.457  19.561  0.00  0.00    +0.000 A 
ATOM     28  C   UNL     1       3.601   6.126  18.827  0.00  0.00    +0.000 A 
ATOM     29  C   UNL     1       4.041   4.802  18.739  0.00  0.00    +0.000 A 
ATOM     30  C   UNL     1       3.342   3.787  19.390  0.00  0.00    +0.000 A 
ATOM     31  C   UNL     1       2.195   4.104  20.125  0.00  0.00    +0.000 A 
ATOM     32  C   UNL     1       1.764   5.436  20.221  0.00  0.00    +0.000 A 
BRANCH  30  33
ATOM     33  C   UNL     1       3.839   2.385  19.288  0.00  0.00    +0.000 C 
ATOM     34  N   UNL     1       3.212   1.462  18.632  0.00  0.00    +0.000 NA
ATOM     35  N   UNL     1       4.997   2.016  19.903  0.00  0.00    +0.000 N 
ATOM     36  H   UNL     1       2.328   1.808  18.252  0.00  0.00    +0.000 HD
ATOM     37  H   UNL     1       5.745   2.700  19.907  0.00  0.00    +0.000 HD
ATOM     38  H   UNL     1       5.303   1.100  19.587  0.00  0.00    +0.000 HD
ENDBRANCH  30  33
ENDBRANCH  25  27
ENDBRANCH   5  23
TORSDOF 6
ENDMDL
MODEL 4
REMARK VINA RESULT:      -7.8      1.105      1.165
REMARK  Name = 
REMARK  6 active torsions:
REMARK  status: ('A' for Active; 'I' for Inactive)
REMARK    1  A    between atoms: C_2  and  C_4
REMARK    2  A    between atoms: C_7  and  N_8
REMARK    3  A    between atoms: C_9  and  C_11
REMARK    4  A    between atoms: C_15  and  C_16
REMARK    5  A    between atoms: N_18  and  C_19
REMARK    6  A    between atoms: C_22  and  C_23
REMARK                            x       y       z     vdW  Elec       q    Type
REMARK                         _______ _______ _______ _____ _____    ______ ____
ROOT
ATOM      1  C   UNL     1       1.424  10.231  18.887  0.00  0.00    +0.000 A 
ATOM      2  C   UNL     1       1.990  11.371  18.314  0.00  0.00    +0.000 A 
ATOM      3  C   UNL     1       1.491  12.614  18.668  0.00  0.00    +0.000 A 
ATOM      4  C   UNL     1       0.448  12.677  19.580  0.00  0.00    +0.000 A 
ATOM      5  C   UNL     1      -0.059  11.490  20.111  0.00  0.00    +0.000 A 
ATOM      6  N   UNL     1       0.403  10.246  19.794  0.00  0.00    +0.000 NA
ENDROOT
BRANCH   1   8
ATOM      7  N   UNL     1       1.999   7.950  19.477  0.00  0.00    +0.000 N 
ATOM      8  C   UNL     1       1.952   8.895  18.468  0.00  0.00    +0.000 C 
ATOM      9  O   UNL     1       2.259   8.727  17.293  0.00  0.00    +0.000 OA
ATOM     10  H   UNL     1       1.578   8.228  20.356  0.00  0.00    +0.000 HD
BRANCH   7  14
ATOM     11  C   UNL     1       3.266   3.942  19.125  0.00  0.00    +0.000 A 
ATOM     12  C   UNL     1       3.677   4.878  18.178  0.00  0.00    +0.000 A 
ATOM     13  C   UNL     1       3.268   6.207  18.287  0.00  0.00    +0.000 A 
ATOM     14  C   UNL     1       2.458   6.624  19.345  0.00  0.00    +0.000 A 
ATOM     15  C   UNL     1       2.086   5.691  20.322  0.00  0.00    +0.000 A 
ATOM     16  C   UNL     1       2.475   4.348  20.204  0.00  0.00    +0.000 A 
BRANCH  11  18
ATOM     17  N   UNL     1       2.958   1.730  18.239  0.00  0.00    +0.000 NA
ATOM     18  C   UNL     1       3.680   2.521  18.963  0.00  0.00    +0.000 C 
ATOM     19  N   UNL     1       4.794   2.053  19.598  0.00  0.00    +0.000 N 
ATOM     20  H   UNL     1       3.385   0.802  18.202  0.00  0.00    +0.000 HD
ATOM     21  H   UNL     1       4.822   1.049  19.727  0.00  0.00    +0.000 HD
ATOM     22  H   UNL     1       5.038   2.540  20.455  0.00  0.00    +0.000 HD
ENDBRANCH  11  18
ENDBRANCH   7  14
ENDBRANCH   1   8
BRANCH   5  23
ATOM     23  C   UNL     1      -1.202  11.579  21.073  0.00  0.00    +0.000 C 
ATOM     24  O   UNL     1      -1.104  10.996  22.149  0.00  0.00    +0.000 OA
ATOM     25  N   UNL     1      -2.295  12.303  20.629  0.00  0.00    +0.000 N 
ATOM     26  H   UNL     1      -2.262  12.599  19.662  0.00  0.00    +0.000 HD
BRANCH  25  27
ATOM     27  C   UNL     1      -3.457  12.584  21.378  0.00  0.00    +0.000 A 
ATOM     28  C   UNL     1      -4.743  12.546  20.826  0.00  0.00    +0.000 A 
ATOM     29  C   UNL     1      -5.869  12.828  21.605  0.00  0.00    +0.000 A 
ATOM     30  C   UNL     1      -5.725  13.152  22.953  0.00  0.00    +0.000 A 
ATOM     31  C   UNL     1      -4.445  13.196  23.516  0.00  0.00    +0.000 A 
ATOM     32  C   UNL     1      -3.319  12.899  22.735  0.00  0.00    +0.000 A 
BRANCH  30  33
ATOM     33  C   UNL     1      -6.942  13.439  23.764  0.00  0.00    +0.000 C 
ATOM     34  N   UNL     1      -7.891  12.575  23.939  0.00  0.00    +0.000 NA
ATOM     35  N   UNL     1      -7.107  14.653  24.358  0.00  0.00    +0.000 N 
ATOM     36  H   UNL     1      -7.715  11.715  23.414  0.00  0.00    +0.000 HD
ATOM     37  H   UNL     1      -6.272  15.091  24.732  0.00  0.00    +0.000 HD
ATOM     38  H   UNL     1      -7.873  14.634  25.026  0.00  0.00    +0.000 HD
ENDBRANCH  30  33
ENDBRANCH  25  27
ENDBRANCH   5  23
TORSDOF 6
ENDMDL
MODEL 5
REMARK VINA RESULT:      -7.8      1.625     10.973
REMARK  Name = 
REMARK  6 active torsions:
REMARK  status: ('A' for Active; 'I' for Inactive)
REMARK    1  A    between atoms: C_2  and  C_4
REMARK    2  A    between atoms: C_7  and  N_8
REMARK    3  A    between atoms: C_9  and  C_11
REMARK    4  A    between atoms: C_15  and  C_16
REMARK    5  A    between atoms: N_18  and  C_19
REMARK    6  A    between atoms: C_22  and  C_23
REMARK                            x       y       z     vdW  Elec       q    Type
REMARK                         _______ _______ _______ _____ _____    ______ ____
ROOT
ATOM      1  C   UNL     1       0.357  11.292  20.164  0.00  0.00    +0.000 A 
ATOM      2  C   UNL     1       0.753  11.879  18.961  0.00  0.00    +0.000 A 
ATOM      3  C   UNL     1       1.483  11.123  18.058  0.00  0.00    +0.000 A 
ATOM      4  C   UNL     1       1.792   9.811  18.385  0.00  0.00    +0.000 A 
ATOM      5  C   UNL     1       1.354   9.297  19.607  0.00  0.00    +0.000 A 
ATOM      6  N   UNL     1       0.630  10.003  20.523  0.00  0.00    +0.000 NA
ENDROOT
BRANCH   1   8
ATOM      7  N   UNL     1      -1.777  12.086  20.999  0.00  0.00    +0.000 N 
ATOM      8  C   UNL     1      -0.402  12.132  21.142  0.00  0.00    +0.000 C 
ATOM      9  O   UNL     1       0.225  12.750  21.997  0.00  0.00    +0.000 OA
ATOM     10  H   UNL     1      -2.123  11.416  20.323  0.00  0.00    +0.000 HD
BRANCH   7  14
ATOM     11  C   UNL     1      -4.636  14.216  23.254  0.00  0.00    +0.000 A 
ATOM     12  C   UNL     1      -4.092  13.040  23.768  0.00  0.00    +0.000 A 
ATOM     13  C   UNL     1      -3.142  12.331  23.034  0.00  0.00    +0.000 A 
ATOM     14  C   UNL     1      -2.712  12.787  21.786  0.00  0.00    +0.000 A 
ATOM     15  C   UNL     1      -3.226  13.994  21.293  0.00  0.00    +0.000 A 
ATOM     16  C   UNL     1      -4.198  14.700  22.017  0.00  0.00    +0.000 A 
BRANCH  11  18
ATOM     17  N   UNL     1      -5.412  16.097  24.531  0.00  0.00    +0.000 NA
ATOM     18  C   UNL     1      -5.680  14.933  24.038  0.00  0.00    +0.000 C 
ATOM     19  N   UNL     1      -6.894  14.351  24.258  0.00  0.00    +0.000 N 
ATOM     20  H   UNL     1      -6.231  16.470  25.014  0.00  0.00    +0.000 HD
ATOM     21  H   UNL     1      -7.404  14.716  25.053  0.00  0.00    +0.000 HD
ATOM     22  H   UNL     1      -6.892  13.336  24.258  0.00  0.00    +0.000 HD
ENDBRANCH  11  18
ENDBRANCH   7  14
ENDBRANCH   1   8
BRANCH   5  23
ATOM     23  C   UNL     1       1.720   7.888  19.951  0.00  0.00    +0.000 C 
ATOM     24  O   UNL     1       1.333   7.431  21.023  0.00  0.00    +0.000 OA
ATOM     25  N   UNL     1       2.503   7.233  19.016  0.00  0.00    +0.000 N 
ATOM     26  H   UNL     1       2.846   7.804  18.254  0.00  0.00    +0.000 HD
BRANCH  25  27
ATOM     27  C   UNL     1       2.916   5.885  19.084  0.00  0.00    +0.000 A 
ATOM     28  C   UNL     1       2.016   4.813  19.050  0.00  0.00    +0.000 A 
ATOM     29  C   UNL     1       2.468   3.492  19.117  0.00  0.00    +0.000 A 
ATOM     30  C   UNL     1       3.832   3.223  19.217  0.00  0.00    +0.000 A 
ATOM     31  C   UNL     1       4.741   4.285  19.255  0.00  0.00    +0.000 A 
ATOM     32  C   UNL     1       4.285   5.610  19.175  0.00  0.00    +0.000 A 
BRANCH  30  33
ATOM     33  C   UNL     1       4.288   1.806  19.277  0.00  0.00    +0.000 C 
ATOM     34  N   UNL     1       3.885   0.901  18.444  0.00  0.00    +0.000 NA
ATOM     35  N   UNL     1       5.164   1.401  20.239  0.00  0.00    +0.000 N 
ATOM     36  H   UNL     1       3.189   1.274  17.794  0.00  0.00    +0.000 HD
ATOM     37  H   UNL     1       5.890   2.060  20.496  0.00  0.00    +0.000 HD
ATOM     38  H   UNL     1       5.528   0.474  20.036  0.00  0.00    +0.000 HD
ENDBRANCH  30  33
ENDBRANCH  25  27
ENDBRANCH   5  23
TORSDOF 6
ENDMDL
MODEL 6
REMARK VINA RESULT:      -7.7      1.572     11.003
REMARK  Name = 
REMARK  6 active torsions:
REMARK  status: ('A' for Active; 'I' for Inactive)
REMARK    1  A    between atoms: C_2  and  C_4
REMARK    2  A    between atoms: C_7  and  N_8
REMARK    3  A    between atoms: C_9  and  C_11
REMARK    4  A    between atoms: C_15  and  C_16
REMARK    5  A    between atoms: N_18  and  C_19
REMARK    6  A    between atoms: C_22  and  C_23
REMARK                            x       y       z     vdW  Elec       q    Type
REMARK                         _______ _______ _______ _____ _____    ______ ____
ROOT
ATOM      1  C   UNL     1       0.353  11.204  20.116  0.00  0.00    +0.000 A 
ATOM      2  C   UNL     1       0.699  11.792  18.898  0.00  0.00    +0.000 A 
ATOM      3  C   UNL     1       1.428  11.051  17.983  0.00  0.00    +0.000 A 
ATOM      4  C   UNL     1       1.786   9.752  18.312  0.00  0.00    +0.000 A 
ATOM      5  C   UNL     1       1.396   9.236  19.549  0.00  0.00    +0.000 A 
ATOM      6  N   UNL     1       0.675   9.928  20.479  0.00  0.00    +0.000 NA
ENDROOT
BRANCH   1   8
ATOM      7  N   UNL     1      -1.778  12.032  20.927  0.00  0.00    +0.000 N 
ATOM      8  C   UNL     1      -0.406  12.030  21.106  0.00  0.00    +0.000 C 
ATOM      9  O   UNL     1       0.217  12.595  22.000  0.00  0.00    +0.000 OA
ATOM     10  H   UNL     1      -2.126  11.399  20.217  0.00  0.00    +0.000 HD
BRANCH   7  14
ATOM     11  C   UNL     1      -4.647  14.133  23.196  0.00  0.00    +0.000 A 
ATOM     12  C   UNL     1      -3.905  13.118  23.797  0.00  0.00    +0.000 A 
ATOM     13  C   UNL     1      -2.950  12.420  23.059  0.00  0.00    +0.000 A 
ATOM     14  C   UNL     1      -2.712  12.731  21.718  0.00  0.00    +0.000 A 
ATOM     15  C   UNL     1      -3.427  13.783  21.130  0.00  0.00    +0.000 A 
ATOM     16  C   UNL     1      -4.404  14.472  21.861  0.00  0.00    +0.000 A 
BRANCH  11  18
ATOM     17  N   UNL     1      -5.412  15.973  24.539  0.00  0.00    +0.000 NA
ATOM     18  C   UNL     1      -5.691  14.834  23.994  0.00  0.00    +0.000 C 
ATOM     19  N   UNL     1      -6.918  14.265  24.171  0.00  0.00    +0.000 N 
ATOM     20  H   UNL     1      -6.232  16.339  25.026  0.00  0.00    +0.000 HD
ATOM     21  H   UNL     1      -7.435  14.606  24.973  0.00  0.00    +0.000 HD
ATOM     22  H   UNL     1      -6.933  13.251  24.129  0.00  0.00    +0.000 HD
ENDBRANCH  11  18
ENDBRANCH   7  14
ENDBRANCH   1   8
BRANCH   5  23
ATOM     23  C   UNL     1       1.814   7.842  19.896  0.00  0.00    +0.000 C 
ATOM     24  O   UNL     1       1.477   7.387  20.985  0.00  0.00    +0.000 OA
ATOM     25  N   UNL     1       2.585   7.200  18.942  0.00  0.00    +0.000 N 
ATOM     26  H   UNL     1       2.886   7.772  18.163  0.00  0.00    +0.000 HD
BRANCH  25  27
ATOM     27  C   UNL     1       3.039   5.866  19.010  0.00  0.00    +0.000 A 
ATOM     28  C   UNL     1       4.359   5.529  19.329  0.00  0.00    +0.000 A 
ATOM     29  C   UNL     1       4.767   4.193  19.388  0.00  0.00    +0.000 A 
ATOM     30  C   UNL     1       3.856   3.171  19.130  0.00  0.00    +0.000 A 
ATOM     31  C   UNL     1       2.534   3.494  18.807  0.00  0.00    +0.000 A 
ATOM     32  C   UNL     1       2.125   4.835  18.761  0.00  0.00    +0.000 A 
BRANCH  30  33
ATOM     33  C   UNL     1       4.314   1.755  19.210  0.00  0.00    +0.000 C 
ATOM     34  N   UNL     1       5.142   1.333  20.110  0.00  0.00    +0.000 NA
ATOM     35  N   UNL     1       3.869   0.832  18.312  0.00  0.00    +0.000 N 
ATOM     36  H   UNL     1       5.469   2.097  20.706  0.00  0.00    +0.000 HD
ATOM     37  H   UNL     1       2.903   0.919  18.015  0.00  0.00    +0.000 HD
ATOM     38  H   UNL     1       4.108  -0.111  18.606  0.00  0.00    +0.000 HD
ENDBRANCH  30  33
ENDBRANCH  25  27
ENDBRANCH   5  23
TORSDOF 6
ENDMDL
MODEL 7
REMARK VINA RESULT:      -7.7      1.613      2.077
REMARK  Name = 
REMARK  6 active torsions:
REMARK  status: ('A' for Active; 'I' for Inactive)
REMARK    1  A    between atoms: C_2  and  C_4
REMARK    2  A    between atoms: C_7  and  N_8
REMARK    3  A    between atoms: C_9  and  C_11
REMARK    4  A    between atoms: C_15  and  C_16
REMARK    5  A    between atoms: N_18  and  C_19
REMARK    6  A    between atoms: C_22  and  C_23
REMARK                            x       y       z     vdW  Elec       q    Type
REMARK                         _______ _______ _______ _____ _____    ______ ____
ROOT
ATOM      1  C   UNL     1       1.461   9.201  19.565  0.00  0.00    +0.000 A 
ATOM      2  C   UNL     1       1.820   9.660  18.297  0.00  0.00    +0.000 A 
ATOM      3  C   UNL     1       1.471  10.950  17.931  0.00  0.00    +0.000 A 
ATOM      4  C   UNL     1       0.780  11.736  18.840  0.00  0.00    +0.000 A 
ATOM      5  C   UNL     1       0.463  11.204  20.091  0.00  0.00    +0.000 A 
ATOM      6  N   UNL     1       0.789   9.941  20.495  0.00  0.00    +0.000 NA
ENDROOT
BRANCH   1   8
ATOM      7  N   UNL     1       2.565   7.121  18.984  0.00  0.00    +0.000 N 
ATOM      8  C   UNL     1       1.816   7.795  19.932  0.00  0.00    +0.000 C 
ATOM      9  O   UNL     1       1.463   7.366  21.026  0.00  0.00    +0.000 OA
ATOM     10  H   UNL     1       2.878   7.679  18.198  0.00  0.00    +0.000 HD
BRANCH   7  14
ATOM     11  C   UNL     1       3.848   3.109  19.198  0.00  0.00    +0.000 A 
ATOM     12  C   UNL     1       4.772   4.136  19.380  0.00  0.00    +0.000 A 
ATOM     13  C   UNL     1       4.359   5.466  19.317  0.00  0.00    +0.000 A 
ATOM     14  C   UNL     1       3.020   5.792  19.085  0.00  0.00    +0.000 A 
ATOM     15  C   UNL     1       2.086   4.756  18.950  0.00  0.00    +0.000 A 
ATOM     16  C   UNL     1       2.500   3.417  18.989  0.00  0.00    +0.000 A 
BRANCH  11  18
ATOM     17  N   UNL     1       5.134   1.322  20.161  0.00  0.00    +0.000 NA
ATOM     18  C   UNL     1       4.322   1.697  19.228  0.00  0.00    +0.000 C 
ATOM     19  N   UNL     1       3.926   0.819  18.262  0.00  0.00    +0.000 N 
ATOM     20  H   UNL     1       5.344   0.327  20.064  0.00  0.00    +0.000 HD
ATOM     21  H   UNL     1       4.530   0.015  18.142  0.00  0.00    +0.000 HD
ATOM     22  H   UNL     1       3.692   1.239  17.368  0.00  0.00    +0.000 HD
ENDBRANCH  11  18
ENDBRANCH   7  14
ENDBRANCH   1   8
BRANCH   5  23
ATOM     23  C   UNL     1      -0.307  12.059  21.047  0.00  0.00    +0.000 C 
ATOM     24  O   UNL     1       0.320  12.749  21.846  0.00  0.00    +0.000 OA
ATOM     25  N   UNL     1      -1.685  11.962  20.953  0.00  0.00    +0.000 N 
ATOM     26  H   UNL     1      -2.032  11.241  20.333  0.00  0.00    +0.000 HD
BRANCH  25  27
ATOM     27  C   UNL     1      -2.617  12.716  21.696  0.00  0.00    +0.000 A 
ATOM     28  C   UNL     1      -3.270  13.841  21.177  0.00  0.00    +0.000 A 
ATOM     29  C   UNL     1      -4.190  14.558  21.946  0.00  0.00    +0.000 A 
ATOM     30  C   UNL     1      -4.474  14.158  23.251  0.00  0.00    +0.000 A 
ATOM     31  C   UNL     1      -3.828  13.037  23.782  0.00  0.00    +0.000 A 
ATOM     32  C   UNL     1      -2.914  12.312  23.003  0.00  0.00    +0.000 A 
BRANCH  30  33
ATOM     33  C   UNL     1      -5.467  14.934  24.047  0.00  0.00    +0.000 C 
ATOM     34  N   UNL     1      -5.186  16.064  24.612  0.00  0.00    +0.000 NA
ATOM     35  N   UNL     1      -6.735  14.468  24.215  0.00  0.00    +0.000 N 
ATOM     36  H   UNL     1      -4.202  16.312  24.484  0.00  0.00    +0.000 HD
ATOM     37  H   UNL     1      -7.151  13.991  23.423  0.00  0.00    +0.000 HD
ATOM     38  H   UNL     1      -7.341  15.185  24.605  0.00  0.00    +0.000 HD
ENDBRANCH  30  33
ENDBRANCH  25  27
ENDBRANCH   5  23
TORSDOF 6
ENDMDL
MODEL 8
REMARK VINA RESULT:      -7.7      0.618     10.491
REMARK  Name = 
REMARK  6 active torsions:
REMARK  status: ('A' for Active; 'I' for Inactive)
REMARK    1  A    between atoms: C_2  and  C_4
REMARK    2  A    between atoms: C_7  and  N_8
REMARK    3  A    between atoms: C_9  and  C_11
REMARK    4  A    between atoms: C_15  and  C_16
REMARK    5  A    between atoms: N_18  and  C_19
REMARK    6  A    between atoms: C_22  and  C_23
REMARK                            x       y       z     vdW  Elec       q    Type
REMARK                         _______ _______ _______ _____ _____    ______ ____
ROOT
ATOM      1  C   UNL     1      -0.197  11.390  19.124  0.00  0.00    +0.000 A 
ATOM      2  C   UNL     1       0.588  12.528  18.928  0.00  0.00    +0.000 A 
ATOM      3  C   UNL     1       1.887  12.372  18.474  0.00  0.00    +0.000 A 
ATOM      4  C   UNL     1       2.358  11.091  18.231  0.00  0.00    +0.000 A 
ATOM      5  C   UNL     1       1.508  10.004  18.447  0.00  0.00    +0.000 A 
ATOM      6  N   UNL     1       0.221  10.112  18.890  0.00  0.00    +0.000 NA
ENDROOT
BRANCH   1   8
ATOM      7  N   UNL     1      -1.664  12.214  20.870  0.00  0.00    +0.000 N 
ATOM      8  C   UNL     1      -1.587  11.574  19.647  0.00  0.00    +0.000 C 
ATOM      9  O   UNL     1      -2.528  11.192  18.960  0.00  0.00    +0.000 OA
ATOM     10  H   UNL     1      -0.789  12.579  21.228  0.00  0.00    +0.000 HD
BRANCH   7  14
ATOM     11  C   UNL     1      -5.142  13.111  23.083  0.00  0.00    +0.000 A 
ATOM     12  C   UNL     1      -5.122  13.346  21.710  0.00  0.00    +0.000 A 
ATOM     13  C   UNL     1      -3.980  13.049  20.967  0.00  0.00    +0.000 A 
ATOM     14  C   UNL     1      -2.849  12.503  21.578  0.00  0.00    +0.000 A 
ATOM     15  C   UNL     1      -2.889  12.223  22.950  0.00  0.00    +0.000 A 
ATOM     16  C   UNL     1      -4.026  12.542  23.706  0.00  0.00    +0.000 A 
BRANCH  11  18
ATOM     17  N   UNL     1      -7.216  12.559  24.162  0.00  0.00    +0.000 NA
ATOM     18  C   UNL     1      -6.358  13.477  23.861  0.00  0.00    +0.000 C 
ATOM     19  N   UNL     1      -6.577  14.774  24.224  0.00  0.00    +0.000 N 
ATOM     20  H   UNL     1      -7.976  12.957  24.717  0.00  0.00    +0.000 HD
ATOM     21  H   UNL     1      -7.542  15.002  24.431  0.00  0.00    +0.000 HD
ATOM     22  H   UNL     1      -6.157  15.469  23.615  0.00  0.00    +0.000 HD
ENDBRANCH  11  18
ENDBRANCH   7  14
ENDBRANCH   1   8
BRANCH   5  23
ATOM     23  C   UNL     1       2.043   8.629  18.204  0.00  0.00    +0.000 C 
ATOM     24  O   UNL     1       2.414   8.340  17.070  0.00  0.00    +0.000 OA
ATOM     25  N   UNL     1       2.040   7.788  19.303  0.00  0.00    +0.000 N 
ATOM     26  H   UNL     1       1.570   8.144  20.127  0.00  0.00    +0.000 HD
BRANCH  25  27
ATOM     27  C   UNL     1       2.555   6.475  19.340  0.00  0.00    +0.000 A 
ATOM     28  C   UNL     1       1.822   5.385  19.822  0.00  0.00    +0.000 A 
ATOM     29  C   UNL     1       2.370   4.099  19.838  0.00  0.00    +0.000 A 
ATOM     30  C   UNL     1       3.664   3.884  19.367  0.00  0.00    +0.000 A 
ATOM     31  C   UNL     1       4.409   4.966  18.885  0.00  0.00    +0.000 A 
ATOM     32  C   UNL     1       3.851   6.252  18.859  0.00  0.00    +0.000 A 
BRANCH  30  33
ATOM     33  C   UNL     1       4.221   2.502  19.386  0.00  0.00    +0.000 C 
ATOM     34  N   UNL     1       5.093   2.106  20.257  0.00  0.00    +0.000 NA
ATOM     35  N   UNL     1       3.827   1.585  18.459  0.00  0.00    +0.000 N 
ATOM     36  H   UNL     1       5.375   2.869  20.877  0.00  0.00    +0.000 HD
ATOM     37  H   UNL     1       2.852   1.614  18.180  0.00  0.00    +0.000 HD
ATOM     38  H   UNL     1       4.136   0.650  18.714  0.00  0.00    +0.000 HD
ENDBRANCH  30  33
ENDBRANCH  25  27
ENDBRANCH   5  23
TORSDOF 6
ENDMDL
MODEL 9
REMARK VINA RESULT:      -7.7      0.861      1.463
REMARK  Name = 
REMARK  6 active torsions:
REMARK  status: ('A' for Active; 'I' for Inactive)
REMARK    1  A    between atoms: C_2  and  C_4
REMARK    2  A    between atoms: C_7  and  N_8
REMARK    3  A    between atoms: C_9  and  C_11
REMARK    4  A    between atoms: C_15  and  C_16
REMARK    5  A    between atoms: N_18  and  C_19
REMARK    6  A    between atoms: C_22  and  C_23
REMARK                            x       y       z     vdW  Elec       q    Type
REMARK                         _______ _______ _______ _____ _____    ______ ____
ROOT
ATOM      1  C   UNL     1       1.720   9.724  18.700  0.00  0.00    +0.000 A 
ATOM      2  C   UNL     1       2.283  10.839  18.076  0.00  0.00    +0.000 A 
ATOM      3  C   UNL     1       1.797  12.097  18.394  0.00  0.00    +0.000 A 
ATOM      4  C   UNL     1       0.770  12.200  19.320  0.00  0.00    +0.000 A 
ATOM      5  C   UNL     1       0.266  11.036  19.903  0.00  0.00    +0.000 A 
ATOM      6  N   UNL     1       0.715   9.778  19.623  0.00  0.00    +0.000 NA
ENDROOT
BRANCH   1   8
ATOM      7  N   UNL     1       2.257   7.451  19.355  0.00  0.00    +0.000 N 
ATOM      8  C   UNL     1       2.233   8.371  18.322  0.00  0.00    +0.000 C 
ATOM      9  O   UNL     1       2.549   8.168  17.154  0.00  0.00    +0.000 OA
ATOM     10  H   UNL     1       1.832   7.758  20.222  0.00  0.00    +0.000 HD
BRANCH   7  14
ATOM     11  C   UNL     1       3.661   3.478  19.164  0.00  0.00    +0.000 A 
ATOM     12  C   UNL     1       2.306   3.738  18.964  0.00  0.00    +0.000 A 
ATOM     13  C   UNL     1       1.831   5.048  19.019  0.00  0.00    +0.000 A 
ATOM     14  C   UNL     1       2.698   6.116  19.262  0.00  0.00    +0.000 A 
ATOM     15  C   UNL     1       4.067   5.856  19.415  0.00  0.00    +0.000 A 
ATOM     16  C   UNL     1       4.546   4.538  19.383  0.00  0.00    +0.000 A 
BRANCH  11  18
ATOM     17  N   UNL     1       5.066   1.700  19.961  0.00  0.00    +0.000 NA
ATOM     18  C   UNL     1       4.136   2.067  19.142  0.00  0.00    +0.000 C 
ATOM     19  N   UNL     1       3.616   1.181  18.245  0.00  0.00    +0.000 N 
ATOM     20  H   UNL     1       5.262   0.704  19.845  0.00  0.00    +0.000 HD
ATOM     21  H   UNL     1       4.199   0.375  18.052  0.00  0.00    +0.000 HD
ATOM     22  H   UNL     1       3.264   1.593  17.386  0.00  0.00    +0.000 HD
ENDBRANCH  11  18
ENDBRANCH   7  14
ENDBRANCH   1   8
BRANCH   5  23
ATOM     23  C   UNL     1      -0.860  11.167  20.880  0.00  0.00    +0.000 C 
ATOM     24  O   UNL     1      -0.892  10.400  21.838  0.00  0.00    +0.000 OA
ATOM     25  N   UNL     1      -1.792  12.146  20.583  0.00  0.00    +0.000 N 
ATOM     26  H   UNL     1      -1.687  12.593  19.681  0.00  0.00    +0.000 HD
BRANCH  25  27
ATOM     27  C   UNL     1      -2.897  12.503  21.384  0.00  0.00    +0.000 A 
ATOM     28  C   UNL     1      -2.791  12.753  22.757  0.00  0.00    +0.000 A 
ATOM     29  C   UNL     1      -3.911  13.107  23.513  0.00  0.00    +0.000 A 
ATOM     30  C   UNL     1      -5.160  13.220  22.905  0.00  0.00    +0.000 A 
ATOM     31  C   UNL     1      -5.281  12.970  21.534  0.00  0.00    +0.000 A 
ATOM     32  C   UNL     1      -4.152  12.628  20.775  0.00  0.00    +0.000 A 
BRANCH  30  33
ATOM     33  C   UNL     1      -6.337  13.608  23.732  0.00  0.00    +0.000 C 
ATOM     34  N   UNL     1      -6.433  14.755  24.325  0.00  0.00    +0.000 NA
ATOM     35  N   UNL     1      -7.378  12.746  23.902  0.00  0.00    +0.000 N 
ATOM     36  H   UNL     1      -5.588  15.316  24.193  0.00  0.00    +0.000 HD
ATOM     37  H   UNL     1      -7.629  12.177  23.102  0.00  0.00    +0.000 HD
ATOM     38  H   UNL     1      -8.178  13.215  24.318  0.00  0.00    +0.000 HD
ENDBRANCH  30  33
ENDBRANCH  25  27
ENDBRANCH   5  23
TORSDOF 6
ENDMDL
