MODEL 1
REMARK VINA RESULT:      -9.0      0.000      0.000
REMARK  Name = 
REMARK  4 active torsions:
REMARK  status: ('A' for Active; 'I' for Inactive)
REMARK    1  A    between atoms: C_1  and  C_2
REMARK    2  A    between atoms: C_5  and  C_6
REMARK    3  A    between atoms: C_6  and  N_7
REMARK    4  A    between atoms: C_12  and  C_14
REMARK                            x       y       z     vdW  Elec       q    Type
REMARK                         _______ _______ _______ _____ _____    ______ ____
ROOT
ATOM      1  N   UNL     1       6.450   5.781  17.209  0.00  0.00    +0.000 N 
ATOM      2  C   UNL     1       7.058   5.009  18.158  0.00  0.00    +0.000 A 
ATOM      3  C   UNL     1       7.914   5.849  18.823  0.00  0.00    +0.000 A 
ATOM      4  C   UNL     1       7.779   7.118  18.201  0.00  0.00    +0.000 A 
ATOM      5  N   UNL     1       8.479   8.222  18.635  0.00  0.00    +0.000 N 
ATOM      6  C   UNL     1       8.468   9.519  18.148  0.00  0.00    +0.000 C 
ATOM      7  O   UNL     1       7.930   9.938  17.139  0.00  0.00    +0.000 OA
ATOM      8  N   UNL     1       6.874   7.068  17.216  0.00  0.00    +0.000 NA
ATOM      9  H   UNL     1       9.036   8.083  19.465  0.00  0.00    +0.000 HD
ENDROOT
BRANCH   6  10
ATOM     10  C   UNL     1       9.222  10.410  19.072  0.00  0.00    +0.000 A 
ATOM     11  N   UNL     1       8.968  10.288  20.391  0.00  0.00    +0.000 NA
ATOM     12  O   UNL     1       9.681  11.266  21.012  0.00  0.00    +0.000 OA
ATOM     13  C   UNL     1      10.382  11.980  20.100  0.00  0.00    +0.000 A 
ATOM     14  C   UNL     1      10.208  11.448  18.841  0.00  0.00    +0.000 A 
ATOM     15  C   UNL     1      10.906  11.766  17.551  0.00  0.00    +0.000 C 
ATOM     16  C   UNL     1      11.514  13.135  17.218  0.00  0.00    +0.000 C 
ATOM     17  C   UNL     1      12.194  14.067  18.213  0.00  0.00    +0.000 C 
ATOM     18  C   UNL     1      11.811  14.053  19.715  0.00  0.00    +0.000 C 
ATOM     19  C   UNL     1      11.114  13.097  20.705  0.00  0.00    +0.000 C 
ENDBRANCH   6  10
BRANCH   1  20
ATOM     20  C   UNL     1       5.316   5.370  16.383  0.00  0.00    +0.000 C 
BRANCH  20  25
ATOM     21  C   UNL     1       0.840   2.894  19.187  0.00  0.00    +0.000 C 
ATOM     22  C   UNL     1       2.010   3.543  18.512  0.00  0.00    +0.000 A 
ATOM     23  C   UNL     1       2.195   4.929  18.552  0.00  0.00    +0.000 A 
ATOM     24  C   UNL     1       3.279   5.522  17.889  0.00  0.00    +0.000 A 
ATOM     25  C   UNL     1       4.196   4.734  17.175  0.00  0.00    +0.000 A 
ATOM     26  C   UNL     1       4.009   3.349  17.146  0.00  0.00    +0.000 A 
ATOM     27  C   UNL     1       2.929   2.759  17.806  0.00  0.00    +0.000 A 
ENDBRANCH  20  25
ENDBRANCH   1  20
TORSDOF 3
ENDMDL
MODEL 2
REMARK VINA RESULT:      -9.0      0.468      1.054
REMARK  Name = 
REMARK  4 active torsions:
REMARK  status: ('A' for Active; 'I' for Inactive)
REMARK    1  A    between atoms: C_1  and  C_2
REMARK    2  A    between atoms: C_5  and  C_6
REMARK    3  A    between atoms: C_6  and  N_7
REMARK    4  A    between atoms: C_12  and  C_14
REMARK                            x       y       z     vdW  Elec       q    Type
REMARK                         _______ _______ _______ _____ _____    ______ ____
ROOT
ATOM      1  N   UNL     1       6.440   5.854  17.314  0.00  0.00    +0.000 N 
ATOM      2  C   UNL     1       7.112   5.082  18.218  0.00  0.00    +0.000 A 
ATOM      3  C   UNL     1       7.999   5.926  18.838  0.00  0.00    +0.000 A 
ATOM      4  C   UNL     1       7.813   7.198  18.235  0.00  0.00    +0.000 A 
ATOM      5  N   UNL     1       8.527   8.306  18.635  0.00  0.00    +0.000 N 
ATOM      6  C   UNL     1       8.474   9.606  18.160  0.00  0.00    +0.000 C 
ATOM      7  O   UNL     1       7.872  10.027  17.189  0.00  0.00    +0.000 OA
ATOM      8  N   UNL     1       6.851   7.146  17.306  0.00  0.00    +0.000 NA
ATOM      9  H   UNL     1       9.135   8.166  19.429  0.00  0.00    +0.000 HD
ENDROOT
BRANCH   6  10
ATOM     10  C   UNL     1       9.274  10.498  19.045  0.00  0.00    +0.000 A 
ATOM     11  N   UNL     1       9.059  10.404  20.373  0.00  0.00    +0.000 NA
ATOM     12  O   UNL     1       9.810  11.378  20.954  0.00  0.00    +0.000 OA
ATOM     13  C   UNL     1      10.494  12.062  20.008  0.00  0.00    +0.000 A 
ATOM     14  C   UNL     1      10.272  11.512  18.764  0.00  0.00    +0.000 A 
ATOM     15  C   UNL     1      10.934  11.795  17.448  0.00  0.00    +0.000 C 
ATOM     16  C   UNL     1      11.558  13.146  17.072  0.00  0.00    +0.000 C 
ATOM     17  C   UNL     1      12.286  14.081  18.029  0.00  0.00    +0.000 C 
ATOM     18  C   UNL     1      11.950  14.101  19.542  0.00  0.00    +0.000 C 
ATOM     19  C   UNL     1      11.266  13.175  20.570  0.00  0.00    +0.000 C 
ENDBRANCH   6  10
BRANCH   1  20
ATOM     20  C   UNL     1       5.263   5.438  16.555  0.00  0.00    +0.000 C 
BRANCH  20  25
ATOM     21  C   UNL     1       0.910   3.979  20.154  0.00  0.00    +0.000 C 
ATOM     22  C   UNL     1       1.997   4.346  19.189  0.00  0.00    +0.000 A 
ATOM     23  C   UNL     1       2.572   3.390  18.345  0.00  0.00    +0.000 A 
ATOM     24  C   UNL     1       3.609   3.745  17.470  0.00  0.00    +0.000 A 
ATOM     25  C   UNL     1       4.087   5.065  17.428  0.00  0.00    +0.000 A 
ATOM     26  C   UNL     1       3.502   6.016  18.270  0.00  0.00    +0.000 A 
ATOM     27  C   UNL     1       2.470   5.662  19.141  0.00  0.00    +0.000 A 
ENDBRANCH  20  25
ENDBRANCH   1  20
TORSDOF 3
ENDMDL
MODEL 3
REMARK VINA RESULT:      -8.5      1.074      1.120
REMARK  Name = 
REMARK  4 active torsions:
REMARK  status: ('A' for Active; 'I' for Inactive)
REMARK    1  A    between atoms: C_1  and  C_2
REMARK    2  A    between atoms: C_5  and  C_6
REMARK    3  A    between atoms: C_6  and  N_7
REMARK    4  A    between atoms: C_12  and  C_14
REMARK                            x       y       z     vdW  Elec       q    Type
REMARK                         _______ _______ _______ _____ _____    ______ ____
ROOT
ATOM      1  N   UNL     1       6.916   6.418  17.110  0.00  0.00    +0.000 N 
ATOM      2  C   UNL     1       7.462   5.665  18.111  0.00  0.00    +0.000 A 
ATOM      3  C   UNL     1       8.203   6.538  18.867  0.00  0.00    +0.000 A 
ATOM      4  C   UNL     1       8.068   7.807  18.244  0.00  0.00    +0.000 A 
ATOM      5  N   UNL     1       8.664   8.938  18.755  0.00  0.00    +0.000 N 
ATOM      6  C   UNL     1       8.638  10.239  18.279  0.00  0.00    +0.000 C 
ATOM      7  O   UNL     1       8.185  10.643  17.223  0.00  0.00    +0.000 OA
ATOM      8  N   UNL     1       7.272   7.724  17.170  0.00  0.00    +0.000 NA
ATOM      9  H   UNL     1       9.140   8.816  19.636  0.00  0.00    +0.000 HD
ENDROOT
BRANCH   6  10
ATOM     10  C   UNL     1       9.248  11.154  19.283  0.00  0.00    +0.000 A 
ATOM     11  N   UNL     1       9.307  10.720  20.558  0.00  0.00    +0.000 NA
ATOM     12  O   UNL     1       9.794  11.756  21.294  0.00  0.00    +0.000 OA
ATOM     13  C   UNL     1      10.048  12.816  20.492  0.00  0.00    +0.000 A 
ATOM     14  C   UNL     1       9.803  12.490  19.176  0.00  0.00    +0.000 A 
ATOM     15  C   UNL     1      10.102  13.251  17.918  0.00  0.00    +0.000 C 
ATOM     16  C   UNL     1      10.183  14.782  17.838  0.00  0.00    +0.000 C 
ATOM     17  C   UNL     1      10.725  15.697  18.929  0.00  0.00    +0.000 C 
ATOM     18  C   UNL     1      10.667  15.286  20.422  0.00  0.00    +0.000 C 
ATOM     19  C   UNL     1      10.506  13.989  21.243  0.00  0.00    +0.000 C 
ENDBRANCH   6  10
BRANCH   1  20
ATOM     20  C   UNL     1       5.894   5.962  16.170  0.00  0.00    +0.000 C 
BRANCH  20  25
ATOM     21  C   UNL     1       1.120   3.563  18.510  0.00  0.00    +0.000 C 
ATOM     22  C   UNL     1       2.366   4.186  17.956  0.00  0.00    +0.000 A 
ATOM     23  C   UNL     1       2.639   5.547  18.135  0.00  0.00    +0.000 A 
ATOM     24  C   UNL     1       3.793   6.120  17.583  0.00  0.00    +0.000 A 
ATOM     25  C   UNL     1       4.695   5.338  16.843  0.00  0.00    +0.000 A 
ATOM     26  C   UNL     1       4.418   3.977  16.675  0.00  0.00    +0.000 A 
ATOM     27  C   UNL     1       3.268   3.407  17.224  0.00  0.00    +0.000 A 
ENDBRANCH  20  25
ENDBRANCH   1  20
TORSDOF 3
ENDMDL
MODEL 4
REMARK VINA RESULT:      -8.1      6.018      8.187
REMARK  Name = 
REMARK  4 active torsions:
REMARK  status: ('A' for Active; 'I' for Inactive)
REMARK    1  A    between atoms: C_1  and  C_2
REMARK    2  A    between atoms: C_5  and  C_6
REMARK    3  A    between atoms: C_6  and  N_7
REMARK    4  A    between atoms: C_12  and  C_14
REMARK                            x       y       z     vdW  Elec       q    Type
REMARK                         _______ _______ _______ _____ _____    ______ ____
ROOT
ATOM      1  N   UNL     1       3.504   4.162  19.457  0.00  0.00    +0.000 N 
ATOM      2  C   UNL     1       2.826   3.888  20.610  0.00  0.00    +0.000 A 
ATOM      3  C   UNL     1       2.125   5.030  20.906  0.00  0.00    +0.000 A 
ATOM      4  C   UNL     1       2.448   5.962  19.885  0.00  0.00    +0.000 A 
ATOM      5  N   UNL     1       1.896   7.223  19.847  0.00  0.00    +0.000 N 
ATOM      6  C   UNL     1       2.099   8.246  18.935  0.00  0.00    +0.000 C 
ATOM      7  O   UNL     1       2.918   8.298  18.035  0.00  0.00    +0.000 OA
ATOM      8  N   UNL     1       3.290   5.419  18.997  0.00  0.00    +0.000 NA
ATOM      9  H   UNL     1       1.196   7.410  20.549  0.00  0.00    +0.000 HD
ENDROOT
BRANCH   6  10
ATOM     10  C   UNL     1       1.122   9.343  19.183  0.00  0.00    +0.000 A 
ATOM     11  N   UNL     1       0.892  10.203  18.171  0.00  0.00    +0.000 NA
ATOM     12  O   UNL     1       0.063  11.163  18.664  0.00  0.00    +0.000 OA
ATOM     13  C   UNL     1      -0.231  10.901  19.959  0.00  0.00    +0.000 A 
ATOM     14  C   UNL     1       0.341   9.710  20.348  0.00  0.00    +0.000 A 
ATOM     15  C   UNL     1       0.158   8.914  21.606  0.00  0.00    +0.000 C 
ATOM     16  C   UNL     1      -0.215   9.525  22.964  0.00  0.00    +0.000 C 
ATOM     17  C   UNL     1      -1.145  10.713  23.173  0.00  0.00    +0.000 C 
ATOM     18  C   UNL     1      -1.313  11.802  22.083  0.00  0.00    +0.000 C 
ATOM     19  C   UNL     1      -1.063  11.945  20.566  0.00  0.00    +0.000 C 
ENDBRANCH   6  10
BRANCH   1  20
ATOM     20  C   UNL     1       4.234   3.184  18.652  0.00  0.00    +0.000 C 
BRANCH  20  25
ATOM     21  C   UNL     1       7.388   5.310  14.230  0.00  0.00    +0.000 C 
ATOM     22  C   UNL     1       6.573   4.812  15.385  0.00  0.00    +0.000 A 
ATOM     23  C   UNL     1       7.078   4.827  16.690  0.00  0.00    +0.000 A 
ATOM     24  C   UNL     1       6.313   4.328  17.754  0.00  0.00    +0.000 A 
ATOM     25  C   UNL     1       5.030   3.805  17.528  0.00  0.00    +0.000 A 
ATOM     26  C   UNL     1       4.530   3.801  16.222  0.00  0.00    +0.000 A 
ATOM     27  C   UNL     1       5.292   4.297  15.162  0.00  0.00    +0.000 A 
ENDBRANCH  20  25
ENDBRANCH   1  20
TORSDOF 3
ENDMDL
MODEL 5
REMARK VINA RESULT:      -8.1      6.529     10.258
REMARK  Name = 
REMARK  4 active torsions:
REMARK  status: ('A' for Active; 'I' for Inactive)
REMARK    1  A    between atoms: C_1  and  C_2
REMARK    2  A    between atoms: C_5  and  C_6
REMARK    3  A    between atoms: C_6  and  N_7
REMARK    4  A    between atoms: C_12  and  C_14
REMARK                            x       y       z     vdW  Elec       q    Type
REMARK                         _______ _______ _______ _____ _____    ______ ____
ROOT
ATOM      1  N   UNL     1       0.317  10.717  21.256  0.00  0.00    +0.000 N 
ATOM      2  C   UNL     1       0.283   9.826  22.291  0.00  0.00    +0.000 A 
ATOM      3  C   UNL     1       0.858   8.678  21.808  0.00  0.00    +0.000 A 
ATOM      4  C   UNL     1       1.200   8.950  20.457  0.00  0.00    +0.000 A 
ATOM      5  N   UNL     1       1.830   8.019  19.661  0.00  0.00    +0.000 N 
ATOM      6  C   UNL     1       2.229   8.117  18.338  0.00  0.00    +0.000 C 
ATOM      7  O   UNL     1       1.990   9.011  17.546  0.00  0.00    +0.000 OA
ATOM      8  N   UNL     1       0.870  10.206  20.129  0.00  0.00    +0.000 NA
ATOM      9  H   UNL     1       2.093   7.162  20.124  0.00  0.00    +0.000 HD
ENDROOT
BRANCH   6  10
ATOM     10  C   UNL     1       3.059   6.936  17.974  0.00  0.00    +0.000 A 
ATOM     11  N   UNL     1       4.220   7.172  17.330  0.00  0.00    +0.000 NA
ATOM     12  O   UNL     1       4.738   5.955  17.011  0.00  0.00    +0.000 OA
ATOM     13  C   UNL     1       3.921   4.973  17.458  0.00  0.00    +0.000 A 
ATOM     14  C   UNL     1       2.863   5.510  18.158  0.00  0.00    +0.000 A 
ATOM     15  C   UNL     1       1.810   4.838  18.987  0.00  0.00    +0.000 C 
ATOM     16  C   UNL     1       1.317   3.403  18.753  0.00  0.00    +0.000 C 
ATOM     17  C   UNL     1       2.178   2.238  18.285  0.00  0.00    +0.000 C 
ATOM     18  C   UNL     1       3.438   2.472  17.413  0.00  0.00    +0.000 C 
ATOM     19  C   UNL     1       4.393   3.637  17.077  0.00  0.00    +0.000 C 
ENDBRANCH   6  10
BRANCH   1  20
ATOM     20  C   UNL     1      -0.008  12.139  21.353  0.00  0.00    +0.000 C 
BRANCH  20  25
ATOM     21  C   UNL     1      -5.762  12.891  21.943  0.00  0.00    +0.000 C 
ATOM     22  C   UNL     1      -4.279  12.746  21.774  0.00  0.00    +0.000 A 
ATOM     23  C   UNL     1      -3.691  12.726  20.505  0.00  0.00    +0.000 A 
ATOM     24  C   UNL     1      -2.306  12.559  20.365  0.00  0.00    +0.000 A 
ATOM     25  C   UNL     1      -1.487  12.409  21.496  0.00  0.00    +0.000 A 
ATOM     26  C   UNL     1      -2.082  12.438  22.761  0.00  0.00    +0.000 A 
ATOM     27  C   UNL     1      -3.462  12.604  22.900  0.00  0.00    +0.000 A 
ENDBRANCH  20  25
ENDBRANCH   1  20
TORSDOF 3
ENDMDL
MODEL 6
REMARK VINA RESULT:      -8.0      6.209      8.378
REMARK  Name = 
REMARK  4 active torsions:
REMARK  status: ('A' for Active; 'I' for Inactive)
REMARK    1  A    between atoms: C_1  and  C_2
REMARK    2  A    between atoms: C_5  and  C_6
REMARK    3  A    between atoms: C_6  and  N_7
REMARK    4  A    between atoms: C_12  and  C_14
REMARK                            x       y       z     vdW  Elec       q    Type
REMARK                         _______ _______ _______ _____ _____    ______ ____
ROOT
ATOM      1  N   UNL     1       2.712   4.114  19.338  0.00  0.00    +0.000 N 
ATOM      2  C   UNL     1       2.532   3.560  20.574  0.00  0.00    +0.000 A 
ATOM      3  C   UNL     1       2.126   4.590  21.384  0.00  0.00    +0.000 A 
ATOM      4  C   UNL     1       2.100   5.748  20.562  0.00  0.00    +0.000 A 
ATOM      5  N   UNL     1       1.707   6.976  21.043  0.00  0.00    +0.000 N 
ATOM      6  C   UNL     1       1.626   8.194  20.388  0.00  0.00    +0.000 C 
ATOM      7  O   UNL     1       2.013   8.471  19.267  0.00  0.00    +0.000 OA
ATOM      8  N   UNL     1       2.455   5.445  19.307  0.00  0.00    +0.000 NA
ATOM      9  H   UNL     1       1.371   6.981  21.995  0.00  0.00    +0.000 HD
ENDROOT
BRANCH   6  10
ATOM     10  C   UNL     1       0.944   9.191  21.260  0.00  0.00    +0.000 A 
ATOM     11  N   UNL     1       1.196   9.127  22.583  0.00  0.00    +0.000 NA
ATOM     12  O   UNL     1       0.388  10.050  23.172  0.00  0.00    +0.000 OA
ATOM     13  C   UNL     1      -0.347  10.690  22.233  0.00  0.00    +0.000 A 
ATOM     14  C   UNL     1       0.005  10.258  20.973  0.00  0.00    +0.000 A 
ATOM     15  C   UNL     1      -0.387  10.785  19.625  0.00  0.00    +0.000 C 
ATOM     16  C   UNL     1      -1.709  11.510  19.336  0.00  0.00    +0.000 C 
ATOM     17  C   UNL     1      -2.430  12.451  20.293  0.00  0.00    +0.000 C 
ATOM     18  C   UNL     1      -2.277  12.303  21.828  0.00  0.00    +0.000 C 
ATOM     19  C   UNL     1      -1.292  11.646  22.819  0.00  0.00    +0.000 C 
ENDBRANCH   6  10
BRANCH   1  20
ATOM     20  C   UNL     1       2.956   3.369  18.105  0.00  0.00    +0.000 C 
BRANCH  20  25
ATOM     21  C   UNL     1       7.606   5.051  15.011  0.00  0.00    +0.000 C 
ATOM     22  C   UNL     1       6.408   4.666  15.826  0.00  0.00    +0.000 A 
ATOM     23  C   UNL     1       6.472   4.590  17.221  0.00  0.00    +0.000 A 
ATOM     24  C   UNL     1       5.350   4.198  17.965  0.00  0.00    +0.000 A 
ATOM     25  C   UNL     1       4.143   3.877  17.321  0.00  0.00    +0.000 A 
ATOM     26  C   UNL     1       4.085   3.964  15.927  0.00  0.00    +0.000 A 
ATOM     27  C   UNL     1       5.204   4.353  15.187  0.00  0.00    +0.000 A 
ENDBRANCH  20  25
ENDBRANCH   1  20
TORSDOF 3
ENDMDL
MODEL 7
REMARK VINA RESULT:      -8.0      6.702     10.415
REMARK  Name = 
REMARK  4 active torsions:
REMARK  status: ('A' for Active; 'I' for Inactive)
REMARK    1  A    between atoms: C_1  and  C_2
REMARK    2  A    between atoms: C_5  and  C_6
REMARK    3  A    between atoms: C_6  and  N_7
REMARK    4  A    between atoms: C_12  and  C_14
REMARK                            x       y       z     vdW  Elec       q    Type
REMARK                         _______ _______ _______ _____ _____    ______ ____
ROOT
ATOM      1  N   UNL     1       0.399  10.830  21.041  0.00  0.00    +0.000 N 
ATOM      2  C   UNL     1       0.288   9.977  22.103  0.00  0.00    +0.000 A 
ATOM      3  C   UNL     1       0.823   8.787  21.678  0.00  0.00    +0.000 A 
ATOM      4  C   UNL     1       1.223   8.997  20.331  0.00  0.00    +0.000 A 
ATOM      5  N   UNL     1       1.832   8.011  19.589  0.00  0.00    +0.000 N 
ATOM      6  C   UNL     1       2.279   8.044  18.278  0.00  0.00    +0.000 C 
ATOM      7  O   UNL     1       2.110   8.921  17.449  0.00  0.00    +0.000 OA
ATOM      8  N   UNL     1       0.964  10.255  19.952  0.00  0.00    +0.000 NA
ATOM      9  H   UNL     1       2.039   7.158  20.088  0.00  0.00    +0.000 HD
ENDROOT
BRANCH   6  10
ATOM     10  C   UNL     1       3.063   6.813  17.981  0.00  0.00    +0.000 A 
ATOM     11  N   UNL     1       4.214   6.965  17.296  0.00  0.00    +0.000 NA
ATOM     12  O   UNL     1       4.686   5.712  17.054  0.00  0.00    +0.000 OA
ATOM     13  C   UNL     1       3.851   4.791  17.590  0.00  0.00    +0.000 A 
ATOM     14  C   UNL     1       2.828   5.412  18.273  0.00  0.00    +0.000 A 
ATOM     15  C   UNL     1       1.776   4.836  19.172  0.00  0.00    +0.000 C 
ATOM     16  C   UNL     1       1.233   3.405  19.054  0.00  0.00    +0.000 C 
ATOM     17  C   UNL     1       2.046   2.181  18.652  0.00  0.00    +0.000 C 
ATOM     18  C   UNL     1       3.290   2.311  17.737  0.00  0.00    +0.000 C 
ATOM     19  C   UNL     1       4.271   3.417  17.296  0.00  0.00    +0.000 C 
ENDBRANCH   6  10
BRANCH   1  20
ATOM     20  C   UNL     1       0.141  12.268  21.081  0.00  0.00    +0.000 C 
BRANCH  20  25
ATOM     21  C   UNL     1      -4.798  13.906  23.717  0.00  0.00    +0.000 C 
ATOM     22  C   UNL     1      -3.522  13.449  23.076  0.00  0.00    +0.000 A 
ATOM     23  C   UNL     1      -2.282  13.673  23.686  0.00  0.00    +0.000 A 
ATOM     24  C   UNL     1      -1.097  13.267  23.058  0.00  0.00    +0.000 A 
ATOM     25  C   UNL     1      -1.134  12.629  21.807  0.00  0.00    +0.000 A 
ATOM     26  C   UNL     1      -2.377  12.402  21.208  0.00  0.00    +0.000 A 
ATOM     27  C   UNL     1      -3.558  12.808  21.834  0.00  0.00    +0.000 A 
ENDBRANCH  20  25
ENDBRANCH   1  20
TORSDOF 3
ENDMDL
MODEL 8
REMARK VINA RESULT:      -7.9      6.037      8.576
REMARK  Name = 
REMARK  4 active torsions:
REMARK  status: ('A' for Active; 'I' for Inactive)
REMARK    1  A    between atoms: C_1  and  C_2
REMARK    2  A    between atoms: C_5  and  C_6
REMARK    3  A    between atoms: C_6  and  N_7
REMARK    4  A    between atoms: C_12  and  C_14
REMARK                            x       y       z     vdW  Elec       q    Type
REMARK                         _______ _______ _______ _____ _____    ______ ____
ROOT
ATOM      1  N   UNL     1       3.363   4.836  18.691  0.00  0.00    +0.000 N 
ATOM      2  C   UNL     1       3.159   4.689  20.034  0.00  0.00    +0.000 A 
ATOM      3  C   UNL     1       2.576   5.860  20.449  0.00  0.00    +0.000 A 
ATOM      4  C   UNL     1       2.476   6.678  19.293  0.00  0.00    +0.000 A 
ATOM      5  N   UNL     1       1.907   7.931  19.333  0.00  0.00    +0.000 N 
ATOM      6  C   UNL     1       1.732   8.852  18.312  0.00  0.00    +0.000 C 
ATOM      7  O   UNL     1       2.165   8.804  17.175  0.00  0.00    +0.000 OA
ATOM      8  N   UNL     1       2.955   6.039  18.218  0.00  0.00    +0.000 NA
ATOM      9  H   UNL     1       1.504   8.195  20.219  0.00  0.00    +0.000 HD
ENDROOT
BRANCH   6  10
ATOM     10  C   UNL     1       0.876   9.974  18.788  0.00  0.00    +0.000 A 
ATOM     11  N   UNL     1       1.400  10.799  19.717  0.00  0.00    +0.000 NA
ATOM     12  O   UNL     1       0.409  11.661  20.069  0.00  0.00    +0.000 OA
ATOM     13  C   UNL     1      -0.714  11.390  19.362  0.00  0.00    +0.000 A 
ATOM     14  C   UNL     1      -0.478  10.376  18.460  0.00  0.00    +0.000 A 
ATOM     15  C   UNL     1      -1.337   9.851  17.348  0.00  0.00    +0.000 C 
ATOM     16  C   UNL     1      -2.871   9.903  17.349  0.00  0.00    +0.000 C 
ATOM     17  C   UNL     1      -3.718  11.026  17.934  0.00  0.00    +0.000 C 
ATOM     18  C   UNL     1      -3.198  11.894  19.108  0.00  0.00    +0.000 C 
ATOM     19  C   UNL     1      -1.840  12.243  19.753  0.00  0.00    +0.000 C 
ENDBRANCH   6  10
BRANCH   1  20
ATOM     20  C   UNL     1       3.783   3.775  17.778  0.00  0.00    +0.000 C 
BRANCH  20  25
ATOM     21  C   UNL     1       7.872   5.217  13.877  0.00  0.00    +0.000 C 
ATOM     22  C   UNL     1       6.816   4.896  14.891  0.00  0.00    +0.000 A 
ATOM     23  C   UNL     1       7.044   5.075  16.259  0.00  0.00    +0.000 A 
ATOM     24  C   UNL     1       6.056   4.741  17.196  0.00  0.00    +0.000 A 
ATOM     25  C   UNL     1       4.820   4.221  16.775  0.00  0.00    +0.000 A 
ATOM     26  C   UNL     1       4.597   4.053  15.405  0.00  0.00    +0.000 A 
ATOM     27  C   UNL     1       5.583   4.385  14.473  0.00  0.00    +0.000 A 
ENDBRANCH  20  25
ENDBRANCH   1  20
TORSDOF 3
ENDMDL
MODEL 9
REMARK VINA RESULT:      -7.9      5.493     10.077
REMARK  Name = 
REMARK  4 active torsions:
REMARK  status: ('A' for Active; 'I' for Inactive)
REMARK    1  A    between atoms: C_1  and  C_2
REMARK    2  A    between atoms: C_5  and  C_6
REMARK    3  A    between atoms: C_6  and  N_7
REMARK    4  A    between atoms: C_12  and  C_14
REMARK                            x       y       z     vdW  Elec       q    Type
REMARK                         _______ _______ _______ _____ _____    ______ ____
ROOT
ATOM      1  N   UNL     1       0.462  10.869  20.930  0.00  0.00    +0.000 N 
ATOM      2  C   UNL     1       0.339  10.051  22.017  0.00  0.00    +0.000 A 
ATOM      3  C   UNL     1       0.853   8.840  21.628  0.00  0.00    +0.000 A 
ATOM      4  C   UNL     1       1.255   9.002  20.276  0.00  0.00    +0.000 A 
ATOM      5  N   UNL     1       1.847   7.984  19.563  0.00  0.00    +0.000 N 
ATOM      6  C   UNL     1       2.294   7.970  18.252  0.00  0.00    +0.000 C 
ATOM      7  O   UNL     1       2.138   8.824  17.397  0.00  0.00    +0.000 OA
ATOM      8  N   UNL     1       1.017  10.252  19.858  0.00  0.00    +0.000 NA
ATOM      9  H   UNL     1       2.040   7.144  20.088  0.00  0.00    +0.000 HD
ENDROOT
BRANCH   6  10
ATOM     10  C   UNL     1       3.057   6.718  17.993  0.00  0.00    +0.000 A 
ATOM     11  N   UNL     1       4.211   6.830  17.304  0.00  0.00    +0.000 NA
ATOM     12  O   UNL     1       4.661   5.563  17.100  0.00  0.00    +0.000 OA
ATOM     13  C   UNL     1       3.811   4.672  17.662  0.00  0.00    +0.000 A 
ATOM     14  C   UNL     1       2.798   5.330  18.325  0.00  0.00    +0.000 A 
ATOM     15  C   UNL     1       1.736   4.799  19.241  0.00  0.00    +0.000 C 
ATOM     16  C   UNL     1       1.169   3.374  19.164  0.00  0.00    +0.000 C 
ATOM     17  C   UNL     1       1.962   2.125  18.800  0.00  0.00    +0.000 C 
ATOM     18  C   UNL     1       3.208   2.207  17.882  0.00  0.00    +0.000 C 
ATOM     19  C   UNL     1       4.208   3.283  17.410  0.00  0.00    +0.000 C 
ENDBRANCH   6  10
BRANCH   1  20
ATOM     20  C   UNL     1       0.228  12.312  20.925  0.00  0.00    +0.000 C 
BRANCH  20  25
ATOM     21  C   UNL     1       4.419  15.059  17.940  0.00  0.00    +0.000 C 
ATOM     22  C   UNL     1       3.332  14.397  18.732  0.00  0.00    +0.000 A 
ATOM     23  C   UNL     1       3.467  14.175  20.107  0.00  0.00    +0.000 A 
ATOM     24  C   UNL     1       2.453  13.526  20.826  0.00  0.00    +0.000 A 
ATOM     25  C   UNL     1       1.286  13.090  20.179  0.00  0.00    +0.000 A 
ATOM     26  C   UNL     1       1.155  13.323  18.806  0.00  0.00    +0.000 A 
ATOM     27  C   UNL     1       2.166  13.969  18.090  0.00  0.00    +0.000 A 
ENDBRANCH  20  25
ENDBRANCH   1  20
TORSDOF 3
ENDMDL
