MODEL 1
REMARK VINA RESULT:      -7.5      0.000      0.000
REMARK  Name = 
REMARK  12 active torsions:
REMARK  status: ('A' for Active; 'I' for Inactive)
REMARK    1  A    between atoms: C_1  and  C_2
REMARK    2  A    between atoms: C_2  and  O_3
REMARK    3  A    between atoms: O_3  and  C_4
REMARK    4  A    between atoms: C_4  and  C_6
REMARK    5  A    between atoms: C_7  and  N_8
REMARK    6  A    between atoms: C_9  and  C_11
REMARK    7  A    between atoms: C_11  and  O_12
REMARK    8  A    between atoms: O_12  and  C_13
REMARK    9  A    between atoms: C_13  and  C_15
REMARK   10  A    between atoms: C_18  and  N_19
REMARK   11  A    between atoms: C_24  and  C_25
REMARK   12  A    between atoms: C_26  and  C_27
REMARK                            x       y       z     vdW  Elec       q    Type
REMARK                         _______ _______ _______ _____ _____    ______ ____
ROOT
ATOM      1  N   UNL     1       5.589   3.832  18.484  0.00  0.00    +0.000 N 
ATOM      2  C   UNL     1       6.631   4.714  18.771  0.00  0.00    +0.000 C 
ATOM      3  O   UNL     1       6.737   5.439  19.759  0.00  0.00    +0.000 OA
ATOM      4  H   UNL     1       5.626   3.301  17.620  0.00  0.00    +0.000 HD
ENDROOT
BRANCH   1   6
ATOM      5  C   UNL     1       3.236   4.369  19.208  0.00  0.00    +0.000 A 
ATOM      6  C   UNL     1       4.430   3.646  19.246  0.00  0.00    +0.000 A 
ATOM      7  S   UNL     1       4.357   2.388  20.383  0.00  0.00    +0.000 S 
ATOM      8  C   UNL     1       2.783   2.772  20.877  0.00  0.00    +0.000 A 
ATOM      9  C   UNL     1       2.126   1.941  21.929  0.00  0.00    +0.000 C 
ATOM     10  C   UNL     1       2.282   3.869  20.202  0.00  0.00    +0.000 A 
ATOM     11  C   UNL     1       0.918   4.450  20.444  0.00  0.00    +0.000 C 
BRANCH   5  12
ATOM     12  C   UNL     1       2.930   5.457  18.269  0.00  0.00    +0.000 C 
ATOM     13  O   UNL     1       2.429   5.271  17.162  0.00  0.00    +0.000 OA
BRANCH  12  14
ATOM     14  O   UNL     1       3.378   6.673  18.695  0.00  0.00    +0.000 OA
BRANCH  14  16
ATOM     15  C   UNL     1       2.211   8.639  18.023  0.00  0.00    +0.000 C 
ATOM     16  C   UNL     1       3.352   7.694  17.684  0.00  0.00    +0.000 C 
ENDBRANCH  14  16
ENDBRANCH  12  14
ENDBRANCH   5  12
ENDBRANCH   1   6
BRANCH   2  17
ATOM     17  C   UNL     1       7.744   4.730  17.713  0.00  0.00    +0.000 C 
BRANCH  17  18
ATOM     18  O   UNL     1       7.302   4.215  16.450  0.00  0.00    +0.000 OA
BRANCH  18  19
ATOM     19  C   UNL     1       6.700   5.127  15.633  0.00  0.00    +0.000 C 
ATOM     20  O   UNL     1       6.152   6.148  16.031  0.00  0.00    +0.000 OA
BRANCH  19  21
ATOM     21  C   UNL     1       6.761   4.695  14.249  0.00  0.00    +0.000 A 
ATOM     22  C   UNL     1       7.643   5.030  13.230  0.00  0.00    +0.000 A 
ATOM     23  C   UNL     1       7.243   4.318  12.071  0.00  0.00    +0.000 A 
ATOM     24  C   UNL     1       6.140   3.595  12.454  0.00  0.00    +0.000 A 
ATOM     25  O   UNL     1       5.829   3.809  13.761  0.00  0.00    +0.000 OA
BRANCH  24  26
ATOM     26  N   UNL     1       5.292   2.700  11.729  0.00  0.00    +0.000 N 
ATOM     27  O   UNL     1       4.158   3.119  11.462  0.00  0.00    +0.000 OA
ATOM     28  O   UNL     1       5.741   1.586  11.434  0.00  0.00    +0.000 OA
ENDBRANCH  24  26
ENDBRANCH  19  21
ENDBRANCH  18  19
ENDBRANCH  17  18
ENDBRANCH   2  17
TORSDOF 9
ENDMDL
MODEL 2
REMARK VINA RESULT:      -7.2      1.512      1.882
REMARK  Name = 
REMARK  12 active torsions:
REMARK  status: ('A' for Active; 'I' for Inactive)
REMARK    1  A    between atoms: C_1  and  C_2
REMARK    2  A    between atoms: C_2  and  O_3
REMARK    3  A    between atoms: O_3  and  C_4
REMARK    4  A    between atoms: C_4  and  C_6
REMARK    5  A    between atoms: C_7  and  N_8
REMARK    6  A    between atoms: C_9  and  C_11
REMARK    7  A    between atoms: C_11  and  O_12
REMARK    8  A    between atoms: O_12  and  C_13
REMARK    9  A    between atoms: C_13  and  C_15
REMARK   10  A    between atoms: C_18  and  N_19
REMARK   11  A    between atoms: C_24  and  C_25
REMARK   12  A    between atoms: C_26  and  C_27
REMARK                            x       y       z     vdW  Elec       q    Type
REMARK                         _______ _______ _______ _____ _____    ______ ____
ROOT
ATOM      1  N   UNL     1       4.445   5.518  17.431  0.00  0.00    +0.000 N 
ATOM      2  C   UNL     1       5.685   5.828  17.989  0.00  0.00    +0.000 C 
ATOM      3  O   UNL     1       6.115   5.468  19.084  0.00  0.00    +0.000 OA
ATOM      4  H   UNL     1       4.215   5.896  16.517  0.00  0.00    +0.000 HD
ENDROOT
BRANCH   1   6
ATOM      5  C   UNL     1       2.542   5.176  19.047  0.00  0.00    +0.000 A 
ATOM      6  C   UNL     1       3.425   4.779  18.040  0.00  0.00    +0.000 A 
ATOM      7  S   UNL     1       3.127   3.182  17.549  0.00  0.00    +0.000 S 
ATOM      8  C   UNL     1       1.864   2.957  18.654  0.00  0.00    +0.000 A 
ATOM      9  C   UNL     1       1.147   1.647  18.685  0.00  0.00    +0.000 C 
ATOM     10  C   UNL     1       1.647   4.080  19.430  0.00  0.00    +0.000 A 
ATOM     11  C   UNL     1       0.604   4.166  20.507  0.00  0.00    +0.000 C 
BRANCH   5  12
ATOM     12  C   UNL     1       2.463   6.525  19.626  0.00  0.00    +0.000 C 
ATOM     13  O   UNL     1       2.177   6.737  20.802  0.00  0.00    +0.000 OA
BRANCH  12  14
ATOM     14  O   UNL     1       2.607   7.514  18.697  0.00  0.00    +0.000 OA
BRANCH  14  16
ATOM     15  C   UNL     1       1.900   9.569  17.720  0.00  0.00    +0.000 C 
ATOM     16  C   UNL     1       1.781   8.665  18.936  0.00  0.00    +0.000 C 
ENDBRANCH  14  16
ENDBRANCH  12  14
ENDBRANCH   5  12
ENDBRANCH   1   6
BRANCH   2  17
ATOM     17  C   UNL     1       6.573   6.703  17.092  0.00  0.00    +0.000 C 
BRANCH  17  18
ATOM     18  O   UNL     1       6.559   6.270  15.725  0.00  0.00    +0.000 OA
BRANCH  18  19
ATOM     19  C   UNL     1       7.211   5.095  15.485  0.00  0.00    +0.000 C 
ATOM     20  O   UNL     1       7.855   4.483  16.327  0.00  0.00    +0.000 OA
BRANCH  19  21
ATOM     21  C   UNL     1       7.072   4.708  14.093  0.00  0.00    +0.000 A 
ATOM     22  C   UNL     1       7.775   5.109  12.963  0.00  0.00    +0.000 A 
ATOM     23  C   UNL     1       7.225   4.417  11.854  0.00  0.00    +0.000 A 
ATOM     24  C   UNL     1       6.219   3.641  12.376  0.00  0.00    +0.000 A 
ATOM     25  O   UNL     1       6.106   3.802  13.722  0.00  0.00    +0.000 OA
BRANCH  24  26
ATOM     26  N   UNL     1       5.300   2.737  11.756  0.00  0.00    +0.000 N 
ATOM     27  O   UNL     1       5.738   1.609  11.491  0.00  0.00    +0.000 OA
ATOM     28  O   UNL     1       4.155   3.142  11.525  0.00  0.00    +0.000 OA
ENDBRANCH  24  26
ENDBRANCH  19  21
ENDBRANCH  18  19
ENDBRANCH  17  18
ENDBRANCH   2  17
TORSDOF 9
ENDMDL
MODEL 3
REMARK VINA RESULT:      -7.2      1.864      3.204
REMARK  Name = 
REMARK  12 active torsions:
REMARK  status: ('A' for Active; 'I' for Inactive)
REMARK    1  A    between atoms: C_1  and  C_2
REMARK    2  A    between atoms: C_2  and  O_3
REMARK    3  A    between atoms: O_3  and  C_4
REMARK    4  A    between atoms: C_4  and  C_6
REMARK    5  A    between atoms: C_7  and  N_8
REMARK    6  A    between atoms: C_9  and  C_11
REMARK    7  A    between atoms: C_11  and  O_12
REMARK    8  A    between atoms: O_12  and  C_13
REMARK    9  A    between atoms: C_13  and  C_15
REMARK   10  A    between atoms: C_18  and  N_19
REMARK   11  A    between atoms: C_24  and  C_25
REMARK   12  A    between atoms: C_26  and  C_27
REMARK                            x       y       z     vdW  Elec       q    Type
REMARK                         _______ _______ _______ _____ _____    ______ ____
ROOT
ATOM      1  N   UNL     1       5.326   4.757  18.279  0.00  0.00    +0.000 N 
ATOM      2  C   UNL     1       6.639   4.925  18.717  0.00  0.00    +0.000 C 
ATOM      3  O   UNL     1       7.029   4.993  19.881  0.00  0.00    +0.000 OA
ATOM      4  H   UNL     1       5.147   4.729  17.280  0.00  0.00    +0.000 HD
ENDROOT
BRANCH   1   6
ATOM      5  C   UNL     1       3.619   3.574  19.706  0.00  0.00    +0.000 A 
ATOM      6  C   UNL     1       4.187   4.691  19.088  0.00  0.00    +0.000 A 
ATOM      7  S   UNL     1       3.316   6.104  19.443  0.00  0.00    +0.000 S 
ATOM      8  C   UNL     1       2.162   5.295  20.382  0.00  0.00    +0.000 A 
ATOM      9  C   UNL     1       1.064   6.078  21.021  0.00  0.00    +0.000 C 
ATOM     10  C   UNL     1       2.401   3.935  20.437  0.00  0.00    +0.000 A 
ATOM     11  C   UNL     1       1.531   2.961  21.181  0.00  0.00    +0.000 C 
BRANCH   5  12
ATOM     12  C   UNL     1       4.177   2.215  19.685  0.00  0.00    +0.000 C 
ATOM     13  O   UNL     1       3.833   1.357  18.876  0.00  0.00    +0.000 OA
BRANCH  12  14
ATOM     14  O   UNL     1       5.014   1.965  20.734  0.00  0.00    +0.000 OA
BRANCH  14  16
ATOM     15  C   UNL     1       6.135   0.466  22.207  0.00  0.00    +0.000 C 
ATOM     16  C   UNL     1       5.207   0.568  21.009  0.00  0.00    +0.000 C 
ENDBRANCH  14  16
ENDBRANCH  12  14
ENDBRANCH   5  12
ENDBRANCH   1   6
BRANCH   2  17
ATOM     17  C   UNL     1       7.670   5.012  17.581  0.00  0.00    +0.000 C 
BRANCH  17  18
ATOM     18  O   UNL     1       7.196   4.412  16.368  0.00  0.00    +0.000 OA
BRANCH  18  19
ATOM     19  C   UNL     1       6.618   5.275  15.484  0.00  0.00    +0.000 C 
ATOM     20  O   UNL     1       6.061   6.317  15.807  0.00  0.00    +0.000 OA
BRANCH  19  21
ATOM     21  C   UNL     1       6.715   4.763  14.130  0.00  0.00    +0.000 A 
ATOM     22  C   UNL     1       7.626   5.038  13.117  0.00  0.00    +0.000 A 
ATOM     23  C   UNL     1       7.256   4.260  11.991  0.00  0.00    +0.000 A 
ATOM     24  C   UNL     1       6.141   3.561  12.386  0.00  0.00    +0.000 A 
ATOM     25  O   UNL     1       5.795   3.851  13.669  0.00  0.00    +0.000 OA
BRANCH  24  26
ATOM     26  N   UNL     1       5.311   2.627  11.691  0.00  0.00    +0.000 N 
ATOM     27  O   UNL     1       4.155   2.999  11.447  0.00  0.00    +0.000 OA
ATOM     28  O   UNL     1       5.796   1.528  11.396  0.00  0.00    +0.000 OA
ENDBRANCH  24  26
ENDBRANCH  19  21
ENDBRANCH  18  19
ENDBRANCH  17  18
ENDBRANCH   2  17
TORSDOF 9
ENDMDL
MODEL 4
REMARK VINA RESULT:      -7.0      5.324      8.307
REMARK  Name = 
REMARK  12 active torsions:
REMARK  status: ('A' for Active; 'I' for Inactive)
REMARK    1  A    between atoms: C_1  and  C_2
REMARK    2  A    between atoms: C_2  and  O_3
REMARK    3  A    between atoms: O_3  and  C_4
REMARK    4  A    between atoms: C_4  and  C_6
REMARK    5  A    between atoms: C_7  and  N_8
REMARK    6  A    between atoms: C_9  and  C_11
REMARK    7  A    between atoms: C_11  and  O_12
REMARK    8  A    between atoms: O_12  and  C_13
REMARK    9  A    between atoms: C_13  and  C_15
REMARK   10  A    between atoms: C_18  and  N_19
REMARK   11  A    between atoms: C_24  and  C_25
REMARK   12  A    between atoms: C_26  and  C_27
REMARK                            x       y       z     vdW  Elec       q    Type
REMARK                         _______ _______ _______ _____ _____    ______ ____
ROOT
ATOM      1  N   UNL     1       0.129  10.821  18.216  0.00  0.00    +0.000 N 
ATOM      2  C   UNL     1       0.915   9.857  18.846  0.00  0.00    +0.000 C 
ATOM      3  O   UNL     1       0.709   9.332  19.939  0.00  0.00    +0.000 OA
ATOM      4  H   UNL     1       0.428  11.177  17.313  0.00  0.00    +0.000 HD
ENDROOT
BRANCH   1   6
ATOM      5  C   UNL     1      -2.360  11.142  18.447  0.00  0.00    +0.000 A 
ATOM      6  C   UNL     1      -1.022  11.421  18.738  0.00  0.00    +0.000 A 
ATOM      7  S   UNL     1      -0.884  12.650  19.901  0.00  0.00    +0.000 S 
ATOM      8  C   UNL     1      -2.558  12.871  20.032  0.00  0.00    +0.000 A 
ATOM      9  C   UNL     1      -3.086  13.891  20.986  0.00  0.00    +0.000 C 
ATOM     10  C   UNL     1      -3.259  12.030  19.189  0.00  0.00    +0.000 A 
ATOM     11  C   UNL     1      -4.757  12.015  19.076  0.00  0.00    +0.000 C 
BRANCH   5  12
ATOM     12  C   UNL     1      -2.831  10.069  17.560  0.00  0.00    +0.000 C 
ATOM     13  O   UNL     1      -3.558   9.154  17.938  0.00  0.00    +0.000 OA
BRANCH  12  14
ATOM     14  O   UNL     1      -2.273  10.121  16.316  0.00  0.00    +0.000 OA
BRANCH  14  16
ATOM     15  C   UNL     1      -3.431  10.054  14.235  0.00  0.00    +0.000 C 
ATOM     16  C   UNL     1      -2.994  10.945  15.386  0.00  0.00    +0.000 C 
ENDBRANCH  14  16
ENDBRANCH  12  14
ENDBRANCH   5  12
ENDBRANCH   1   6
BRANCH   2  17
ATOM     17  C   UNL     1       2.149   9.430  18.037  0.00  0.00    +0.000 C 
BRANCH  17  18
ATOM     18  O   UNL     1       2.031   8.095  17.528  0.00  0.00    +0.000 OA
BRANCH  18  19
ATOM     19  C   UNL     1       3.024   7.242  17.911  0.00  0.00    +0.000 C 
ATOM     20  O   UNL     1       4.209   7.406  17.649  0.00  0.00    +0.000 OA
BRANCH  19  21
ATOM     21  C   UNL     1       2.475   6.102  18.621  0.00  0.00    +0.000 A 
ATOM     22  C   UNL     1       2.165   5.932  19.965  0.00  0.00    +0.000 A 
ATOM     23  C   UNL     1       1.655   4.617  20.119  0.00  0.00    +0.000 A 
ATOM     24  C   UNL     1       1.688   4.067  18.862  0.00  0.00    +0.000 A 
ATOM     25  O   UNL     1       2.182   4.942  17.943  0.00  0.00    +0.000 OA
BRANCH  24  26
ATOM     26  N   UNL     1       1.316   2.773  18.382  0.00  0.00    +0.000 N 
ATOM     27  O   UNL     1       2.029   2.295  17.489  0.00  0.00    +0.000 OA
ATOM     28  O   UNL     1       0.318   2.235  18.877  0.00  0.00    +0.000 OA
ENDBRANCH  24  26
ENDBRANCH  19  21
ENDBRANCH  18  19
ENDBRANCH  17  18
ENDBRANCH   2  17
TORSDOF 9
ENDMDL
MODEL 5
REMARK VINA RESULT:      -7.0      1.869      2.891
REMARK  Name = 
REMARK  12 active torsions:
REMARK  status: ('A' for Active; 'I' for Inactive)
REMARK    1  A    between atoms: C_1  and  C_2
REMARK    2  A    between atoms: C_2  and  O_3
REMARK    3  A    between atoms: O_3  and  C_4
REMARK    4  A    between atoms: C_4  and  C_6
REMARK    5  A    between atoms: C_7  and  N_8
REMARK    6  A    between atoms: C_9  and  C_11
REMARK    7  A    between atoms: C_11  and  O_12
REMARK    8  A    between atoms: O_12  and  C_13
REMARK    9  A    between atoms: C_13  and  C_15
REMARK   10  A    between atoms: C_18  and  N_19
REMARK   11  A    between atoms: C_24  and  C_25
REMARK   12  A    between atoms: C_26  and  C_27
REMARK                            x       y       z     vdW  Elec       q    Type
REMARK                         _______ _______ _______ _____ _____    ______ ____
ROOT
ATOM      1  N   UNL     1       4.892   4.658  17.484  0.00  0.00    +0.000 N 
ATOM      2  C   UNL     1       6.224   4.511  17.868  0.00  0.00    +0.000 C 
ATOM      3  O   UNL     1       6.663   4.471  19.016  0.00  0.00    +0.000 OA
ATOM      4  H   UNL     1       4.672   4.687  16.493  0.00  0.00    +0.000 HD
ENDROOT
BRANCH   1   6
ATOM      5  C   UNL     1       2.769   3.956  18.647  0.00  0.00    +0.000 A 
ATOM      6  C   UNL     1       3.800   4.848  18.338  0.00  0.00    +0.000 A 
ATOM      7  S   UNL     1       3.622   6.314  19.173  0.00  0.00    +0.000 S 
ATOM      8  C   UNL     1       2.185   5.839  19.932  0.00  0.00    +0.000 A 
ATOM      9  C   UNL     1       1.511   6.784  20.873  0.00  0.00    +0.000 C 
ATOM     10  C   UNL     1       1.799   4.565  19.561  0.00  0.00    +0.000 A 
ATOM     11  C   UNL     1       0.555   3.887  20.060  0.00  0.00    +0.000 C 
BRANCH   5  12
ATOM     12  C   UNL     1       2.675   2.568  18.175  0.00  0.00    +0.000 C 
ATOM     13  O   UNL     1       2.264   2.263  17.058  0.00  0.00    +0.000 OA
BRANCH  12  14
ATOM     14  O   UNL     1       2.963   1.653  19.145  0.00  0.00    +0.000 OA
BRANCH  14  16
ATOM     15  C   UNL     1       4.805   1.873  20.640  0.00  0.00    +0.000 C 
ATOM     16  C   UNL     1       4.364   1.363  19.278  0.00  0.00    +0.000 C 
ENDBRANCH  14  16
ENDBRANCH  12  14
ENDBRANCH   5  12
ENDBRANCH   1   6
BRANCH   2  17
ATOM     17  C   UNL     1       7.202   4.372  16.692  0.00  0.00    +0.000 C 
BRANCH  17  18
ATOM     18  O   UNL     1       7.291   5.573  15.913  0.00  0.00    +0.000 OA
BRANCH  18  19
ATOM     19  C   UNL     1       6.281   5.754  15.014  0.00  0.00    +0.000 C 
ATOM     20  O   UNL     1       5.301   6.461  15.214  0.00  0.00    +0.000 OA
BRANCH  19  21
ATOM     21  C   UNL     1       6.510   4.960  13.821  0.00  0.00    +0.000 A 
ATOM     22  C   UNL     1       7.592   4.916  12.952  0.00  0.00    +0.000 A 
ATOM     23  C   UNL     1       7.292   3.961  11.947  0.00  0.00    +0.000 A 
ATOM     24  C   UNL     1       6.043   3.484  12.264  0.00  0.00    +0.000 A 
ATOM     25  O   UNL     1       5.551   4.074  13.387  0.00  0.00    +0.000 OA
BRANCH  24  26
ATOM     26  N   UNL     1       5.205   2.518  11.625  0.00  0.00    +0.000 N 
ATOM     27  O   UNL     1       5.708   1.402  11.432  0.00  0.00    +0.000 OA
ATOM     28  O   UNL     1       4.061   2.862  11.306  0.00  0.00    +0.000 OA
ENDBRANCH  24  26
ENDBRANCH  19  21
ENDBRANCH  18  19
ENDBRANCH  17  18
ENDBRANCH   2  17
TORSDOF 9
ENDMDL
MODEL 6
REMARK VINA RESULT:      -7.0      1.431      1.880
REMARK  Name = 
REMARK  12 active torsions:
REMARK  status: ('A' for Active; 'I' for Inactive)
REMARK    1  A    between atoms: C_1  and  C_2
REMARK    2  A    between atoms: C_2  and  O_3
REMARK    3  A    between atoms: O_3  and  C_4
REMARK    4  A    between atoms: C_4  and  C_6
REMARK    5  A    between atoms: C_7  and  N_8
REMARK    6  A    between atoms: C_9  and  C_11
REMARK    7  A    between atoms: C_11  and  O_12
REMARK    8  A    between atoms: O_12  and  C_13
REMARK    9  A    between atoms: C_13  and  C_15
REMARK   10  A    between atoms: C_18  and  N_19
REMARK   11  A    between atoms: C_24  and  C_25
REMARK   12  A    between atoms: C_26  and  C_27
REMARK                            x       y       z     vdW  Elec       q    Type
REMARK                         _______ _______ _______ _____ _____    ______ ____
ROOT
ATOM      1  N   UNL     1       5.167   4.059  17.339  0.00  0.00    +0.000 N 
ATOM      2  C   UNL     1       6.524   4.375  17.403  0.00  0.00    +0.000 C 
ATOM      3  O   UNL     1       7.160   4.708  18.401  0.00  0.00    +0.000 OA
ATOM      4  H   UNL     1       4.767   3.810  16.440  0.00  0.00    +0.000 HD
ENDROOT
BRANCH   1   6
ATOM      5  C   UNL     1       3.471   5.195  18.817  0.00  0.00    +0.000 A 
ATOM      6  C   UNL     1       4.254   4.116  18.398  0.00  0.00    +0.000 A 
ATOM      7  S   UNL     1       3.972   2.740  19.350  0.00  0.00    +0.000 S 
ATOM      8  C   UNL     1       2.850   3.520  20.350  0.00  0.00    +0.000 A 
ATOM      9  C   UNL     1       2.199   2.752  21.452  0.00  0.00    +0.000 C 
ATOM     10  C   UNL     1       2.673   4.844  19.994  0.00  0.00    +0.000 A 
ATOM     11  C   UNL     1       1.752   5.788  20.715  0.00  0.00    +0.000 C 
BRANCH   5  12
ATOM     12  C   UNL     1       3.398   6.503  18.150  0.00  0.00    +0.000 C 
ATOM     13  O   UNL     1       4.390   7.167  17.861  0.00  0.00    +0.000 OA
BRANCH  12  14
ATOM     14  O   UNL     1       2.120   6.960  18.009  0.00  0.00    +0.000 OA
BRANCH  14  16
ATOM     15  C   UNL     1       1.532   9.034  19.023  0.00  0.00    +0.000 C 
ATOM     16  C   UNL     1       2.028   8.370  17.750  0.00  0.00    +0.000 C 
ENDBRANCH  14  16
ENDBRANCH  12  14
ENDBRANCH   5  12
ENDBRANCH   1   6
BRANCH   2  17
ATOM     17  C   UNL     1       7.254   4.264  16.056  0.00  0.00    +0.000 C 
BRANCH  17  18
ATOM     18  O   UNL     1       6.755   5.195  15.087  0.00  0.00    +0.000 OA
BRANCH  18  19
ATOM     19  C   UNL     1       7.274   5.056  13.833  0.00  0.00    +0.000 C 
ATOM     20  O   UNL     1       8.250   5.671  13.422  0.00  0.00    +0.000 OA
BRANCH  19  21
ATOM     21  C   UNL     1       6.482   4.125  13.051  0.00  0.00    +0.000 A 
ATOM     22  C   UNL     1       5.110   4.044  12.850  0.00  0.00    +0.000 A 
ATOM     23  C   UNL     1       4.871   2.937  11.996  0.00  0.00    +0.000 A 
ATOM     24  C   UNL     1       6.112   2.410  11.732  0.00  0.00    +0.000 A 
ATOM     25  O   UNL     1       7.097   3.107  12.360  0.00  0.00    +0.000 OA
BRANCH  24  26
ATOM     26  N   UNL     1       6.518   1.286  10.947  0.00  0.00    +0.000 N 
ATOM     27  O   UNL     1       7.417   1.494  10.121  0.00  0.00    +0.000 OA
ATOM     28  O   UNL     1       5.946   0.207  11.140  0.00  0.00    +0.000 OA
ENDBRANCH  24  26
ENDBRANCH  19  21
ENDBRANCH  18  19
ENDBRANCH  17  18
ENDBRANCH   2  17
TORSDOF 9
ENDMDL
MODEL 7
REMARK VINA RESULT:      -6.8      1.241      1.492
REMARK  Name = 
REMARK  12 active torsions:
REMARK  status: ('A' for Active; 'I' for Inactive)
REMARK    1  A    between atoms: C_1  and  C_2
REMARK    2  A    between atoms: C_2  and  O_3
REMARK    3  A    between atoms: O_3  and  C_4
REMARK    4  A    between atoms: C_4  and  C_6
REMARK    5  A    between atoms: C_7  and  N_8
REMARK    6  A    between atoms: C_9  and  C_11
REMARK    7  A    between atoms: C_11  and  O_12
REMARK    8  A    between atoms: O_12  and  C_13
REMARK    9  A    between atoms: C_13  and  C_15
REMARK   10  A    between atoms: C_18  and  N_19
REMARK   11  A    between atoms: C_24  and  C_25
REMARK   12  A    between atoms: C_26  and  C_27
REMARK                            x       y       z     vdW  Elec       q    Type
REMARK                         _______ _______ _______ _____ _____    ______ ____
ROOT
ATOM      1  N   UNL     1       5.452   3.738  18.551  0.00  0.00    +0.000 N 
ATOM      2  C   UNL     1       6.531   4.586  18.800  0.00  0.00    +0.000 C 
ATOM      3  O   UNL     1       6.663   5.359  19.747  0.00  0.00    +0.000 OA
ATOM      4  H   UNL     1       5.471   3.158  17.718  0.00  0.00    +0.000 HD
ENDROOT
BRANCH   1   6
ATOM      5  C   UNL     1       3.131   4.442  19.237  0.00  0.00    +0.000 A 
ATOM      6  C   UNL     1       4.279   3.649  19.309  0.00  0.00    +0.000 A 
ATOM      7  S   UNL     1       4.121   2.436  20.486  0.00  0.00    +0.000 S 
ATOM      8  C   UNL     1       2.571   2.932  20.953  0.00  0.00    +0.000 A 
ATOM      9  C   UNL     1       1.857   2.178  22.027  0.00  0.00    +0.000 C 
ATOM     10  C   UNL     1       2.142   4.034  20.239  0.00  0.00    +0.000 A 
ATOM     11  C   UNL     1       0.815   4.706  20.450  0.00  0.00    +0.000 C 
BRANCH   5  12
ATOM     12  C   UNL     1       2.898   5.515  18.260  0.00  0.00    +0.000 C 
ATOM     13  O   UNL     1       3.474   5.576  17.177  0.00  0.00    +0.000 OA
BRANCH  12  14
ATOM     14  O   UNL     1       2.083   6.501  18.734  0.00  0.00    +0.000 OA
BRANCH  14  16
ATOM     15  C   UNL     1       1.866   8.669  17.769  0.00  0.00    +0.000 C 
ATOM     16  C   UNL     1       2.679   7.809  18.723  0.00  0.00    +0.000 C 
ENDBRANCH  14  16
ENDBRANCH  12  14
ENDBRANCH   5  12
ENDBRANCH   1   6
BRANCH   2  17
ATOM     17  C   UNL     1       7.653   4.490  17.755  0.00  0.00    +0.000 C 
BRANCH  17  18
ATOM     18  O   UNL     1       7.860   5.729  17.064  0.00  0.00    +0.000 OA
BRANCH  18  19
ATOM     19  C   UNL     1       6.787   6.180  16.352  0.00  0.00    +0.000 C 
ATOM     20  O   UNL     1       6.176   7.210  16.609  0.00  0.00    +0.000 OA
BRANCH  19  21
ATOM     21  C   UNL     1       6.449   5.249  15.292  0.00  0.00    +0.000 A 
ATOM     22  C   UNL     1       5.470   4.266  15.223  0.00  0.00    +0.000 A 
ATOM     23  C   UNL     1       5.580   3.645  13.952  0.00  0.00    +0.000 A 
ATOM     24  C   UNL     1       6.621   4.287  13.327  0.00  0.00    +0.000 A 
ATOM     25  O   UNL     1       7.162   5.254  14.115  0.00  0.00    +0.000 OA
BRANCH  24  26
ATOM     26  N   UNL     1       7.214   4.101  12.038  0.00  0.00    +0.000 N 
ATOM     27  O   UNL     1       7.579   5.130  11.452  0.00  0.00    +0.000 OA
ATOM     28  O   UNL     1       7.307   2.948  11.603  0.00  0.00    +0.000 OA
ENDBRANCH  24  26
ENDBRANCH  19  21
ENDBRANCH  18  19
ENDBRANCH  17  18
ENDBRANCH   2  17
TORSDOF 9
ENDMDL
MODEL 8
REMARK VINA RESULT:      -6.8      4.321      7.052
REMARK  Name = 
REMARK  12 active torsions:
REMARK  status: ('A' for Active; 'I' for Inactive)
REMARK    1  A    between atoms: C_1  and  C_2
REMARK    2  A    between atoms: C_2  and  O_3
REMARK    3  A    between atoms: O_3  and  C_4
REMARK    4  A    between atoms: C_4  and  C_6
REMARK    5  A    between atoms: C_7  and  N_8
REMARK    6  A    between atoms: C_9  and  C_11
REMARK    7  A    between atoms: C_11  and  O_12
REMARK    8  A    between atoms: O_12  and  C_13
REMARK    9  A    between atoms: C_13  and  C_15
REMARK   10  A    between atoms: C_18  and  N_19
REMARK   11  A    between atoms: C_24  and  C_25
REMARK   12  A    between atoms: C_26  and  C_27
REMARK                            x       y       z     vdW  Elec       q    Type
REMARK                         _______ _______ _______ _____ _____    ______ ____
ROOT
ATOM      1  N   UNL     1       1.022   9.114  19.063  0.00  0.00    +0.000 N 
ATOM      2  C   UNL     1       2.030   9.044  18.101  0.00  0.00    +0.000 C 
ATOM      3  O   UNL     1       2.205   9.809  17.155  0.00  0.00    +0.000 OA
ATOM      4  H   UNL     1       0.991   8.402  19.786  0.00  0.00    +0.000 HD
ENDROOT
BRANCH   1   6
ATOM      5  C   UNL     1      -0.213  11.104  19.991  0.00  0.00    +0.000 A 
ATOM      6  C   UNL     1      -0.022  10.044  19.101  0.00  0.00    +0.000 A 
ATOM      7  S   UNL     1      -1.262   9.975  17.945  0.00  0.00    +0.000 S 
ATOM      8  C   UNL     1      -2.095  11.300  18.591  0.00  0.00    +0.000 A 
ATOM      9  C   UNL     1      -3.357  11.756  17.936  0.00  0.00    +0.000 C 
ATOM     10  C   UNL     1      -1.461  11.818  19.704  0.00  0.00    +0.000 A 
ATOM     11  C   UNL     1      -1.979  12.984  20.497  0.00  0.00    +0.000 C 
BRANCH   5  12
ATOM     12  C   UNL     1       0.724  11.506  21.049  0.00  0.00    +0.000 C 
ATOM     13  O   UNL     1       1.359  12.558  21.023  0.00  0.00    +0.000 OA
BRANCH  12  14
ATOM     14  O   UNL     1       0.915  10.537  21.990  0.00  0.00    +0.000 OA
BRANCH  14  16
ATOM     15  C   UNL     1      -0.527   8.733  22.577  0.00  0.00    +0.000 C 
ATOM     16  C   UNL     1      -0.262  10.219  22.751  0.00  0.00    +0.000 C 
ENDBRANCH  14  16
ENDBRANCH  12  14
ENDBRANCH   5  12
ENDBRANCH   1   6
BRANCH   2  17
ATOM     17  C   UNL     1       3.004   7.874  18.302  0.00  0.00    +0.000 C 
BRANCH  17  18
ATOM     18  O   UNL     1       2.326   6.620  18.456  0.00  0.00    +0.000 OA
BRANCH  18  19
ATOM     19  C   UNL     1       3.074   5.625  19.016  0.00  0.00    +0.000 C 
ATOM     20  O   UNL     1       3.013   5.301  20.195  0.00  0.00    +0.000 OA
BRANCH  19  21
ATOM     21  C   UNL     1       3.973   5.046  18.035  0.00  0.00    +0.000 A 
ATOM     22  C   UNL     1       3.761   4.063  17.076  0.00  0.00    +0.000 A 
ATOM     23  C   UNL     1       4.984   3.877  16.382  0.00  0.00    +0.000 A 
ATOM     24  C   UNL     1       5.866   4.756  16.963  0.00  0.00    +0.000 A 
ATOM     25  O   UNL     1       5.280   5.468  17.963  0.00  0.00    +0.000 OA
BRANCH  24  26
ATOM     26  N   UNL     1       7.247   5.023  16.706  0.00  0.00    +0.000 N 
ATOM     27  O   UNL     1       8.059   4.234  17.210  0.00  0.00    +0.000 OA
ATOM     28  O   UNL     1       7.529   6.012  16.019  0.00  0.00    +0.000 OA
ENDBRANCH  24  26
ENDBRANCH  19  21
ENDBRANCH  18  19
ENDBRANCH  17  18
ENDBRANCH   2  17
TORSDOF 9
ENDMDL
MODEL 9
REMARK VINA RESULT:      -6.8      4.276      8.674
REMARK  Name = 
REMARK  12 active torsions:
REMARK  status: ('A' for Active; 'I' for Inactive)
REMARK    1  A    between atoms: C_1  and  C_2
REMARK    2  A    between atoms: C_2  and  O_3
REMARK    3  A    between atoms: O_3  and  C_4
REMARK    4  A    between atoms: C_4  and  C_6
REMARK    5  A    between atoms: C_7  and  N_8
REMARK    6  A    between atoms: C_9  and  C_11
REMARK    7  A    between atoms: C_11  and  O_12
REMARK    8  A    between atoms: O_12  and  C_13
REMARK    9  A    between atoms: C_13  and  C_15
REMARK   10  A    between atoms: C_18  and  N_19
REMARK   11  A    between atoms: C_24  and  C_25
REMARK   12  A    between atoms: C_26  and  C_27
REMARK                            x       y       z     vdW  Elec       q    Type
REMARK                         _______ _______ _______ _____ _____    ______ ____
ROOT
ATOM      1  N   UNL     1       2.753   6.563  18.498  0.00  0.00    +0.000 N 
ATOM      2  C   UNL     1       2.227   7.763  18.976  0.00  0.00    +0.000 C 
ATOM      3  O   UNL     1       1.804   7.987  20.108  0.00  0.00    +0.000 OA
ATOM      4  H   UNL     1       3.056   6.516  17.530  0.00  0.00    +0.000 HD
ENDROOT
BRANCH   1   6
ATOM      5  C   UNL     1       3.912   4.457  19.254  0.00  0.00    +0.000 A 
ATOM      6  C   UNL     1       2.848   5.361  19.208  0.00  0.00    +0.000 A 
ATOM      7  S   UNL     1       1.559   4.851  20.187  0.00  0.00    +0.000 S 
ATOM      8  C   UNL     1       2.340   3.428  20.671  0.00  0.00    +0.000 A 
ATOM      9  C   UNL     1       1.648   2.504  21.619  0.00  0.00    +0.000 C 
ATOM     10  C   UNL     1       3.588   3.299  20.092  0.00  0.00    +0.000 A 
ATOM     11  C   UNL     1       4.501   2.129  20.322  0.00  0.00    +0.000 C 
BRANCH   5  12
ATOM     12  C   UNL     1       5.216   4.644  18.602  0.00  0.00    +0.000 C 
ATOM     13  O   UNL     1       6.286   4.559  19.200  0.00  0.00    +0.000 OA
BRANCH  12  14
ATOM     14  O   UNL     1       5.111   5.051  17.304  0.00  0.00    +0.000 OA
BRANCH  14  16
ATOM     15  C   UNL     1       6.004   3.868  15.438  0.00  0.00    +0.000 C 
ATOM     16  C   UNL     1       4.818   3.990  16.381  0.00  0.00    +0.000 C 
ENDBRANCH  14  16
ENDBRANCH  12  14
ENDBRANCH   5  12
ENDBRANCH   1   6
BRANCH   2  17
ATOM     17  C   UNL     1       2.212   8.895  17.938  0.00  0.00    +0.000 C 
BRANCH  17  18
ATOM     18  O   UNL     1       1.037   9.710  18.038  0.00  0.00    +0.000 OA
BRANCH  18  19
ATOM     19  C   UNL     1       1.246  10.965  18.532  0.00  0.00    +0.000 C 
ATOM     20  O   UNL     1       2.226  11.651  18.271  0.00  0.00    +0.000 OA
BRANCH  19  21
ATOM     21  C   UNL     1       0.176  11.343  19.436  0.00  0.00    +0.000 A 
ATOM     22  C   UNL     1      -1.100  11.831  19.182  0.00  0.00    +0.000 A 
ATOM     23  C   UNL     1      -1.732  12.037  20.435  0.00  0.00    +0.000 A 
ATOM     24  C   UNL     1      -0.802  11.666  21.375  0.00  0.00    +0.000 A 
ATOM     25  O   UNL     1       0.357  11.248  20.797  0.00  0.00    +0.000 OA
BRANCH  24  26
ATOM     26  N   UNL     1      -0.847  11.660  22.804  0.00  0.00    +0.000 N 
ATOM     27  O   UNL     1      -0.982  12.763  23.351  0.00  0.00    +0.000 OA
ATOM     28  O   UNL     1      -0.738  10.572  23.383  0.00  0.00    +0.000 OA
ENDBRANCH  24  26
ENDBRANCH  19  21
ENDBRANCH  18  19
ENDBRANCH  17  18
ENDBRANCH   2  17
TORSDOF 9
ENDMDL
