MODEL 1
REMARK VINA RESULT:      -9.2      0.000      0.000
REMARK  Name = 
REMARK  5 active torsions:
REMARK  status: ('A' for Active; 'I' for Inactive)
REMARK    1  A    between atoms: C_1  and  C_2
REMARK    2  A    between atoms: C_7  and  C_8
REMARK    3  A    between atoms: C_8  and  C_9
REMARK    4  A    between atoms: N_11  and  C_12
REMARK    5  A    between atoms: C_15  and  N_16
REMARK                            x       y       z     vdW  Elec       q    Type
REMARK                         _______ _______ _______ _____ _____    ______ ____
ROOT
ATOM      1  C   UNL     1       2.345   7.540  19.045  0.00  0.00    +0.000 A 
ATOM      2  C   UNL     1       1.706   7.889  20.237  0.00  0.00    +0.000 A 
ATOM      3  C   UNL     1       0.833   8.993  20.286  0.00  0.00    +0.000 A 
ATOM      4  C   UNL     1       0.557   9.733  19.127  0.00  0.00    +0.000 A 
ATOM      5  C   UNL     1       1.252   9.418  17.955  0.00  0.00    +0.000 A 
ATOM      6  C   UNL     1       2.151   8.339  17.919  0.00  0.00    +0.000 A 
ENDROOT
BRANCH   4   7
ATOM      7  N   UNL     1      -0.419  10.780  19.139  0.00  0.00    +0.000 N 
ATOM      8  C   UNL     1      -1.636  10.741  18.493  0.00  0.00    +0.000 A 
ATOM      9  C   UNL     1      -2.346  11.881  18.748  0.00  0.00    +0.000 A 
ATOM     10  C   UNL     1      -1.570  12.705  19.537  0.00  0.00    +0.000 A 
ATOM     11  N   UNL     1      -1.875  13.932  20.002  0.00  0.00    +0.000 NA
ATOM     12  C   UNL     1      -0.899  14.486  20.714  0.00  0.00    +0.000 A 
ATOM     13  N   UNL     1       0.305  13.963  20.983  0.00  0.00    +0.000 NA
ATOM     14  C   UNL     1       0.611  12.739  20.511  0.00  0.00    +0.000 A 
ATOM     15  N   UNL     1       1.907  12.328  20.781  0.00  0.00    +0.000 N 
ATOM     16  C   UNL     1      -0.355  12.041  19.781  0.00  0.00    +0.000 A 
ATOM     17  C   UNL     1      -3.697  11.855  18.155  0.00  0.00    +0.000 C 
ATOM     18  C   UNL     1      -3.861  10.334  17.840  0.00  0.00    +0.000 C 
ATOM     19  C   UNL     1      -2.415   9.731  17.736  0.00  0.00    +0.000 C 
ATOM     20  H   UNL     1       2.433  13.118  21.138  0.00  0.00    +0.000 HD
ATOM     21  H   UNL     1       2.346  11.846  20.008  0.00  0.00    +0.000 HD
ENDBRANCH   4   7
BRANCH   1  24
ATOM     22  C   UNL     1       2.786   5.140  18.626  0.00  0.00    +0.000 C 
ATOM     23  O   UNL     1       1.625   4.822  18.372  0.00  0.00    +0.000 OA
ATOM     24  N   UNL     1       3.206   6.428  18.930  0.00  0.00    +0.000 N 
ATOM     25  H   UNL     1       4.182   6.626  18.721  0.00  0.00    +0.000 HD
BRANCH  22  26
ATOM     26  C   UNL     1       3.901   4.100  18.634  0.00  0.00    +0.000 C 
BRANCH  26  33
ATOM     27  C   UNL     1       5.970   3.938  14.018  0.00  0.00    +0.000 C 
ATOM     28  C   UNL     1       6.086   4.255  15.482  0.00  0.00    +0.000 A 
ATOM     29  C   UNL     1       7.295   4.713  16.016  0.00  0.00    +0.000 A 
ATOM     30  C   UNL     1       7.394   4.995  17.379  0.00  0.00    +0.000 A 
ATOM     31  C   UNL     1       6.289   4.819  18.203  0.00  0.00    +0.000 A 
ATOM     32  F   UNL     1       6.419   5.070  19.515  0.00  0.00    +0.000 F 
ATOM     33  C   UNL     1       5.064   4.365  17.707  0.00  0.00    +0.000 A 
ATOM     34  C   UNL     1       4.977   4.084  16.331  0.00  0.00    +0.000 A 
ENDBRANCH  26  33
ENDBRANCH  22  26
ENDBRANCH   1  24
TORSDOF 4
ENDMDL
MODEL 2
REMARK VINA RESULT:      -8.9      3.216      9.589
REMARK  Name = 
REMARK  5 active torsions:
REMARK  status: ('A' for Active; 'I' for Inactive)
REMARK    1  A    between atoms: C_1  and  C_2
REMARK    2  A    between atoms: C_7  and  C_8
REMARK    3  A    between atoms: C_8  and  C_9
REMARK    4  A    between atoms: N_11  and  C_12
REMARK    5  A    between atoms: C_15  and  N_16
REMARK                            x       y       z     vdW  Elec       q    Type
REMARK                         _______ _______ _______ _____ _____    ______ ____
ROOT
ATOM      1  C   UNL     1       0.906   9.137  18.997  0.00  0.00    +0.000 A 
ATOM      2  C   UNL     1       1.536   8.791  17.799  0.00  0.00    +0.000 A 
ATOM      3  C   UNL     1       2.521   7.785  17.772  0.00  0.00    +0.000 A 
ATOM      4  C   UNL     1       2.854   7.083  18.939  0.00  0.00    +0.000 A 
ATOM      5  C   UNL     1       2.267   7.482  20.145  0.00  0.00    +0.000 A 
ATOM      6  C   UNL     1       1.312   8.511  20.176  0.00  0.00    +0.000 A 
ENDROOT
BRANCH   4   7
ATOM      7  N   UNL     1       3.764   5.979  18.898  0.00  0.00    +0.000 N 
ATOM      8  C   UNL     1       4.958   5.957  18.210  0.00  0.00    +0.000 A 
ATOM      9  C   UNL     1       5.605   4.772  18.420  0.00  0.00    +0.000 A 
ATOM     10  C   UNL     1       4.808   3.980  19.222  0.00  0.00    +0.000 A 
ATOM     11  N   UNL     1       5.053   2.729  19.654  0.00  0.00    +0.000 NA
ATOM     12  C   UNL     1       4.070   2.220  20.391  0.00  0.00    +0.000 A 
ATOM     13  N   UNL     1       2.911   2.811  20.712  0.00  0.00    +0.000 NA
ATOM     14  C   UNL     1       2.663   4.060  20.272  0.00  0.00    +0.000 A 
ATOM     15  N   UNL     1       1.406   4.543  20.595  0.00  0.00    +0.000 N 
ATOM     16  C   UNL     1       3.645   4.712  19.520  0.00  0.00    +0.000 A 
ATOM     17  C   UNL     1       6.933   4.728  17.779  0.00  0.00    +0.000 C 
ATOM     18  C   UNL     1       7.179   6.242  17.485  0.00  0.00    +0.000 C 
ATOM     19  C   UNL     1       5.771   6.933  17.443  0.00  0.00    +0.000 C 
ATOM     20  H   UNL     1       0.844   3.779  20.957  0.00  0.00    +0.000 HD
ATOM     21  H   UNL     1       0.970   5.065  19.847  0.00  0.00    +0.000 HD
ENDBRANCH   4   7
BRANCH   1  24
ATOM     22  C   UNL     1       0.119  11.485  19.024  0.00  0.00    +0.000 C 
ATOM     23  O   UNL     1       1.217  12.007  18.845  0.00  0.00    +0.000 OA
ATOM     24  N   UNL     1      -0.107  10.116  19.080  0.00  0.00    +0.000 N 
ATOM     25  H   UNL     1      -1.047   9.820  18.828  0.00  0.00    +0.000 HD
BRANCH  22  26
ATOM     26  C   UNL     1      -1.134  12.333  19.211  0.00  0.00    +0.000 C 
BRANCH  26  33
ATOM     27  C   UNL     1      -3.286  10.516  15.007  0.00  0.00    +0.000 C 
ATOM     28  C   UNL     1      -3.415  11.040  16.409  0.00  0.00    +0.000 A 
ATOM     29  C   UNL     1      -4.676  11.201  16.994  0.00  0.00    +0.000 A 
ATOM     30  C   UNL     1      -4.785  11.697  18.293  0.00  0.00    +0.000 A 
ATOM     31  C   UNL     1      -3.638  12.032  19.003  0.00  0.00    +0.000 A 
ATOM     32  F   UNL     1      -3.771  12.534  20.241  0.00  0.00    +0.000 F 
ATOM     33  C   UNL     1      -2.361  11.884  18.454  0.00  0.00    +0.000 A 
ATOM     34  C   UNL     1      -2.264  11.383  17.144  0.00  0.00    +0.000 A 
ENDBRANCH  26  33
ENDBRANCH  22  26
ENDBRANCH   1  24
TORSDOF 4
ENDMDL
MODEL 3
REMARK VINA RESULT:      -8.9      1.964      2.440
REMARK  Name = 
REMARK  5 active torsions:
REMARK  status: ('A' for Active; 'I' for Inactive)
REMARK    1  A    between atoms: C_1  and  C_2
REMARK    2  A    between atoms: C_7  and  C_8
REMARK    3  A    between atoms: C_8  and  C_9
REMARK    4  A    between atoms: N_11  and  C_12
REMARK    5  A    between atoms: C_15  and  N_16
REMARK                            x       y       z     vdW  Elec       q    Type
REMARK                         _______ _______ _______ _____ _____    ______ ____
ROOT
ATOM      1  C   UNL     1       2.509   7.102  18.417  0.00  0.00    +0.000 A 
ATOM      2  C   UNL     1       2.040   8.120  17.583  0.00  0.00    +0.000 A 
ATOM      3  C   UNL     1       1.425   9.264  18.124  0.00  0.00    +0.000 A 
ATOM      4  C   UNL     1       1.312   9.421  19.513  0.00  0.00    +0.000 A 
ATOM      5  C   UNL     1       1.722   8.368  20.337  0.00  0.00    +0.000 A 
ATOM      6  C   UNL     1       2.302   7.210  19.792  0.00  0.00    +0.000 A 
ENDROOT
BRANCH   4   7
ATOM      7  N   UNL     1       0.799  10.632  20.076  0.00  0.00    +0.000 N 
ATOM      8  C   UNL     1      -0.092  10.708  21.125  0.00  0.00    +0.000 A 
ATOM      9  C   UNL     1      -0.340  12.013  21.446  0.00  0.00    +0.000 A 
ATOM     10  C   UNL     1       0.362  12.814  20.568  0.00  0.00    +0.000 A 
ATOM     11  N   UNL     1       0.386  14.159  20.514  0.00  0.00    +0.000 NA
ATOM     12  C   UNL     1       1.139  14.637  19.528  0.00  0.00    +0.000 A 
ATOM     13  N   UNL     1       1.828  13.931  18.621  0.00  0.00    +0.000 NA
ATOM     14  C   UNL     1       1.797  12.585  18.671  0.00  0.00    +0.000 A 
ATOM     15  N   UNL     1       2.479  11.957  17.642  0.00  0.00    +0.000 N 
ATOM     16  C   UNL     1       1.069  11.969  19.694  0.00  0.00    +0.000 A 
ATOM     17  C   UNL     1      -1.218  12.153  22.623  0.00  0.00    +0.000 C 
ATOM     18  C   UNL     1      -1.138  10.718  23.234  0.00  0.00    +0.000 C 
ATOM     19  C   UNL     1      -0.714   9.751  22.073  0.00  0.00    +0.000 C 
ATOM     20  H   UNL     1       2.726  12.648  16.943  0.00  0.00    +0.000 HD
ATOM     21  H   UNL     1       1.999  11.144  17.277  0.00  0.00    +0.000 HD
ENDBRANCH   4   7
BRANCH   1  24
ATOM     22  C   UNL     1       2.548   4.710  17.777  0.00  0.00    +0.000 C 
ATOM     23  O   UNL     1       1.358   4.483  17.992  0.00  0.00    +0.000 OA
ATOM     24  N   UNL     1       3.160   5.947  17.932  0.00  0.00    +0.000 N 
ATOM     25  H   UNL     1       3.988   6.096  17.362  0.00  0.00    +0.000 HD
BRANCH  22  26
ATOM     26  C   UNL     1       3.485   3.603  17.307  0.00  0.00    +0.000 C 
BRANCH  26  33
ATOM     27  C   UNL     1       6.859   4.561  13.657  0.00  0.00    +0.000 C 
ATOM     28  C   UNL     1       6.517   4.468  15.118  0.00  0.00    +0.000 A 
ATOM     29  C   UNL     1       7.495   4.697  16.092  0.00  0.00    +0.000 A 
ATOM     30  C   UNL     1       7.169   4.598  17.445  0.00  0.00    +0.000 A 
ATOM     31  C   UNL     1       5.872   4.272  17.821  0.00  0.00    +0.000 A 
ATOM     32  F   UNL     1       5.590   4.156  19.129  0.00  0.00    +0.000 F 
ATOM     33  C   UNL     1       4.866   4.039  16.878  0.00  0.00    +0.000 A 
ATOM     34  C   UNL     1       5.208   4.140  15.517  0.00  0.00    +0.000 A 
ENDBRANCH  26  33
ENDBRANCH  22  26
ENDBRANCH   1  24
TORSDOF 4
ENDMDL
MODEL 4
REMARK VINA RESULT:      -8.9      3.249     10.057
REMARK  Name = 
REMARK  5 active torsions:
REMARK  status: ('A' for Active; 'I' for Inactive)
REMARK    1  A    between atoms: C_1  and  C_2
REMARK    2  A    between atoms: C_7  and  C_8
REMARK    3  A    between atoms: C_8  and  C_9
REMARK    4  A    between atoms: N_11  and  C_12
REMARK    5  A    between atoms: C_15  and  N_16
REMARK                            x       y       z     vdW  Elec       q    Type
REMARK                         _______ _______ _______ _____ _____    ______ ____
ROOT
ATOM      1  C   UNL     1       1.005   9.495  19.082  0.00  0.00    +0.000 A 
ATOM      2  C   UNL     1       1.262   8.733  20.225  0.00  0.00    +0.000 A 
ATOM      3  C   UNL     1       2.059   7.576  20.150  0.00  0.00    +0.000 A 
ATOM      4  C   UNL     1       2.645   7.192  18.935  0.00  0.00    +0.000 A 
ATOM      5  C   UNL     1       2.327   7.921  17.784  0.00  0.00    +0.000 A 
ATOM      6  C   UNL     1       1.500   9.055  17.855  0.00  0.00    +0.000 A 
ENDROOT
BRANCH   4   7
ATOM      7  N   UNL     1       3.553   6.088  18.873  0.00  0.00    +0.000 N 
ATOM      8  C   UNL     1       4.735   6.068  18.164  0.00  0.00    +0.000 A 
ATOM      9  C   UNL     1       5.385   4.881  18.356  0.00  0.00    +0.000 A 
ATOM     10  C   UNL     1       4.600   4.086  19.168  0.00  0.00    +0.000 A 
ATOM     11  N   UNL     1       4.850   2.832  19.588  0.00  0.00    +0.000 NA
ATOM     12  C   UNL     1       3.879   2.320  20.339  0.00  0.00    +0.000 A 
ATOM     13  N   UNL     1       2.726   2.910  20.683  0.00  0.00    +0.000 NA
ATOM     14  C   UNL     1       2.473   4.162  20.254  0.00  0.00    +0.000 A 
ATOM     15  N   UNL     1       1.222   4.645  20.601  0.00  0.00    +0.000 N 
ATOM     16  C   UNL     1       3.443   4.817  19.489  0.00  0.00    +0.000 A 
ATOM     17  C   UNL     1       6.702   4.839  17.694  0.00  0.00    +0.000 C 
ATOM     18  C   UNL     1       6.945   6.354  17.404  0.00  0.00    +0.000 C 
ATOM     19  C   UNL     1       5.536   7.047  17.389  0.00  0.00    +0.000 C 
ATOM     20  H   UNL     1       0.666   3.880  20.967  0.00  0.00    +0.000 HD
ATOM     21  H   UNL     1       0.774   5.172  19.863  0.00  0.00    +0.000 HD
ENDBRANCH   4   7
BRANCH   1  24
ATOM     22  C   UNL     1      -1.097  10.755  18.728  0.00  0.00    +0.000 C 
ATOM     23  O   UNL     1      -1.785   9.795  18.384  0.00  0.00    +0.000 OA
ATOM     24  N   UNL     1       0.238  10.680  19.103  0.00  0.00    +0.000 N 
ATOM     25  H   UNL     1       0.556  11.418  19.725  0.00  0.00    +0.000 HD
BRANCH  22  26
ATOM     26  C   UNL     1      -1.679  12.164  18.768  0.00  0.00    +0.000 C 
BRANCH  26  33
ATOM     27  C   UNL     1      -3.377  12.968  23.467  0.00  0.00    +0.000 C 
ATOM     28  C   UNL     1      -3.655  12.736  22.009  0.00  0.00    +0.000 A 
ATOM     29  C   UNL     1      -4.970  12.632  21.543  0.00  0.00    +0.000 A 
ATOM     30  C   UNL     1      -5.215  12.406  20.189  0.00  0.00    +0.000 A 
ATOM     31  C   UNL     1      -4.150  12.285  19.305  0.00  0.00    +0.000 A 
ATOM     32  F   UNL     1      -4.412  12.040  18.011  0.00  0.00    +0.000 F 
ATOM     33  C   UNL     1      -2.822  12.384  19.731  0.00  0.00    +0.000 A 
ATOM     34  C   UNL     1      -2.588  12.611  21.099  0.00  0.00    +0.000 A 
ENDBRANCH  26  33
ENDBRANCH  22  26
ENDBRANCH   1  24
TORSDOF 4
ENDMDL
MODEL 5
REMARK VINA RESULT:      -8.8      3.160     10.018
REMARK  Name = 
REMARK  5 active torsions:
REMARK  status: ('A' for Active; 'I' for Inactive)
REMARK    1  A    between atoms: C_1  and  C_2
REMARK    2  A    between atoms: C_7  and  C_8
REMARK    3  A    between atoms: C_8  and  C_9
REMARK    4  A    between atoms: N_11  and  C_12
REMARK    5  A    between atoms: C_15  and  N_16
REMARK                            x       y       z     vdW  Elec       q    Type
REMARK                         _______ _______ _______ _____ _____    ______ ____
ROOT
ATOM      1  C   UNL     1       1.325   9.192  19.642  0.00  0.00    +0.000 A 
ATOM      2  C   UNL     1       1.633   8.142  20.509  0.00  0.00    +0.000 A 
ATOM      3  C   UNL     1       2.193   6.947  20.018  0.00  0.00    +0.000 A 
ATOM      4  C   UNL     1       2.492   6.810  18.655  0.00  0.00    +0.000 A 
ATOM      5  C   UNL     1       2.119   7.839  17.785  0.00  0.00    +0.000 A 
ATOM      6  C   UNL     1       1.526   9.016  18.273  0.00  0.00    +0.000 A 
ENDROOT
BRANCH   4   7
ATOM      7  N   UNL     1       3.172   5.649  18.166  0.00  0.00    +0.000 N 
ATOM      8  C   UNL     1       4.229   5.658  17.282  0.00  0.00    +0.000 A 
ATOM      9  C   UNL     1       4.674   4.386  17.059  0.00  0.00    +0.000 A 
ATOM     10  C   UNL     1       3.871   3.517  17.770  0.00  0.00    +0.000 A 
ATOM     11  N   UNL     1       3.944   2.173  17.817  0.00  0.00    +0.000 NA
ATOM     12  C   UNL     1       3.003   1.617  18.573  0.00  0.00    +0.000 A 
ATOM     13  N   UNL     1       2.028   2.245  19.245  0.00  0.00    +0.000 NA
ATOM     14  C   UNL     1       1.951   3.589  19.191  0.00  0.00    +0.000 A 
ATOM     15  N   UNL     1       0.862   4.128  19.856  0.00  0.00    +0.000 N 
ATOM     16  C   UNL     1       2.916   4.286  18.457  0.00  0.00    +0.000 A 
ATOM     17  C   UNL     1       5.865   4.343  16.190  0.00  0.00    +0.000 C 
ATOM     18  C   UNL     1       6.337   5.831  16.248  0.00  0.00    +0.000 C 
ATOM     19  C   UNL     1       5.086   6.690  16.649  0.00  0.00    +0.000 C 
ATOM     20  H   UNL     1       0.230   3.377  20.112  0.00  0.00    +0.000 HD
ATOM     21  H   UNL     1       0.425   4.894  19.360  0.00  0.00    +0.000 HD
ENDBRANCH   4   7
BRANCH   1  24
ATOM     22  C   UNL     1      -0.487  10.875  19.775  0.00  0.00    +0.000 C 
ATOM     23  O   UNL     1      -1.320  10.241  19.131  0.00  0.00    +0.000 OA
ATOM     24  N   UNL     1       0.790  10.423  20.081  0.00  0.00    +0.000 N 
ATOM     25  H   UNL     1       1.206  10.829  20.915  0.00  0.00    +0.000 HD
BRANCH  22  26
ATOM     26  C   UNL     1      -0.800  12.270  20.307  0.00  0.00    +0.000 C 
BRANCH  26  33
ATOM     27  C   UNL     1      -5.647  13.529  21.037  0.00  0.00    +0.000 C 
ATOM     28  C   UNL     1      -4.340  13.024  21.582  0.00  0.00    +0.000 A 
ATOM     29  C   UNL     1      -4.201  12.739  22.945  0.00  0.00    +0.000 A 
ATOM     30  C   UNL     1      -2.980  12.281  23.441  0.00  0.00    +0.000 A 
ATOM     31  C   UNL     1      -1.904  12.110  22.578  0.00  0.00    +0.000 A 
ATOM     32  F   UNL     1      -0.732  11.694  23.085  0.00  0.00    +0.000 F 
ATOM     33  C   UNL     1      -2.004  12.382  21.211  0.00  0.00    +0.000 A 
ATOM     34  C   UNL     1      -3.240  12.844  20.723  0.00  0.00    +0.000 A 
ENDBRANCH  26  33
ENDBRANCH  22  26
ENDBRANCH   1  24
TORSDOF 4
ENDMDL
MODEL 6
REMARK VINA RESULT:      -8.7      3.020      9.917
REMARK  Name = 
REMARK  5 active torsions:
REMARK  status: ('A' for Active; 'I' for Inactive)
REMARK    1  A    between atoms: C_1  and  C_2
REMARK    2  A    between atoms: C_7  and  C_8
REMARK    3  A    between atoms: C_8  and  C_9
REMARK    4  A    between atoms: N_11  and  C_12
REMARK    5  A    between atoms: C_15  and  N_16
REMARK                            x       y       z     vdW  Elec       q    Type
REMARK                         _______ _______ _______ _____ _____    ______ ____
ROOT
ATOM      1  C   UNL     1       1.029   9.354  19.006  0.00  0.00    +0.000 A 
ATOM      2  C   UNL     1       1.299   8.618  20.162  0.00  0.00    +0.000 A 
ATOM      3  C   UNL     1       2.127   7.481  20.111  0.00  0.00    +0.000 A 
ATOM      4  C   UNL     1       2.733   7.096  18.906  0.00  0.00    +0.000 A 
ATOM      5  C   UNL     1       2.404   7.798  17.742  0.00  0.00    +0.000 A 
ATOM      6  C   UNL     1       1.546   8.910  17.790  0.00  0.00    +0.000 A 
ENDROOT
BRANCH   4   7
ATOM      7  N   UNL     1       3.671   6.016  18.867  0.00  0.00    +0.000 N 
ATOM      8  C   UNL     1       4.868   6.025  18.184  0.00  0.00    +0.000 A 
ATOM      9  C   UNL     1       5.545   4.857  18.395  0.00  0.00    +0.000 A 
ATOM     10  C   UNL     1       4.764   4.044  19.192  0.00  0.00    +0.000 A 
ATOM     11  N   UNL     1       5.040   2.798  19.623  0.00  0.00    +0.000 NA
ATOM     12  C   UNL     1       4.067   2.263  20.355  0.00  0.00    +0.000 A 
ATOM     13  N   UNL     1       2.891   2.823  20.672  0.00  0.00    +0.000 NA
ATOM     14  C   UNL     1       2.614   4.066  20.233  0.00  0.00    +0.000 A 
ATOM     15  N   UNL     1       1.343   4.516  20.551  0.00  0.00    +0.000 N 
ATOM     16  C   UNL     1       3.582   4.745  19.487  0.00  0.00    +0.000 A 
ATOM     17  C   UNL     1       6.877   4.848  17.760  0.00  0.00    +0.000 C 
ATOM     18  C   UNL     1       7.085   6.368  17.470  0.00  0.00    +0.000 C 
ATOM     19  C   UNL     1       5.659   7.023  17.423  0.00  0.00    +0.000 C 
ATOM     20  H   UNL     1       0.800   3.738  20.909  0.00  0.00    +0.000 HD
ATOM     21  H   UNL     1       0.897   5.029  19.801  0.00  0.00    +0.000 HD
ENDBRANCH   4   7
BRANCH   1  24
ATOM     22  C   UNL     1      -0.921  10.675  18.242  0.00  0.00    +0.000 C 
ATOM     23  O   UNL     1      -1.411   9.807  17.523  0.00  0.00    +0.000 OA
ATOM     24  N   UNL     1       0.230  10.518  19.003  0.00  0.00    +0.000 N 
ATOM     25  H   UNL     1       0.295  11.118  19.821  0.00  0.00    +0.000 HD
BRANCH  22  26
ATOM     26  C   UNL     1      -1.564  12.053  18.359  0.00  0.00    +0.000 C 
BRANCH  26  33
ATOM     27  C   UNL     1      -6.567  11.316  18.167  0.00  0.00    +0.000 C 
ATOM     28  C   UNL     1      -5.352  11.781  18.918  0.00  0.00    +0.000 A 
ATOM     29  C   UNL     1      -5.475  12.344  20.193  0.00  0.00    +0.000 A 
ATOM     30  C   UNL     1      -4.340  12.782  20.876  0.00  0.00    +0.000 A 
ATOM     31  C   UNL     1      -3.089  12.658  20.286  0.00  0.00    +0.000 A 
ATOM     32  F   UNL     1      -2.015  13.112  20.953  0.00  0.00    +0.000 F 
ATOM     33  C   UNL     1      -2.923  12.100  19.015  0.00  0.00    +0.000 A 
ATOM     34  C   UNL     1      -4.075  11.663  18.336  0.00  0.00    +0.000 A 
ENDBRANCH  26  33
ENDBRANCH  22  26
ENDBRANCH   1  24
TORSDOF 4
ENDMDL
MODEL 7
REMARK VINA RESULT:      -8.7      3.115      9.778
REMARK  Name = 
REMARK  5 active torsions:
REMARK  status: ('A' for Active; 'I' for Inactive)
REMARK    1  A    between atoms: C_1  and  C_2
REMARK    2  A    between atoms: C_7  and  C_8
REMARK    3  A    between atoms: C_8  and  C_9
REMARK    4  A    between atoms: N_11  and  C_12
REMARK    5  A    between atoms: C_15  and  N_16
REMARK                            x       y       z     vdW  Elec       q    Type
REMARK                         _______ _______ _______ _____ _____    ______ ____
ROOT
ATOM      1  C   UNL     1       1.435   9.428  19.180  0.00  0.00    +0.000 A 
ATOM      2  C   UNL     1       1.845   9.210  17.863  0.00  0.00    +0.000 A 
ATOM      3  C   UNL     1       2.453   7.996  17.493  0.00  0.00    +0.000 A 
ATOM      4  C   UNL     1       2.616   6.967  18.432  0.00  0.00    +0.000 A 
ATOM      5  C   UNL     1       2.264   7.218  19.762  0.00  0.00    +0.000 A 
ATOM      6  C   UNL     1       1.692   8.446  20.136  0.00  0.00    +0.000 A 
ENDROOT
BRANCH   4   7
ATOM      7  N   UNL     1       3.121   5.687  18.038  0.00  0.00    +0.000 N 
ATOM      8  C   UNL     1       2.551   4.474  18.358  0.00  0.00    +0.000 A 
ATOM      9  C   UNL     1       3.256   3.451  17.787  0.00  0.00    +0.000 A 
ATOM     10  C   UNL     1       4.335   3.994  17.117  0.00  0.00    +0.000 A 
ATOM     11  N   UNL     1       5.296   3.343  16.434  0.00  0.00    +0.000 NA
ATOM     12  C   UNL     1       6.221   4.149  15.923  0.00  0.00    +0.000 A 
ATOM     13  N   UNL     1       6.284   5.483  16.035  0.00  0.00    +0.000 NA
ATOM     14  C   UNL     1       5.325   6.132  16.725  0.00  0.00    +0.000 A 
ATOM     15  N   UNL     1       5.530   7.497  16.844  0.00  0.00    +0.000 N 
ATOM     16  C   UNL     1       4.276   5.389  17.274  0.00  0.00    +0.000 A 
ATOM     17  C   UNL     1       2.638   2.133  18.021  0.00  0.00    +0.000 C 
ATOM     18  C   UNL     1       1.204   2.547  18.480  0.00  0.00    +0.000 C 
ATOM     19  C   UNL     1       1.305   4.017  19.021  0.00  0.00    +0.000 C 
ATOM     20  H   UNL     1       6.469   7.716  16.531  0.00  0.00    +0.000 HD
ATOM     21  H   UNL     1       5.298   7.861  17.759  0.00  0.00    +0.000 HD
ENDBRANCH   4   7
BRANCH   1  24
ATOM     22  C   UNL     1      -0.557  10.879  19.425  0.00  0.00    +0.000 C 
ATOM     23  O   UNL     1      -1.367  10.097  18.929  0.00  0.00    +0.000 OA
ATOM     24  N   UNL     1       0.794  10.613  19.602  0.00  0.00    +0.000 N 
ATOM     25  H   UNL     1       1.244  11.132  20.352  0.00  0.00    +0.000 HD
BRANCH  22  26
ATOM     26  C   UNL     1      -0.991  12.261  19.902  0.00  0.00    +0.000 C 
BRANCH  26  33
ATOM     27  C   UNL     1      -5.633  13.322  21.616  0.00  0.00    +0.000 C 
ATOM     28  C   UNL     1      -4.234  12.837  21.872  0.00  0.00    +0.000 A 
ATOM     29  C   UNL     1      -3.826  12.495  23.166  0.00  0.00    +0.000 A 
ATOM     30  C   UNL     1      -2.521  12.056  23.393  0.00  0.00    +0.000 A 
ATOM     31  C   UNL     1      -1.630  11.960  22.332  0.00  0.00    +0.000 A 
ATOM     32  F   UNL     1      -0.372  11.561  22.582  0.00  0.00    +0.000 F 
ATOM     33  C   UNL     1      -2.000  12.290  21.025  0.00  0.00    +0.000 A 
ATOM     34  C   UNL     1      -3.317  12.733  20.809  0.00  0.00    +0.000 A 
ENDBRANCH  26  33
ENDBRANCH  22  26
ENDBRANCH   1  24
TORSDOF 4
ENDMDL
MODEL 8
REMARK VINA RESULT:      -8.7      3.396     10.087
REMARK  Name = 
REMARK  5 active torsions:
REMARK  status: ('A' for Active; 'I' for Inactive)
REMARK    1  A    between atoms: C_1  and  C_2
REMARK    2  A    between atoms: C_7  and  C_8
REMARK    3  A    between atoms: C_8  and  C_9
REMARK    4  A    between atoms: N_11  and  C_12
REMARK    5  A    between atoms: C_15  and  N_16
REMARK                            x       y       z     vdW  Elec       q    Type
REMARK                         _______ _______ _______ _____ _____    ______ ____
ROOT
ATOM      1  C   UNL     1       1.412   9.279  19.726  0.00  0.00    +0.000 A 
ATOM      2  C   UNL     1       1.729   8.226  20.588  0.00  0.00    +0.000 A 
ATOM      3  C   UNL     1       2.219   7.008  20.082  0.00  0.00    +0.000 A 
ATOM      4  C   UNL     1       2.439   6.846  18.707  0.00  0.00    +0.000 A 
ATOM      5  C   UNL     1       2.056   7.879  17.846  0.00  0.00    +0.000 A 
ATOM      6  C   UNL     1       1.532   9.081  18.351  0.00  0.00    +0.000 A 
ENDROOT
BRANCH   4   7
ATOM      7  N   UNL     1       3.049   5.656  18.195  0.00  0.00    +0.000 N 
ATOM      8  C   UNL     1       4.047   5.618  17.245  0.00  0.00    +0.000 A 
ATOM      9  C   UNL     1       4.437   4.329  17.017  0.00  0.00    +0.000 A 
ATOM     10  C   UNL     1       3.655   3.497  17.793  0.00  0.00    +0.000 A 
ATOM     11  N   UNL     1       3.691   2.153  17.859  0.00  0.00    +0.000 NA
ATOM     12  C   UNL     1       2.783   1.639  18.684  0.00  0.00    +0.000 A 
ATOM     13  N   UNL     1       1.874   2.308  19.406  0.00  0.00    +0.000 NA
ATOM     14  C   UNL     1       1.835   3.653  19.333  0.00  0.00    +0.000 A 
ATOM     15  N   UNL     1       0.809   4.236  20.057  0.00  0.00    +0.000 N 
ATOM     16  C   UNL     1       2.771   4.307  18.527  0.00  0.00    +0.000 A 
ATOM     17  C   UNL     1       5.568   4.235  16.074  0.00  0.00    +0.000 C 
ATOM     18  C   UNL     1       6.088   5.708  16.075  0.00  0.00    +0.000 C 
ATOM     19  C   UNL     1       4.892   6.613  16.540  0.00  0.00    +0.000 C 
ATOM     20  H   UNL     1       0.171   3.510  20.366  0.00  0.00    +0.000 HD
ATOM     21  H   UNL     1       0.364   5.007  19.577  0.00  0.00    +0.000 HD
ENDBRANCH   4   7
BRANCH   1  24
ATOM     22  C   UNL     1      -0.045  10.699  21.138  0.00  0.00    +0.000 C 
ATOM     23  O   UNL     1      -0.596   9.783  21.744  0.00  0.00    +0.000 OA
ATOM     24  N   UNL     1       0.945  10.532  20.179  0.00  0.00    +0.000 N 
ATOM     25  H   UNL     1       1.575  11.321  20.063  0.00  0.00    +0.000 HD
BRANCH  22  26
ATOM     26  C   UNL     1      -0.423  12.153  21.399  0.00  0.00    +0.000 C 
BRANCH  26  33
ATOM     27  C   UNL     1      -4.298  12.501  24.635  0.00  0.00    +0.000 C 
ATOM     28  C   UNL     1      -3.773  12.555  23.229  0.00  0.00    +0.000 A 
ATOM     29  C   UNL     1      -4.642  12.764  22.152  0.00  0.00    +0.000 A 
ATOM     30  C   UNL     1      -4.145  12.802  20.850  0.00  0.00    +0.000 A 
ATOM     31  C   UNL     1      -2.785  12.631  20.625  0.00  0.00    +0.000 A 
ATOM     32  F   UNL     1      -2.335  12.644  19.359  0.00  0.00    +0.000 F 
ATOM     33  C   UNL     1      -1.884  12.422  21.673  0.00  0.00    +0.000 A 
ATOM     34  C   UNL     1      -2.397  12.385  22.981  0.00  0.00    +0.000 A 
ENDBRANCH  26  33
ENDBRANCH  22  26
ENDBRANCH   1  24
TORSDOF 4
ENDMDL
MODEL 9
REMARK VINA RESULT:      -8.7      7.081      8.718
REMARK  Name = 
REMARK  5 active torsions:
REMARK  status: ('A' for Active; 'I' for Inactive)
REMARK    1  A    between atoms: C_1  and  C_2
REMARK    2  A    between atoms: C_7  and  C_8
REMARK    3  A    between atoms: C_8  and  C_9
REMARK    4  A    between atoms: N_11  and  C_12
REMARK    5  A    between atoms: C_15  and  N_16
REMARK                            x       y       z     vdW  Elec       q    Type
REMARK                         _______ _______ _______ _____ _____    ______ ____
ROOT
ATOM      1  C   UNL     1       8.969   9.864  18.991  0.00  0.00    +0.000 A 
ATOM      2  C   UNL     1       9.544  10.595  20.033  0.00  0.00    +0.000 A 
ATOM      3  C   UNL     1       9.670  11.994  19.943  0.00  0.00    +0.000 A 
ATOM      4  C   UNL     1       9.179  12.682  18.823  0.00  0.00    +0.000 A 
ATOM      5  C   UNL     1       8.667  11.936  17.757  0.00  0.00    +0.000 A 
ATOM      6  C   UNL     1       8.576  10.536  17.834  0.00  0.00    +0.000 A 
ENDROOT
BRANCH   4   7
ATOM      7  N   UNL     1       9.193  14.112  18.775  0.00  0.00    +0.000 N 
ATOM      8  C   UNL     1       8.231  14.936  19.318  0.00  0.00    +0.000 A 
ATOM      9  C   UNL     1       8.572  16.248  19.138  0.00  0.00    +0.000 A 
ATOM     10  C   UNL     1       9.754  16.292  18.426  0.00  0.00    +0.000 A 
ATOM     11  N   UNL     1      10.431  17.381  18.015  0.00  0.00    +0.000 NA
ATOM     12  C   UNL     1      11.527  17.093  17.319  0.00  0.00    +0.000 A 
ATOM     13  N   UNL     1      11.983  15.875  16.996  0.00  0.00    +0.000 NA
ATOM     14  C   UNL     1      11.300  14.787  17.401  0.00  0.00    +0.000 A 
ATOM     15  N   UNL     1      11.816  13.584  16.947  0.00  0.00    +0.000 N 
ATOM     16  C   UNL     1      10.151  14.967  18.177  0.00  0.00    +0.000 A 
ATOM     17  C   UNL     1       7.622  17.176  19.780  0.00  0.00    +0.000 C 
ATOM     18  C   UNL     1       6.860  16.213  20.744  0.00  0.00    +0.000 C 
ATOM     19  C   UNL     1       7.026  14.763  20.165  0.00  0.00    +0.000 C 
ATOM     20  H   UNL     1      12.519  13.775  16.241  0.00  0.00    +0.000 HD
ATOM     21  H   UNL     1      11.106  12.922  16.662  0.00  0.00    +0.000 HD
ENDBRANCH   4   7
BRANCH   1  24
ATOM     22  C   UNL     1       7.979   7.748  18.168  0.00  0.00    +0.000 C 
ATOM     23  O   UNL     1       7.362   8.236  17.222  0.00  0.00    +0.000 OA
ATOM     24  N   UNL     1       8.789   8.464  19.039  0.00  0.00    +0.000 N 
ATOM     25  H   UNL     1       9.525   7.926  19.488  0.00  0.00    +0.000 HD
BRANCH  22  26
ATOM     26  C   UNL     1       7.895   6.257  18.474  0.00  0.00    +0.000 C 
BRANCH  26  33
ATOM     27  C   UNL     1       6.282   3.923  14.284  0.00  0.00    +0.000 C 
ATOM     28  C   UNL     1       6.030   4.384  15.691  0.00  0.00    +0.000 A 
ATOM     29  C   UNL     1       4.783   4.182  16.294  0.00  0.00    +0.000 A 
ATOM     30  C   UNL     1       4.558   4.623  17.598  0.00  0.00    +0.000 A 
ATOM     31  C   UNL     1       5.574   5.264  18.296  0.00  0.00    +0.000 A 
ATOM     32  F   UNL     1       5.323   5.703  19.539  0.00  0.00    +0.000 F 
ATOM     33  C   UNL     1       6.834   5.483  17.730  0.00  0.00    +0.000 A 
ATOM     34  C   UNL     1       7.048   5.035  16.414  0.00  0.00    +0.000 A 
ENDBRANCH  26  33
ENDBRANCH  22  26
ENDBRANCH   1  24
TORSDOF 4
ENDMDL
