MODEL 1
REMARK VINA RESULT:      -7.4      0.000      0.000
REMARK  Name = 
REMARK  7 active torsions:
REMARK  status: ('A' for Active; 'I' for Inactive)
REMARK    1  A    between atoms: C_2  and  C_3
REMARK    2  A    between atoms: N_10  and  C_11
REMARK    3  A    between atoms: N_10  and  C_21
REMARK    4  A    between atoms: C_11  and  C_12
REMARK    5  A    between atoms: C_21  and  C_22
REMARK    6  A    between atoms: C_23  and  C_24
REMARK    7  A    between atoms: C_32  and  N_33
REMARK                            x       y       z     vdW  Elec       q    Type
REMARK                         _______ _______ _______ _____ _____    ______ ____
ROOT
ATOM      1  O   UNL     1       1.859  12.699  21.209  0.00  0.00    +0.000 OA
ATOM      2  C   UNL     1       1.035  13.126  20.386  0.00  0.00    +0.000 C 
ATOM      3  N   UNL     1      -0.103  12.376  20.044  0.00  0.00    +0.000 N 
ENDROOT
BRANCH   2   4
ATOM      4  C   UNL     1       1.290  14.490  19.813  0.00  0.00    +0.000 A 
ATOM      5  C   UNL     1       0.731  15.670  20.323  0.00  0.00    +0.000 A 
ATOM      6  C   UNL     1       1.099  16.933  19.849  0.00  0.00    +0.000 A 
ATOM      7  C   UNL     1       1.954  17.034  18.765  0.00  0.00    +0.000 A 
ATOM      8  C   UNL     1       2.425  15.869  18.159  0.00  0.00    +0.000 A 
ATOM      9  C   UNL     1       2.102  14.613  18.688  0.00  0.00    +0.000 A 
ATOM     10  F   UNL     1       2.610  13.532  18.079  0.00  0.00    +0.000 F 
ENDBRANCH   2   4
BRANCH   3  11
ATOM     11  C   UNL     1      -0.374  11.109  20.726  0.00  0.00    +0.000 C 
BRANCH  11  12
ATOM     12  C   UNL     1       0.431   9.939  20.239  0.00  0.00    +0.000 A 
ATOM     13  C   UNL     1       0.721   8.883  21.128  0.00  0.00    +0.000 A 
ATOM     14  C   UNL     1       1.537   7.825  20.734  0.00  0.00    +0.000 A 
ATOM     15  C   UNL     1       2.044   7.855  19.456  0.00  0.00    +0.000 A 
ATOM     16  C   UNL     1       1.775   8.888  18.585  0.00  0.00    +0.000 A 
ATOM     17  C   UNL     1       0.975   9.945  18.944  0.00  0.00    +0.000 A 
ATOM     18  O   UNL     1       2.393   8.737  17.385  0.00  0.00    +0.000 OA
ATOM     19  C   UNL     1       3.066   7.477  17.588  0.00  0.00    +0.000 C 
ATOM     20  O   UNL     1       2.862   6.920  18.903  0.00  0.00    +0.000 OA
ENDBRANCH  11  12
ENDBRANCH   3  11
BRANCH   3  21
ATOM     21  C   UNL     1      -1.097  12.775  19.060  0.00  0.00    +0.000 C 
BRANCH  21  22
ATOM     22  C   UNL     1      -2.530  12.589  19.482  0.00  0.00    +0.000 A 
ATOM     23  C   UNL     1      -3.181  13.392  20.497  0.00  0.00    +0.000 A 
ATOM     24  N   UNL     1      -4.480  13.068  20.577  0.00  0.00    +0.000 NA
ATOM     25  O   UNL     1      -4.716  12.130  19.608  0.00  0.00    +0.000 OA
ATOM     26  C   UNL     1      -3.568  11.822  18.942  0.00  0.00    +0.000 A 
BRANCH  23  27
ATOM     27  C   UNL     1      -2.662  14.479  21.356  0.00  0.00    +0.000 A 
ATOM     28  C   UNL     1      -2.905  15.837  21.098  0.00  0.00    +0.000 A 
ATOM     29  C   UNL     1      -2.411  16.842  21.938  0.00  0.00    +0.000 A 
ATOM     30  C   UNL     1      -1.698  16.506  23.082  0.00  0.00    +0.000 A 
ATOM     31  C   UNL     1      -1.476  15.167  23.381  0.00  0.00    +0.000 A 
ATOM     32  C   UNL     1      -1.947  14.164  22.524  0.00  0.00    +0.000 A 
ENDBRANCH  23  27
BRANCH  26  33
ATOM     33  N   UNL     1      -3.694  10.991  17.868  0.00  0.00    +0.000 N 
ATOM     34  C   UNL     1      -2.846   9.817  17.660  0.00  0.00    +0.000 C 
ATOM     35  C   UNL     1      -2.433   9.908  16.189  0.00  0.00    +0.000 C 
ATOM     36  C   UNL     1      -3.632  10.532  15.524  0.00  0.00    +0.000 C 
ATOM     37  C   UNL     1      -4.199  11.454  16.588  0.00  0.00    +0.000 C 
ENDBRANCH  26  33
ENDBRANCH  21  22
ENDBRANCH   3  21
TORSDOF 7
ENDMDL
MODEL 2
REMARK VINA RESULT:      -7.2      1.037      1.589
REMARK  Name = 
REMARK  7 active torsions:
REMARK  status: ('A' for Active; 'I' for Inactive)
REMARK    1  A    between atoms: C_2  and  C_3
REMARK    2  A    between atoms: N_10  and  C_11
REMARK    3  A    between atoms: N_10  and  C_21
REMARK    4  A    between atoms: C_11  and  C_12
REMARK    5  A    between atoms: C_21  and  C_22
REMARK    6  A    between atoms: C_23  and  C_24
REMARK    7  A    between atoms: C_32  and  N_33
REMARK                            x       y       z     vdW  Elec       q    Type
REMARK                         _______ _______ _______ _____ _____    ______ ____
ROOT
ATOM      1  O   UNL     1       1.826  12.420  21.194  0.00  0.00    +0.000 OA
ATOM      2  C   UNL     1       0.979  12.931  20.446  0.00  0.00    +0.000 C 
ATOM      3  N   UNL     1      -0.091  12.176  19.939  0.00  0.00    +0.000 N 
ENDROOT
BRANCH   2   4
ATOM      4  C   UNL     1       1.131  14.395  20.147  0.00  0.00    +0.000 A 
ATOM      5  C   UNL     1       1.184  14.927  18.852  0.00  0.00    +0.000 A 
ATOM      6  C   UNL     1       1.190  16.305  18.614  0.00  0.00    +0.000 A 
ATOM      7  C   UNL     1       1.260  17.184  19.682  0.00  0.00    +0.000 A 
ATOM      8  C   UNL     1       1.336  16.674  20.978  0.00  0.00    +0.000 A 
ATOM      9  C   UNL     1       1.262  15.294  21.204  0.00  0.00    +0.000 A 
ATOM     10  F   UNL     1       1.310  14.867  22.474  0.00  0.00    +0.000 F 
ENDBRANCH   2   4
BRANCH   3  11
ATOM     11  C   UNL     1      -0.268  10.785  20.363  0.00  0.00    +0.000 C 
BRANCH  11  12
ATOM     12  C   UNL     1       0.668   9.801  19.724  0.00  0.00    +0.000 A 
ATOM     13  C   UNL     1       1.010   9.956  18.364  0.00  0.00    +0.000 A 
ATOM     14  C   UNL     1       1.807   9.014  17.719  0.00  0.00    +0.000 A 
ATOM     15  C   UNL     1       2.239   7.935  18.455  0.00  0.00    +0.000 A 
ATOM     16  C   UNL     1       1.900   7.769  19.780  0.00  0.00    +0.000 A 
ATOM     17  C   UNL     1       1.116   8.682  20.444  0.00  0.00    +0.000 A 
ATOM     18  O   UNL     1       2.406   6.627  20.313  0.00  0.00    +0.000 OA
ATOM     19  C   UNL     1       3.125   6.100  19.178  0.00  0.00    +0.000 C 
ATOM     20  O   UNL     1       3.010   6.915  17.994  0.00  0.00    +0.000 OA
ENDBRANCH  11  12
ENDBRANCH   3  11
BRANCH   3  21
ATOM     21  C   UNL     1      -1.104  12.678  19.024  0.00  0.00    +0.000 C 
BRANCH  21  22
ATOM     22  C   UNL     1      -2.528  12.464  19.460  0.00  0.00    +0.000 A 
ATOM     23  C   UNL     1      -3.165  13.216  20.524  0.00  0.00    +0.000 A 
ATOM     24  N   UNL     1      -4.462  12.881  20.610  0.00  0.00    +0.000 NA
ATOM     25  O   UNL     1      -4.710  11.989  19.602  0.00  0.00    +0.000 OA
ATOM     26  C   UNL     1      -3.573  11.719  18.902  0.00  0.00    +0.000 A 
BRANCH  23  27
ATOM     27  C   UNL     1      -2.636  14.263  21.423  0.00  0.00    +0.000 A 
ATOM     28  C   UNL     1      -2.641  15.627  21.092  0.00  0.00    +0.000 A 
ATOM     29  C   UNL     1      -2.145  16.596  21.973  0.00  0.00    +0.000 A 
ATOM     30  C   UNL     1      -1.673  16.224  23.225  0.00  0.00    +0.000 A 
ATOM     31  C   UNL     1      -1.693  14.884  23.593  0.00  0.00    +0.000 A 
ATOM     32  C   UNL     1      -2.163  13.913  22.699  0.00  0.00    +0.000 A 
ENDBRANCH  23  27
BRANCH  26  33
ATOM     33  N   UNL     1      -3.713  10.939  17.792  0.00  0.00    +0.000 N 
ATOM     34  C   UNL     1      -2.884   9.762  17.530  0.00  0.00    +0.000 C 
ATOM     35  C   UNL     1      -2.472   9.913  16.064  0.00  0.00    +0.000 C 
ATOM     36  C   UNL     1      -3.662  10.584  15.431  0.00  0.00    +0.000 C 
ATOM     37  C   UNL     1      -4.213  11.466  16.536  0.00  0.00    +0.000 C 
ENDBRANCH  26  33
ENDBRANCH  21  22
ENDBRANCH   3  21
TORSDOF 7
ENDMDL
MODEL 3
REMARK VINA RESULT:      -7.1      1.242      1.466
REMARK  Name = 
REMARK  7 active torsions:
REMARK  status: ('A' for Active; 'I' for Inactive)
REMARK    1  A    between atoms: C_2  and  C_3
REMARK    2  A    between atoms: N_10  and  C_11
REMARK    3  A    between atoms: N_10  and  C_21
REMARK    4  A    between atoms: C_11  and  C_12
REMARK    5  A    between atoms: C_21  and  C_22
REMARK    6  A    between atoms: C_23  and  C_24
REMARK    7  A    between atoms: C_32  and  N_33
REMARK                            x       y       z     vdW  Elec       q    Type
REMARK                         _______ _______ _______ _____ _____    ______ ____
ROOT
ATOM      1  O   UNL     1       1.053  12.927  21.703  0.00  0.00    +0.000 OA
ATOM      2  C   UNL     1       0.282  13.279  20.798  0.00  0.00    +0.000 C 
ATOM      3  N   UNL     1      -0.699  12.405  20.300  0.00  0.00    +0.000 N 
ENDROOT
BRANCH   2   4
ATOM      4  C   UNL     1       0.420  14.688  20.297  0.00  0.00    +0.000 A 
ATOM      5  C   UNL     1       0.808  15.019  18.992  0.00  0.00    +0.000 A 
ATOM      6  C   UNL     1       0.794  16.336  18.523  0.00  0.00    +0.000 A 
ATOM      7  C   UNL     1       0.500  17.370  19.396  0.00  0.00    +0.000 A 
ATOM      8  C   UNL     1       0.233  17.075  20.733  0.00  0.00    +0.000 A 
ATOM      9  C   UNL     1       0.185  15.746  21.172  0.00  0.00    +0.000 A 
ATOM     10  F   UNL     1      -0.107  15.526  22.462  0.00  0.00    +0.000 F 
ENDBRANCH   2   4
BRANCH   3  11
ATOM     11  C   UNL     1      -0.878  11.086  20.910  0.00  0.00    +0.000 C 
BRANCH  11  12
ATOM     12  C   UNL     1       0.033  10.013  20.387  0.00  0.00    +0.000 A 
ATOM     13  C   UNL     1       0.438   8.972  21.248  0.00  0.00    +0.000 A 
ATOM     14  C   UNL     1       1.350   8.010  20.821  0.00  0.00    +0.000 A 
ATOM     15  C   UNL     1       1.837   8.120  19.540  0.00  0.00    +0.000 A 
ATOM     16  C   UNL     1       1.457   9.141  18.697  0.00  0.00    +0.000 A 
ATOM     17  C   UNL     1       0.559  10.104  19.089  0.00  0.00    +0.000 A 
ATOM     18  O   UNL     1       2.073   9.080  17.488  0.00  0.00    +0.000 OA
ATOM     19  C   UNL     1       2.870   7.890  17.654  0.00  0.00    +0.000 C 
ATOM     20  O   UNL     1       2.738   7.285  18.957  0.00  0.00    +0.000 OA
ENDBRANCH  11  12
ENDBRANCH   3  11
BRANCH   3  21
ATOM     21  C   UNL     1      -1.616  12.715  19.214  0.00  0.00    +0.000 C 
BRANCH  21  22
ATOM     22  C   UNL     1      -3.055  12.351  19.464  0.00  0.00    +0.000 A 
ATOM     23  C   UNL     1      -3.891  13.006  20.451  0.00  0.00    +0.000 A 
ATOM     24  N   UNL     1      -5.148  12.544  20.367  0.00  0.00    +0.000 NA
ATOM     25  O   UNL     1      -5.178  11.663  19.320  0.00  0.00    +0.000 OA
ATOM     26  C   UNL     1      -3.942  11.525  18.766  0.00  0.00    +0.000 A 
BRANCH  23  27
ATOM     27  C   UNL     1      -3.584  14.072  21.428  0.00  0.00    +0.000 A 
ATOM     28  C   UNL     1      -3.637  15.437  21.109  0.00  0.00    +0.000 A 
ATOM     29  C   UNL     1      -3.355  16.425  22.062  0.00  0.00    +0.000 A 
ATOM     30  C   UNL     1      -3.056  16.065  23.370  0.00  0.00    +0.000 A 
ATOM     31  C   UNL     1      -3.035  14.721  23.722  0.00  0.00    +0.000 A 
ATOM     32  C   UNL     1      -3.290  13.735  22.760  0.00  0.00    +0.000 A 
ENDBRANCH  23  27
BRANCH  26  33
ATOM     33  N   UNL     1      -3.865  10.768  17.633  0.00  0.00    +0.000 N 
ATOM     34  C   UNL     1      -2.956   9.631  17.490  0.00  0.00    +0.000 C 
ATOM     35  C   UNL     1      -2.315   9.835  16.115  0.00  0.00    +0.000 C 
ATOM     36  C   UNL     1      -3.413  10.476  15.306  0.00  0.00    +0.000 C 
ATOM     37  C   UNL     1      -4.174  11.308  16.321  0.00  0.00    +0.000 C 
ENDBRANCH  26  33
ENDBRANCH  21  22
ENDBRANCH   3  21
TORSDOF 7
ENDMDL
MODEL 4
REMARK VINA RESULT:      -7.0      1.298      4.578
REMARK  Name = 
REMARK  7 active torsions:
REMARK  status: ('A' for Active; 'I' for Inactive)
REMARK    1  A    between atoms: C_2  and  C_3
REMARK    2  A    between atoms: N_10  and  C_11
REMARK    3  A    between atoms: N_10  and  C_21
REMARK    4  A    between atoms: C_11  and  C_12
REMARK    5  A    between atoms: C_21  and  C_22
REMARK    6  A    between atoms: C_23  and  C_24
REMARK    7  A    between atoms: C_32  and  N_33
REMARK                            x       y       z     vdW  Elec       q    Type
REMARK                         _______ _______ _______ _____ _____    ______ ____
ROOT
ATOM      1  O   UNL     1       2.156  12.660  21.184  0.00  0.00    +0.000 OA
ATOM      2  C   UNL     1       1.299  13.204  20.471  0.00  0.00    +0.000 C 
ATOM      3  N   UNL     1       0.170  12.496  20.024  0.00  0.00    +0.000 N 
ENDROOT
BRANCH   2   4
ATOM      4  C   UNL     1       1.506  14.656  20.148  0.00  0.00    +0.000 A 
ATOM      5  C   UNL     1       2.140  15.116  18.986  0.00  0.00    +0.000 A 
ATOM      6  C   UNL     1       2.193  16.474  18.655  0.00  0.00    +0.000 A 
ATOM      7  C   UNL     1       1.709  17.415  19.548  0.00  0.00    +0.000 A 
ATOM      8  C   UNL     1       1.186  16.988  20.769  0.00  0.00    +0.000 A 
ATOM      9  C   UNL     1       1.079  15.622  21.057  0.00  0.00    +0.000 A 
ATOM     10  F   UNL     1       0.540  15.274  22.234  0.00  0.00    +0.000 F 
ENDBRANCH   2   4
BRANCH   3  11
ATOM     11  C   UNL     1      -0.051  11.119  20.472  0.00  0.00    +0.000 C 
BRANCH  11  12
ATOM     12  C   UNL     1       0.808  10.086  19.803  0.00  0.00    +0.000 A 
ATOM     13  C   UNL     1       1.208  10.282  18.465  0.00  0.00    +0.000 A 
ATOM     14  C   UNL     1       1.932   9.303  17.788  0.00  0.00    +0.000 A 
ATOM     15  C   UNL     1       2.234   8.149  18.472  0.00  0.00    +0.000 A 
ATOM     16  C   UNL     1       1.838   7.945  19.776  0.00  0.00    +0.000 A 
ATOM     17  C   UNL     1       1.123   8.891  20.469  0.00  0.00    +0.000 A 
ATOM     18  O   UNL     1       2.216   6.731  20.255  0.00  0.00    +0.000 OA
ATOM     19  C   UNL     1       2.918   6.200  19.112  0.00  0.00    +0.000 C 
ATOM     20  O   UNL     1       2.921   7.086  17.974  0.00  0.00    +0.000 OA
ENDBRANCH  11  12
ENDBRANCH   3  11
BRANCH   3  21
ATOM     21  C   UNL     1      -0.860  13.037  19.152  0.00  0.00    +0.000 C 
BRANCH  21  22
ATOM     22  C   UNL     1      -2.270  12.893  19.656  0.00  0.00    +0.000 A 
ATOM     23  C   UNL     1      -3.277  12.075  19.009  0.00  0.00    +0.000 A 
ATOM     24  N   UNL     1      -4.398  12.057  19.746  0.00  0.00    +0.000 NA
ATOM     25  O   UNL     1      -4.139  12.777  20.881  0.00  0.00    +0.000 OA
ATOM     26  C   UNL     1      -2.878  13.291  20.852  0.00  0.00    +0.000 A 
BRANCH  23  27
ATOM     27  C   UNL     1      -3.225  11.274  17.767  0.00  0.00    +0.000 A 
ATOM     28  C   UNL     1      -4.038  11.537  16.655  0.00  0.00    +0.000 A 
ATOM     29  C   UNL     1      -3.955  10.768  15.487  0.00  0.00    +0.000 A 
ATOM     30  C   UNL     1      -3.022   9.742  15.394  0.00  0.00    +0.000 A 
ATOM     31  C   UNL     1      -2.178   9.485  16.468  0.00  0.00    +0.000 A 
ATOM     32  C   UNL     1      -2.283  10.238  17.645  0.00  0.00    +0.000 A 
ENDBRANCH  23  27
BRANCH  26  33
ATOM     33  N   UNL     1      -2.454  13.925  21.983  0.00  0.00    +0.000 N 
ATOM     34  C   UNL     1      -2.078  13.215  23.207  0.00  0.00    +0.000 C 
ATOM     35  C   UNL     1      -2.785  13.989  24.321  0.00  0.00    +0.000 C 
ATOM     36  C   UNL     1      -2.773  15.412  23.825  0.00  0.00    +0.000 C 
ATOM     37  C   UNL     1      -2.878  15.272  22.318  0.00  0.00    +0.000 C 
ENDBRANCH  26  33
ENDBRANCH  21  22
ENDBRANCH   3  21
TORSDOF 7
ENDMDL
MODEL 5
REMARK VINA RESULT:      -7.0      0.981      4.432
REMARK  Name = 
REMARK  7 active torsions:
REMARK  status: ('A' for Active; 'I' for Inactive)
REMARK    1  A    between atoms: C_2  and  C_3
REMARK    2  A    between atoms: N_10  and  C_11
REMARK    3  A    between atoms: N_10  and  C_21
REMARK    4  A    between atoms: C_11  and  C_12
REMARK    5  A    between atoms: C_21  and  C_22
REMARK    6  A    between atoms: C_23  and  C_24
REMARK    7  A    between atoms: C_32  and  N_33
REMARK                            x       y       z     vdW  Elec       q    Type
REMARK                         _______ _______ _______ _____ _____    ______ ____
ROOT
ATOM      1  O   UNL     1       2.056  12.972  21.216  0.00  0.00    +0.000 OA
ATOM      2  C   UNL     1       1.149  13.498  20.554  0.00  0.00    +0.000 C 
ATOM      3  N   UNL     1      -0.015  12.783  20.222  0.00  0.00    +0.000 N 
ENDROOT
BRANCH   2   4
ATOM      4  C   UNL     1       1.336  14.936  20.165  0.00  0.00    +0.000 A 
ATOM      5  C   UNL     1       0.972  16.019  20.977  0.00  0.00    +0.000 A 
ATOM      6  C   UNL     1       1.286  17.339  20.640  0.00  0.00    +0.000 A 
ATOM      7  C   UNL     1       1.874  17.612  19.416  0.00  0.00    +0.000 A 
ATOM      8  C   UNL     1       2.131  16.560  18.536  0.00  0.00    +0.000 A 
ATOM      9  C   UNL     1       1.873  15.237  18.915  0.00  0.00    +0.000 A 
ATOM     10  F   UNL     1       2.170  14.268  18.038  0.00  0.00    +0.000 F 
ENDBRANCH   2   4
BRANCH   3  11
ATOM     11  C   UNL     1      -0.207  11.424  20.733  0.00  0.00    +0.000 C 
BRANCH  11  12
ATOM     12  C   UNL     1       0.620  10.367  20.061  0.00  0.00    +0.000 A 
ATOM     13  C   UNL     1       1.055  10.571  18.735  0.00  0.00    +0.000 A 
ATOM     14  C   UNL     1       1.750   9.575  18.053  0.00  0.00    +0.000 A 
ATOM     15  C   UNL     1       1.989   8.397  18.720  0.00  0.00    +0.000 A 
ATOM     16  C   UNL     1       1.558   8.185  20.011  0.00  0.00    +0.000 A 
ATOM     17  C   UNL     1       0.870   9.148  20.709  0.00  0.00    +0.000 A 
ATOM     18  O   UNL     1       1.874   6.947  20.474  0.00  0.00    +0.000 OA
ATOM     19  C   UNL     1       2.576   6.408  19.335  0.00  0.00    +0.000 C 
ATOM     20  O   UNL     1       2.639   7.314  18.214  0.00  0.00    +0.000 OA
ENDBRANCH  11  12
ENDBRANCH   3  11
BRANCH   3  21
ATOM     21  C   UNL     1      -1.108  13.302  19.415  0.00  0.00    +0.000 C 
BRANCH  21  22
ATOM     22  C   UNL     1      -2.488  12.990  19.925  0.00  0.00    +0.000 A 
ATOM     23  C   UNL     1      -3.405  12.082  19.265  0.00  0.00    +0.000 A 
ATOM     24  N   UNL     1      -4.510  11.921  20.009  0.00  0.00    +0.000 NA
ATOM     25  O   UNL     1      -4.320  12.638  21.160  0.00  0.00    +0.000 OA
ATOM     26  C   UNL     1      -3.124  13.289  21.135  0.00  0.00    +0.000 A 
BRANCH  23  27
ATOM     27  C   UNL     1      -3.277  11.321  18.003  0.00  0.00    +0.000 A 
ATOM     28  C   UNL     1      -4.085  11.563  16.881  0.00  0.00    +0.000 A 
ATOM     29  C   UNL     1      -3.929  10.835  15.695  0.00  0.00    +0.000 A 
ATOM     30  C   UNL     1      -2.930   9.876  15.593  0.00  0.00    +0.000 A 
ATOM     31  C   UNL     1      -2.091   9.643  16.677  0.00  0.00    +0.000 A 
ATOM     32  C   UNL     1      -2.267  10.353  17.871  0.00  0.00    +0.000 A 
ENDBRANCH  23  27
BRANCH  26  33
ATOM     33  N   UNL     1      -2.762  13.938  22.279  0.00  0.00    +0.000 N 
ATOM     34  C   UNL     1      -2.745  15.396  22.402  0.00  0.00    +0.000 C 
ATOM     35  C   UNL     1      -1.404  15.699  23.074  0.00  0.00    +0.000 C 
ATOM     36  C   UNL     1      -1.188  14.516  23.980  0.00  0.00    +0.000 C 
ATOM     37  C   UNL     1      -1.829  13.362  23.231  0.00  0.00    +0.000 C 
ENDBRANCH  26  33
ENDBRANCH  21  22
ENDBRANCH   3  21
TORSDOF 7
ENDMDL
MODEL 6
REMARK VINA RESULT:      -6.9      2.635      5.927
REMARK  Name = 
REMARK  7 active torsions:
REMARK  status: ('A' for Active; 'I' for Inactive)
REMARK    1  A    between atoms: C_2  and  C_3
REMARK    2  A    between atoms: N_10  and  C_11
REMARK    3  A    between atoms: N_10  and  C_21
REMARK    4  A    between atoms: C_11  and  C_12
REMARK    5  A    between atoms: C_21  and  C_22
REMARK    6  A    between atoms: C_23  and  C_24
REMARK    7  A    between atoms: C_32  and  N_33
REMARK                            x       y       z     vdW  Elec       q    Type
REMARK                         _______ _______ _______ _____ _____    ______ ____
ROOT
ATOM      1  O   UNL     1      -0.556  12.919  17.637  0.00  0.00    +0.000 OA
ATOM      2  C   UNL     1      -0.960  11.990  18.352  0.00  0.00    +0.000 C 
ATOM      3  N   UNL     1      -0.074  11.019  18.849  0.00  0.00    +0.000 N 
ENDROOT
BRANCH   2   4
ATOM      4  C   UNL     1      -2.422  11.980  18.693  0.00  0.00    +0.000 A 
ATOM      5  C   UNL     1      -2.959  12.555  19.852  0.00  0.00    +0.000 A 
ATOM      6  C   UNL     1      -4.338  12.646  20.068  0.00  0.00    +0.000 A 
ATOM      7  C   UNL     1      -5.211  12.051  19.173  0.00  0.00    +0.000 A 
ATOM      8  C   UNL     1      -4.695  11.363  18.075  0.00  0.00    +0.000 A 
ATOM      9  C   UNL     1      -3.315  11.339  17.836  0.00  0.00    +0.000 A 
ATOM     10  F   UNL     1      -2.882  10.686  16.748  0.00  0.00    +0.000 F 
ENDBRANCH   2   4
BRANCH   3  11
ATOM     11  C   UNL     1       1.363  11.144  18.594  0.00  0.00    +0.000 C 
BRANCH  11  12
ATOM     12  C   UNL     1       1.961  12.471  18.958  0.00  0.00    +0.000 A 
ATOM     13  C   UNL     1       1.851  12.937  20.285  0.00  0.00    +0.000 A 
ATOM     14  C   UNL     1       2.319  14.201  20.636  0.00  0.00    +0.000 A 
ATOM     15  C   UNL     1       2.883  14.968  19.645  0.00  0.00    +0.000 A 
ATOM     16  C   UNL     1       2.985  14.526  18.344  0.00  0.00    +0.000 A 
ATOM     17  C   UNL     1       2.532  13.285  17.967  0.00  0.00    +0.000 A 
ATOM     18  O   UNL     1       3.549  15.445  17.518  0.00  0.00    +0.000 OA
ATOM     19  C   UNL     1       3.815  16.513  18.452  0.00  0.00    +0.000 C 
ATOM     20  O   UNL     1       3.382  16.224  19.797  0.00  0.00    +0.000 OA
ENDBRANCH  11  12
ENDBRANCH   3  11
BRANCH   3  21
ATOM     21  C   UNL     1      -0.463   9.872  19.655  0.00  0.00    +0.000 C 
BRANCH  21  22
ATOM     22  C   UNL     1       0.387   9.625  20.872  0.00  0.00    +0.000 A 
ATOM     23  C   UNL     1       0.173  10.276  22.149  0.00  0.00    +0.000 A 
ATOM     24  N   UNL     1       1.014   9.775  23.067  0.00  0.00    +0.000 NA
ATOM     25  O   UNL     1       1.722   8.777  22.454  0.00  0.00    +0.000 OA
ATOM     26  C   UNL     1       1.372   8.668  21.143  0.00  0.00    +0.000 A 
BRANCH  23  27
ATOM     27  C   UNL     1      -0.809  11.302  22.563  0.00  0.00    +0.000 A 
ATOM     28  C   UNL     1      -2.030  10.984  23.177  0.00  0.00    +0.000 A 
ATOM     29  C   UNL     1      -2.933  11.980  23.570  0.00  0.00    +0.000 A 
ATOM     30  C   UNL     1      -2.611  13.320  23.397  0.00  0.00    +0.000 A 
ATOM     31  C   UNL     1      -1.391  13.663  22.827  0.00  0.00    +0.000 A 
ATOM     32  C   UNL     1      -0.502  12.664  22.408  0.00  0.00    +0.000 A 
ENDBRANCH  23  27
BRANCH  26  33
ATOM     33  N   UNL     1       1.917   7.626  20.452  0.00  0.00    +0.000 N 
ATOM     34  C   UNL     1       2.390   7.739  19.072  0.00  0.00    +0.000 C 
ATOM     35  C   UNL     1       1.812   6.505  18.377  0.00  0.00    +0.000 C 
ATOM     36  C   UNL     1       1.814   5.457  19.458  0.00  0.00    +0.000 C 
ATOM     37  C   UNL     1       1.562   6.246  20.729  0.00  0.00    +0.000 C 
ENDBRANCH  26  33
ENDBRANCH  21  22
ENDBRANCH   3  21
TORSDOF 7
ENDMDL
MODEL 7
REMARK VINA RESULT:      -6.8      2.687      6.968
REMARK  Name = 
REMARK  7 active torsions:
REMARK  status: ('A' for Active; 'I' for Inactive)
REMARK    1  A    between atoms: C_2  and  C_3
REMARK    2  A    between atoms: N_10  and  C_11
REMARK    3  A    between atoms: N_10  and  C_21
REMARK    4  A    between atoms: C_11  and  C_12
REMARK    5  A    between atoms: C_21  and  C_22
REMARK    6  A    between atoms: C_23  and  C_24
REMARK    7  A    between atoms: C_32  and  N_33
REMARK                            x       y       z     vdW  Elec       q    Type
REMARK                         _______ _______ _______ _____ _____    ______ ____
ROOT
ATOM      1  O   UNL     1      -0.896  12.984  17.630  0.00  0.00    +0.000 OA
ATOM      2  C   UNL     1      -1.336  12.068  18.341  0.00  0.00    +0.000 C 
ATOM      3  N   UNL     1      -0.500  11.032  18.789  0.00  0.00    +0.000 N 
ENDROOT
BRANCH   2   4
ATOM      4  C   UNL     1      -2.785  12.144  18.728  0.00  0.00    +0.000 A 
ATOM      5  C   UNL     1      -3.252  12.779  19.888  0.00  0.00    +0.000 A 
ATOM      6  C   UNL     1      -4.616  12.947  20.145  0.00  0.00    +0.000 A 
ATOM      7  C   UNL     1      -5.548  12.375  19.296  0.00  0.00    +0.000 A 
ATOM      8  C   UNL     1      -5.105  11.630  18.203  0.00  0.00    +0.000 A 
ATOM      9  C   UNL     1      -3.738  11.527  17.921  0.00  0.00    +0.000 A 
ATOM     10  F   UNL     1      -3.376  10.823  16.839  0.00  0.00    +0.000 F 
ENDBRANCH   2   4
BRANCH   3  11
ATOM     11  C   UNL     1       0.934  11.071  18.491  0.00  0.00    +0.000 C 
BRANCH  11  12
ATOM     12  C   UNL     1       1.650  12.304  18.961  0.00  0.00    +0.000 A 
ATOM     13  C   UNL     1       2.278  13.141  18.015  0.00  0.00    +0.000 A 
ATOM     14  C   UNL     1       3.022  14.244  18.425  0.00  0.00    +0.000 A 
ATOM     15  C   UNL     1       3.121  14.479  19.776  0.00  0.00    +0.000 A 
ATOM     16  C   UNL     1       2.520  13.660  20.707  0.00  0.00    +0.000 A 
ATOM     17  C   UNL     1       1.780  12.565  20.334  0.00  0.00    +0.000 A 
ATOM     18  O   UNL     1       2.762  14.052  21.985  0.00  0.00    +0.000 OA
ATOM     19  C   UNL     1       3.566  15.228  21.755  0.00  0.00    +0.000 C 
ATOM     20  O   UNL     1       3.810  15.495  20.359  0.00  0.00    +0.000 OA
ENDBRANCH  11  12
ENDBRANCH   3  11
BRANCH   3  21
ATOM     21  C   UNL     1      -0.935   9.897  19.587  0.00  0.00    +0.000 C 
BRANCH  21  22
ATOM     22  C   UNL     1      -0.371   9.835  20.980  0.00  0.00    +0.000 A 
ATOM     23  C   UNL     1       0.690   8.931  21.380  0.00  0.00    +0.000 A 
ATOM     24  N   UNL     1       1.055   9.183  22.646  0.00  0.00    +0.000 NA
ATOM     25  O   UNL     1       0.319  10.258  23.066  0.00  0.00    +0.000 OA
ATOM     26  C   UNL     1      -0.543  10.665  22.093  0.00  0.00    +0.000 A 
BRANCH  23  27
ATOM     27  C   UNL     1       1.410   7.885  20.623  0.00  0.00    +0.000 A 
ATOM     28  C   UNL     1       2.132   8.152  19.450  0.00  0.00    +0.000 A 
ATOM     29  C   UNL     1       2.816   7.141  18.764  0.00  0.00    +0.000 A 
ATOM     30  C   UNL     1       2.826   5.844  19.262  0.00  0.00    +0.000 A 
ATOM     31  C   UNL     1       2.150   5.560  20.443  0.00  0.00    +0.000 A 
ATOM     32  C   UNL     1       1.444   6.568  21.113  0.00  0.00    +0.000 A 
ENDBRANCH  23  27
BRANCH  26  33
ATOM     33  N   UNL     1      -1.245  11.808  22.343  0.00  0.00    +0.000 N 
ATOM     34  C   UNL     1      -0.645  13.142  22.303  0.00  0.00    +0.000 C 
ATOM     35  C   UNL     1      -1.155  13.820  23.576  0.00  0.00    +0.000 C 
ATOM     36  C   UNL     1      -2.532  13.238  23.759  0.00  0.00    +0.000 C 
ATOM     37  C   UNL     1      -2.405  11.826  23.216  0.00  0.00    +0.000 C 
ENDBRANCH  26  33
ENDBRANCH  21  22
ENDBRANCH   3  21
TORSDOF 7
ENDMDL
MODEL 8
REMARK VINA RESULT:      -6.8      2.945      4.082
REMARK  Name = 
REMARK  7 active torsions:
REMARK  status: ('A' for Active; 'I' for Inactive)
REMARK    1  A    between atoms: C_2  and  C_3
REMARK    2  A    between atoms: N_10  and  C_11
REMARK    3  A    between atoms: N_10  and  C_21
REMARK    4  A    between atoms: C_11  and  C_12
REMARK    5  A    between atoms: C_21  and  C_22
REMARK    6  A    between atoms: C_23  and  C_24
REMARK    7  A    between atoms: C_32  and  N_33
REMARK                            x       y       z     vdW  Elec       q    Type
REMARK                         _______ _______ _______ _____ _____    ______ ____
ROOT
ATOM      1  O   UNL     1      -0.215  13.798  20.084  0.00  0.00    +0.000 OA
ATOM      2  C   UNL     1      -1.337  14.305  20.235  0.00  0.00    +0.000 C 
ATOM      3  N   UNL     1      -2.483  13.503  20.369  0.00  0.00    +0.000 N 
ENDROOT
BRANCH   2   4
ATOM      4  C   UNL     1      -1.401  15.803  20.310  0.00  0.00    +0.000 A 
ATOM      5  C   UNL     1      -1.880  16.511  21.421  0.00  0.00    +0.000 A 
ATOM      6  C   UNL     1      -1.798  17.904  21.507  0.00  0.00    +0.000 A 
ATOM      7  C   UNL     1      -1.338  18.631  20.422  0.00  0.00    +0.000 A 
ATOM      8  C   UNL     1      -0.974  17.956  19.256  0.00  0.00    +0.000 A 
ATOM      9  C   UNL     1      -0.997  16.557  19.209  0.00  0.00    +0.000 A 
ATOM     10  F   UNL     1      -0.607  15.965  18.071  0.00  0.00    +0.000 F 
ENDBRANCH   2   4
BRANCH   3  11
ATOM     11  C   UNL     1      -2.352  12.045  20.418  0.00  0.00    +0.000 C 
BRANCH  11  12
ATOM     12  C   UNL     1      -2.378  11.358  19.083  0.00  0.00    +0.000 A 
ATOM     13  C   UNL     1      -1.308  10.512  18.722  0.00  0.00    +0.000 A 
ATOM     14  C   UNL     1      -1.260   9.928  17.458  0.00  0.00    +0.000 A 
ATOM     15  C   UNL     1      -2.285  10.210  16.587  0.00  0.00    +0.000 A 
ATOM     16  C   UNL     1      -3.327  11.045  16.928  0.00  0.00    +0.000 A 
ATOM     17  C   UNL     1      -3.403  11.636  18.166  0.00  0.00    +0.000 A 
ATOM     18  O   UNL     1      -4.219  11.211  15.917  0.00  0.00    +0.000 OA
ATOM     19  C   UNL     1      -3.634  10.367  14.904  0.00  0.00    +0.000 C 
ATOM     20  O   UNL     1      -2.401   9.742  15.315  0.00  0.00    +0.000 OA
ENDBRANCH  11  12
ENDBRANCH   3  11
BRANCH   3  21
ATOM     21  C   UNL     1      -3.840  14.008  20.505  0.00  0.00    +0.000 C 
BRANCH  21  22
ATOM     22  C   UNL     1      -4.683  13.312  21.539  0.00  0.00    +0.000 A 
ATOM     23  C   UNL     1      -4.539  13.518  22.967  0.00  0.00    +0.000 A 
ATOM     24  N   UNL     1      -5.497  12.849  23.627  0.00  0.00    +0.000 NA
ATOM     25  O   UNL     1      -6.299  12.269  22.682  0.00  0.00    +0.000 OA
ATOM     26  C   UNL     1      -5.835  12.525  21.427  0.00  0.00    +0.000 A 
BRANCH  23  27
ATOM     27  C   UNL     1      -3.586  14.346  23.736  0.00  0.00    +0.000 A 
ATOM     28  C   UNL     1      -3.967  15.509  24.423  0.00  0.00    +0.000 A 
ATOM     29  C   UNL     1      -3.043  16.264  25.156  0.00  0.00    +0.000 A 
ATOM     30  C   UNL     1      -1.722  15.846  25.251  0.00  0.00    +0.000 A 
ATOM     31  C   UNL     1      -1.326  14.677  24.612  0.00  0.00    +0.000 A 
ATOM     32  C   UNL     1      -2.247  13.939  23.857  0.00  0.00    +0.000 A 
ENDBRANCH  23  27
BRANCH  26  33
ATOM     33  N   UNL     1      -6.618  12.106  20.392  0.00  0.00    +0.000 N 
ATOM     34  C   UNL     1      -6.981  10.705  20.178  0.00  0.00    +0.000 C 
ATOM     35  C   UNL     1      -6.739  10.479  18.685  0.00  0.00    +0.000 C 
ATOM     36  C   UNL     1      -7.077  11.810  18.067  0.00  0.00    +0.000 C 
ATOM     37  C   UNL     1      -6.671  12.817  19.127  0.00  0.00    +0.000 C 
ENDBRANCH  26  33
ENDBRANCH  21  22
ENDBRANCH   3  21
TORSDOF 7
ENDMDL
MODEL 9
REMARK VINA RESULT:      -6.8      2.438      6.578
REMARK  Name = 
REMARK  7 active torsions:
REMARK  status: ('A' for Active; 'I' for Inactive)
REMARK    1  A    between atoms: C_2  and  C_3
REMARK    2  A    between atoms: N_10  and  C_11
REMARK    3  A    between atoms: N_10  and  C_21
REMARK    4  A    between atoms: C_11  and  C_12
REMARK    5  A    between atoms: C_21  and  C_22
REMARK    6  A    between atoms: C_23  and  C_24
REMARK    7  A    between atoms: C_32  and  N_33
REMARK                            x       y       z     vdW  Elec       q    Type
REMARK                         _______ _______ _______ _____ _____    ______ ____
ROOT
ATOM      1  O   UNL     1       0.205  13.509  22.649  0.00  0.00    +0.000 OA
ATOM      2  C   UNL     1      -0.293  12.838  21.733  0.00  0.00    +0.000 C 
ATOM      3  N   UNL     1      -0.987  13.453  20.677  0.00  0.00    +0.000 N 
ENDROOT
BRANCH   2   4
ATOM      4  C   UNL     1      -0.083  11.352  21.787  0.00  0.00    +0.000 A 
ATOM      5  C   UNL     1      -0.660  10.515  22.751  0.00  0.00    +0.000 A 
ATOM      6  C   UNL     1      -0.551   9.122  22.689  0.00  0.00    +0.000 A 
ATOM      7  C   UNL     1       0.244   8.541  21.715  0.00  0.00    +0.000 A 
ATOM      8  C   UNL     1       0.932   9.361  20.820  0.00  0.00    +0.000 A 
ATOM      9  C   UNL     1       0.759  10.750  20.853  0.00  0.00    +0.000 A 
ATOM     10  F   UNL     1       1.423  11.483  19.948  0.00  0.00    +0.000 F 
ENDBRANCH   2   4
BRANCH   3  11
ATOM     11  C   UNL     1      -1.055  14.914  20.602  0.00  0.00    +0.000 C 
BRANCH  11  12
ATOM     12  C   UNL     1       0.211  15.589  20.160  0.00  0.00    +0.000 A 
ATOM     13  C   UNL     1       0.507  16.882  20.639  0.00  0.00    +0.000 A 
ATOM     14  C   UNL     1       1.628  17.570  20.182  0.00  0.00    +0.000 A 
ATOM     15  C   UNL     1       2.425  16.943  19.253  0.00  0.00    +0.000 A 
ATOM     16  C   UNL     1       2.137  15.685  18.772  0.00  0.00    +0.000 A 
ATOM     17  C   UNL     1       1.038  14.981  19.203  0.00  0.00    +0.000 A 
ATOM     18  O   UNL     1       3.034  15.260  17.844  0.00  0.00    +0.000 OA
ATOM     19  C   UNL     1       3.936  16.385  17.811  0.00  0.00    +0.000 C 
ATOM     20  O   UNL     1       3.548  17.461  18.689  0.00  0.00    +0.000 OA
ENDBRANCH  11  12
ENDBRANCH   3  11
BRANCH   3  21
ATOM     21  C   UNL     1      -1.640  12.745  19.587  0.00  0.00    +0.000 C 
BRANCH  21  22
ATOM     22  C   UNL     1      -3.123  12.544  19.749  0.00  0.00    +0.000 A 
ATOM     23  C   UNL     1      -3.939  11.789  18.818  0.00  0.00    +0.000 A 
ATOM     24  N   UNL     1      -5.194  11.692  19.282  0.00  0.00    +0.000 NA
ATOM     25  O   UNL     1      -5.212  12.297  20.509  0.00  0.00    +0.000 OA
ATOM     26  C   UNL     1      -3.991  12.818  20.811  0.00  0.00    +0.000 A 
BRANCH  23  27
ATOM     27  C   UNL     1      -3.591  11.115  17.549  0.00  0.00    +0.000 A 
ATOM     28  C   UNL     1      -2.652  10.075  17.470  0.00  0.00    +0.000 A 
ATOM     29  C   UNL     1      -2.355   9.446  16.254  0.00  0.00    +0.000 A 
ATOM     30  C   UNL     1      -3.027   9.817  15.096  0.00  0.00    +0.000 A 
ATOM     31  C   UNL     1      -3.990  10.818  15.154  0.00  0.00    +0.000 A 
ATOM     32  C   UNL     1      -4.264  11.464  16.366  0.00  0.00    +0.000 A 
ENDBRANCH  23  27
BRANCH  26  33
ATOM     33  N   UNL     1      -3.845  13.340  22.064  0.00  0.00    +0.000 N 
ATOM     34  C   UNL     1      -3.571  12.521  23.245  0.00  0.00    +0.000 C 
ATOM     35  C   UNL     1      -4.548  13.046  24.299  0.00  0.00    +0.000 C 
ATOM     36  C   UNL     1      -4.658  14.514  23.978  0.00  0.00    +0.000 C 
ATOM     37  C   UNL     1      -4.503  14.568  22.470  0.00  0.00    +0.000 C 
ENDBRANCH  26  33
ENDBRANCH  21  22
ENDBRANCH   3  21
TORSDOF 7
ENDMDL
