MODEL 1
REMARK VINA RESULT:      -8.5      0.000      0.000
REMARK  Name = 
REMARK  5 active torsions:
REMARK  status: ('A' for Active; 'I' for Inactive)
REMARK    1  A    between atoms: N_1  and  C_2
REMARK    2  A    between atoms: C_2  and  C_3
REMARK    3  A    between atoms: C_3  and  C_4
REMARK    4  A    between atoms: C_3  and  C_10
REMARK    5  A    between atoms: C_11  and  C_12
REMARK                            x       y       z     vdW  Elec       q    Type
REMARK                         _______ _______ _______ _____ _____    ______ ____
ROOT
ATOM      1  C   UNL     1       5.363   4.515  17.343  0.00  0.00    +0.000 A 
ATOM      2  C   UNL     1       5.105   5.234  18.538  0.00  0.00    +0.000 A 
ATOM      3  N   UNL     1       5.264   4.184  19.443  0.00  0.00    +0.000 N 
ATOM      4  C   UNL     1       4.384   3.232  18.958  0.00  0.00    +0.000 A 
ATOM      5  C   UNL     1       3.568   2.363  19.679  0.00  0.00    +0.000 A 
ATOM      6  C   UNL     1       2.387   2.012  19.036  0.00  0.00    +0.000 A 
ATOM      7  C   UNL     1       2.159   2.380  17.704  0.00  0.00    +0.000 A 
ATOM      8  C   UNL     1       3.145   3.041  16.924  0.00  0.00    +0.000 A 
ATOM      9  C   UNL     1       4.307   3.520  17.577  0.00  0.00    +0.000 A 
ATOM     10  H   UNL     1       6.165   3.891  19.790  0.00  0.00    +0.000 HD
ENDROOT
BRANCH   2  11
ATOM     11  C   UNL     1       3.969   6.223  18.597  0.00  0.00    +0.000 A 
ATOM     12  C   UNL     1       3.112   6.232  19.727  0.00  0.00    +0.000 A 
ATOM     13  C   UNL     1       2.101   7.184  19.886  0.00  0.00    +0.000 A 
ATOM     14  C   UNL     1       1.931   8.134  18.899  0.00  0.00    +0.000 A 
ATOM     15  C   UNL     1       2.750   8.130  17.769  0.00  0.00    +0.000 A 
ATOM     16  C   UNL     1       3.769   7.187  17.618  0.00  0.00    +0.000 A 
ENDBRANCH   2  11
BRANCH   1  17
ATOM     17  C   UNL     1       6.041   5.375  16.281  0.00  0.00    +0.000 C 
BRANCH  17  18
ATOM     18  C   UNL     1       6.434   4.738  14.966  0.00  0.00    +0.000 A 
ATOM     19  C   UNL     1       7.519   5.146  14.184  0.00  0.00    +0.000 A 
ATOM     20  C   UNL     1       7.590   4.777  12.830  0.00  0.00    +0.000 A 
ATOM     21  C   UNL     1       6.588   4.002  12.243  0.00  0.00    +0.000 A 
ATOM     22  C   UNL     1       5.517   3.566  13.010  0.00  0.00    +0.000 A 
ATOM     23  C   UNL     1       5.448   3.924  14.355  0.00  0.00    +0.000 A 
ENDBRANCH  17  18
BRANCH  17  24
ATOM     24  C   UNL     1       7.267   6.133  16.915  0.00  0.00    +0.000 C 
BRANCH  24  25
ATOM     25  N   UNL     1       7.177   7.601  16.845  0.00  0.00    +0.000 NA
ATOM     26  H   UNL     1       6.637   7.862  16.022  0.00  0.00    +0.000 HD
ATOM     27  H   UNL     1       8.112   7.983  16.706  0.00  0.00    +0.000 HD
ENDBRANCH  24  25
ENDBRANCH  17  24
ENDBRANCH   1  17
TORSDOF 5
ENDMDL
MODEL 2
REMARK VINA RESULT:      -8.3      1.643      2.239
REMARK  Name = 
REMARK  5 active torsions:
REMARK  status: ('A' for Active; 'I' for Inactive)
REMARK    1  A    between atoms: N_1  and  C_2
REMARK    2  A    between atoms: C_2  and  C_3
REMARK    3  A    between atoms: C_3  and  C_4
REMARK    4  A    between atoms: C_3  and  C_10
REMARK    5  A    between atoms: C_11  and  C_12
REMARK                            x       y       z     vdW  Elec       q    Type
REMARK                         _______ _______ _______ _____ _____    ______ ____
ROOT
ATOM      1  C   UNL     1       4.240   5.052  19.134  0.00  0.00    +0.000 A 
ATOM      2  C   UNL     1       3.541   5.922  20.009  0.00  0.00    +0.000 A 
ATOM      3  N   UNL     1       3.073   4.966  20.913  0.00  0.00    +0.000 N 
ATOM      4  C   UNL     1       2.414   4.070  20.089  0.00  0.00    +0.000 A 
ATOM      5  C   UNL     1       1.228   3.381  20.338  0.00  0.00    +0.000 A 
ATOM      6  C   UNL     1       0.478   3.095  19.204  0.00  0.00    +0.000 A 
ATOM      7  C   UNL     1       0.992   3.337  17.924  0.00  0.00    +0.000 A 
ATOM      8  C   UNL     1       2.321   3.796  17.718  0.00  0.00    +0.000 A 
ATOM      9  C   UNL     1       3.069   4.212  18.846  0.00  0.00    +0.000 A 
ATOM     10  H   UNL     1       3.633   4.615  21.676  0.00  0.00    +0.000 HD
ENDROOT
BRANCH   2  11
ATOM     11  C   UNL     1       2.685   7.031  19.451  0.00  0.00    +0.000 A 
ATOM     12  C   UNL     1       1.826   7.751  20.319  0.00  0.00    +0.000 A 
ATOM     13  C   UNL     1       1.080   8.851  19.884  0.00  0.00    +0.000 A 
ATOM     14  C   UNL     1       1.180   9.230  18.561  0.00  0.00    +0.000 A 
ATOM     15  C   UNL     1       2.004   8.522  17.684  0.00  0.00    +0.000 A 
ATOM     16  C   UNL     1       2.760   7.433  18.124  0.00  0.00    +0.000 A 
ENDBRANCH   2  11
BRANCH   1  17
ATOM     17  C   UNL     1       5.473   5.711  18.522  0.00  0.00    +0.000 C 
BRANCH  17  18
ATOM     18  C   UNL     1       5.787   5.461  17.063  0.00  0.00    +0.000 A 
ATOM     19  C   UNL     1       5.379   6.291  16.013  0.00  0.00    +0.000 A 
ATOM     20  C   UNL     1       5.371   5.806  14.695  0.00  0.00    +0.000 A 
ATOM     21  C   UNL     1       5.767   4.499  14.407  0.00  0.00    +0.000 A 
ATOM     22  C   UNL     1       6.200   3.669  15.432  0.00  0.00    +0.000 A 
ATOM     23  C   UNL     1       6.216   4.150  16.740  0.00  0.00    +0.000 A 
ENDBRANCH  17  18
BRANCH  17  24
ATOM     24  C   UNL     1       6.734   5.410  19.416  0.00  0.00    +0.000 C 
BRANCH  24  25
ATOM     25  N   UNL     1       7.913   6.234  19.102  0.00  0.00    +0.000 NA
ATOM     26  H   UNL     1       7.612   7.062  18.590  0.00  0.00    +0.000 HD
ATOM     27  H   UNL     1       8.522   5.714  18.471  0.00  0.00    +0.000 HD
ENDBRANCH  24  25
ENDBRANCH  17  24
ENDBRANCH   1  17
TORSDOF 5
ENDMDL
MODEL 3
REMARK VINA RESULT:      -8.3      0.243      1.012
REMARK  Name = 
REMARK  5 active torsions:
REMARK  status: ('A' for Active; 'I' for Inactive)
REMARK    1  A    between atoms: N_1  and  C_2
REMARK    2  A    between atoms: C_2  and  C_3
REMARK    3  A    between atoms: C_3  and  C_4
REMARK    4  A    between atoms: C_3  and  C_10
REMARK    5  A    between atoms: C_11  and  C_12
REMARK                            x       y       z     vdW  Elec       q    Type
REMARK                         _______ _______ _______ _____ _____    ______ ____
ROOT
ATOM      1  C   UNL     1       5.292   4.624  17.226  0.00  0.00    +0.000 A 
ATOM      2  C   UNL     1       5.081   5.286  18.463  0.00  0.00    +0.000 A 
ATOM      3  N   UNL     1       5.317   4.206  19.314  0.00  0.00    +0.000 N 
ATOM      4  C   UNL     1       4.439   3.249  18.837  0.00  0.00    +0.000 A 
ATOM      5  C   UNL     1       3.687   2.328  19.565  0.00  0.00    +0.000 A 
ATOM      6  C   UNL     1       2.483   1.968  18.972  0.00  0.00    +0.000 A 
ATOM      7  C   UNL     1       2.172   2.382  17.671  0.00  0.00    +0.000 A 
ATOM      8  C   UNL     1       3.095   3.103  16.867  0.00  0.00    +0.000 A 
ATOM      9  C   UNL     1       4.278   3.589  17.476  0.00  0.00    +0.000 A 
ATOM     10  H   UNL     1       6.244   3.926  19.599  0.00  0.00    +0.000 HD
ENDROOT
BRANCH   2  11
ATOM     11  C   UNL     1       3.923   6.238  18.624  0.00  0.00    +0.000 A 
ATOM     12  C   UNL     1       3.111   6.155  19.783  0.00  0.00    +0.000 A 
ATOM     13  C   UNL     1       2.082   7.068  20.037  0.00  0.00    +0.000 A 
ATOM     14  C   UNL     1       1.851   8.070  19.117  0.00  0.00    +0.000 A 
ATOM     15  C   UNL     1       2.625   8.157  17.959  0.00  0.00    +0.000 A 
ATOM     16  C   UNL     1       3.661   7.253  17.713  0.00  0.00    +0.000 A 
ENDBRANCH   2  11
BRANCH   1  17
ATOM     17  C   UNL     1       5.887   5.546  16.166  0.00  0.00    +0.000 C 
BRANCH  17  18
ATOM     18  C   UNL     1       5.977   5.054  14.738  0.00  0.00    +0.000 A 
ATOM     19  C   UNL     1       5.081   4.154  14.154  0.00  0.00    +0.000 A 
ATOM     20  C   UNL     1       5.438   3.462  12.984  0.00  0.00    +0.000 A 
ATOM     21  C   UNL     1       6.684   3.659  12.385  0.00  0.00    +0.000 A 
ATOM     22  C   UNL     1       7.576   4.569  12.936  0.00  0.00    +0.000 A 
ATOM     23  C   UNL     1       7.221   5.260  14.092  0.00  0.00    +0.000 A 
ENDBRANCH  17  18
BRANCH  17  24
ATOM     24  C   UNL     1       7.285   6.082  16.654  0.00  0.00    +0.000 C 
BRANCH  24  25
ATOM     25  N   UNL     1       7.319   7.529  16.926  0.00  0.00    +0.000 NA
ATOM     26  H   UNL     1       6.389   7.917  16.778  0.00  0.00    +0.000 HD
ATOM     27  H   UNL     1       7.929   7.979  16.244  0.00  0.00    +0.000 HD
ENDBRANCH  24  25
ENDBRANCH  17  24
ENDBRANCH   1  17
TORSDOF 5
ENDMDL
MODEL 4
REMARK VINA RESULT:      -7.8      1.166      1.333
REMARK  Name = 
REMARK  5 active torsions:
REMARK  status: ('A' for Active; 'I' for Inactive)
REMARK    1  A    between atoms: N_1  and  C_2
REMARK    2  A    between atoms: C_2  and  C_3
REMARK    3  A    between atoms: C_3  and  C_4
REMARK    4  A    between atoms: C_3  and  C_10
REMARK    5  A    between atoms: C_11  and  C_12
REMARK                            x       y       z     vdW  Elec       q    Type
REMARK                         _______ _______ _______ _____ _____    ______ ____
ROOT
ATOM      1  C   UNL     1       4.428   5.091  18.077  0.00  0.00    +0.000 A 
ATOM      2  C   UNL     1       4.092   5.958  19.148  0.00  0.00    +0.000 A 
ATOM      3  N   UNL     1       4.012   5.003  20.163  0.00  0.00    +0.000 N 
ATOM      4  C   UNL     1       3.108   4.091  19.649  0.00  0.00    +0.000 A 
ATOM      5  C   UNL     1       2.112   3.387  20.324  0.00  0.00    +0.000 A 
ATOM      6  C   UNL     1       0.997   3.081  19.554  0.00  0.00    +0.000 A 
ATOM      7  C   UNL     1       0.991   3.320  18.174  0.00  0.00    +0.000 A 
ATOM      8  C   UNL     1       2.139   3.796  17.485  0.00  0.00    +0.000 A 
ATOM      9  C   UNL     1       3.248   4.232  18.250  0.00  0.00    +0.000 A 
ATOM     10  H   UNL     1       4.822   4.666  20.663  0.00  0.00    +0.000 HD
ENDROOT
BRANCH   2  11
ATOM     11  C   UNL     1       3.072   7.050  18.949  0.00  0.00    +0.000 A 
ATOM     12  C   UNL     1       2.211   7.402  20.018  0.00  0.00    +0.000 A 
ATOM     13  C   UNL     1       1.310   8.468  19.928  0.00  0.00    +0.000 A 
ATOM     14  C   UNL     1       1.257   9.185  18.750  0.00  0.00    +0.000 A 
ATOM     15  C   UNL     1       2.081   8.842  17.677  0.00  0.00    +0.000 A 
ATOM     16  C   UNL     1       2.991   7.786  17.774  0.00  0.00    +0.000 A 
ENDBRANCH   2  11
BRANCH   1  17
ATOM     17  C   UNL     1       5.331   5.762  17.047  0.00  0.00    +0.000 C 
BRANCH  17  18
ATOM     18  C   UNL     1       5.825   4.951  15.870  0.00  0.00    +0.000 A 
ATOM     19  C   UNL     1       7.128   5.004  15.364  0.00  0.00    +0.000 A 
ATOM     20  C   UNL     1       7.401   4.532  14.069  0.00  0.00    +0.000 A 
ATOM     21  C   UNL     1       6.388   4.004  13.268  0.00  0.00    +0.000 A 
ATOM     22  C   UNL     1       5.093   3.918  13.763  0.00  0.00    +0.000 A 
ATOM     23  C   UNL     1       4.822   4.379  15.049  0.00  0.00    +0.000 A 
ENDBRANCH  17  18
BRANCH  17  24
ATOM     24  C   UNL     1       6.537   6.465  17.777  0.00  0.00    +0.000 C 
BRANCH  24  25
ATOM     25  N   UNL     1       6.912   7.771  17.211  0.00  0.00    +0.000 NA
ATOM     26  H   UNL     1       6.187   8.451  17.435  0.00  0.00    +0.000 HD
ATOM     27  H   UNL     1       6.930   7.698  16.194  0.00  0.00    +0.000 HD
ENDBRANCH  24  25
ENDBRANCH  17  24
ENDBRANCH   1  17
TORSDOF 5
ENDMDL
MODEL 5
REMARK VINA RESULT:      -7.7      2.471      6.501
REMARK  Name = 
REMARK  5 active torsions:
REMARK  status: ('A' for Active; 'I' for Inactive)
REMARK    1  A    between atoms: N_1  and  C_2
REMARK    2  A    between atoms: C_2  and  C_3
REMARK    3  A    between atoms: C_3  and  C_4
REMARK    4  A    between atoms: C_3  and  C_10
REMARK    5  A    between atoms: C_11  and  C_12
REMARK                            x       y       z     vdW  Elec       q    Type
REMARK                         _______ _______ _______ _____ _____    ______ ____
ROOT
ATOM      1  C   UNL     1       1.885   6.164  19.193  0.00  0.00    +0.000 A 
ATOM      2  C   UNL     1       2.477   5.489  18.095  0.00  0.00    +0.000 A 
ATOM      3  N   UNL     1       1.481   4.534  17.884  0.00  0.00    +0.000 N 
ATOM      4  C   UNL     1       1.362   3.943  19.130  0.00  0.00    +0.000 A 
ATOM      5  C   UNL     1       1.143   2.599  19.430  0.00  0.00    +0.000 A 
ATOM      6  C   UNL     1       1.692   2.181  20.636  0.00  0.00    +0.000 A 
ATOM      7  C   UNL     1       2.254   3.103  21.528  0.00  0.00    +0.000 A 
ATOM      8  C   UNL     1       2.212   4.504  21.291  0.00  0.00    +0.000 A 
ATOM      9  C   UNL     1       1.773   4.957  20.023  0.00  0.00    +0.000 A 
ATOM     10  H   UNL     1       0.648   4.722  17.346  0.00  0.00    +0.000 HD
ENDROOT
BRANCH   2  11
ATOM     11  C   UNL     1       3.951   5.169  18.107  0.00  0.00    +0.000 A 
ATOM     12  C   UNL     1       4.540   4.564  16.969  0.00  0.00    +0.000 A 
ATOM     13  C   UNL     1       5.916   4.328  16.880  0.00  0.00    +0.000 A 
ATOM     14  C   UNL     1       6.714   4.689  17.946  0.00  0.00    +0.000 A 
ATOM     15  C   UNL     1       6.151   5.267  19.085  0.00  0.00    +0.000 A 
ATOM     16  C   UNL     1       4.779   5.514  19.167  0.00  0.00    +0.000 A 
ENDBRANCH   2  11
BRANCH   1  17
ATOM     17  C   UNL     1       2.221   7.652  19.209  0.00  0.00    +0.000 C 
BRANCH  17  18
ATOM     18  C   UNL     1       1.513   8.549  20.201  0.00  0.00    +0.000 A 
ATOM     19  C   UNL     1       1.193   8.181  21.511  0.00  0.00    +0.000 A 
ATOM     20  C   UNL     1       0.221   8.900  22.227  0.00  0.00    +0.000 A 
ATOM     21  C   UNL     1      -0.439   9.987  21.651  0.00  0.00    +0.000 A 
ATOM     22  C   UNL     1      -0.115  10.384  20.361  0.00  0.00    +0.000 A 
ATOM     23  C   UNL     1       0.853   9.677  19.652  0.00  0.00    +0.000 A 
ENDBRANCH  17  18
BRANCH  17  24
ATOM     24  C   UNL     1       2.101   8.239  17.752  0.00  0.00    +0.000 C 
BRANCH  24  25
ATOM     25  N   UNL     1       3.386   8.617  17.142  0.00  0.00    +0.000 NA
ATOM     26  H   UNL     1       4.116   8.578  17.853  0.00  0.00    +0.000 HD
ATOM     27  H   UNL     1       3.335   9.590  16.840  0.00  0.00    +0.000 HD
ENDBRANCH  24  25
ENDBRANCH  17  24
ENDBRANCH   1  17
TORSDOF 5
ENDMDL
MODEL 6
REMARK VINA RESULT:      -7.7      2.325      5.601
REMARK  Name = 
REMARK  5 active torsions:
REMARK  status: ('A' for Active; 'I' for Inactive)
REMARK    1  A    between atoms: N_1  and  C_2
REMARK    2  A    between atoms: C_2  and  C_3
REMARK    3  A    between atoms: C_3  and  C_4
REMARK    4  A    between atoms: C_3  and  C_10
REMARK    5  A    between atoms: C_11  and  C_12
REMARK                            x       y       z     vdW  Elec       q    Type
REMARK                         _______ _______ _______ _____ _____    ______ ____
ROOT
ATOM      1  C   UNL     1       4.453   4.270  17.558  0.00  0.00    +0.000 A 
ATOM      2  C   UNL     1       4.007   5.488  16.985  0.00  0.00    +0.000 A 
ATOM      3  N   UNL     1       5.110   5.743  16.169  0.00  0.00    +0.000 N 
ATOM      4  C   UNL     1       6.164   5.698  17.064  0.00  0.00    +0.000 A 
ATOM      5  C   UNL     1       7.305   6.498  17.095  0.00  0.00    +0.000 A 
ATOM      6  C   UNL     1       7.834   6.701  18.364  0.00  0.00    +0.000 A 
ATOM      7  C   UNL     1       7.338   5.997  19.469  0.00  0.00    +0.000 A 
ATOM      8  C   UNL     1       6.346   4.989  19.338  0.00  0.00    +0.000 A 
ATOM      9  C   UNL     1       5.700   4.841  18.086  0.00  0.00    +0.000 A 
ATOM     10  H   UNL     1       5.221   5.331  15.254  0.00  0.00    +0.000 HD
ENDROOT
BRANCH   2  11
ATOM     11  C   UNL     1       3.347   6.535  17.847  0.00  0.00    +0.000 A 
ATOM     12  C   UNL     1       3.020   7.794  17.285  0.00  0.00    +0.000 A 
ATOM     13  C   UNL     1       2.323   8.771  18.003  0.00  0.00    +0.000 A 
ATOM     14  C   UNL     1       1.959   8.494  19.305  0.00  0.00    +0.000 A 
ATOM     15  C   UNL     1       2.290   7.269  19.885  0.00  0.00    +0.000 A 
ATOM     16  C   UNL     1       2.973   6.288  19.162  0.00  0.00    +0.000 A 
ENDBRANCH   2  11
BRANCH   1  17
ATOM     17  C   UNL     1       3.303   3.314  17.860  0.00  0.00    +0.000 C 
BRANCH  17  18
ATOM     18  C   UNL     1       2.701   3.310  19.247  0.00  0.00    +0.000 A 
ATOM     19  C   UNL     1       3.407   3.003  20.415  0.00  0.00    +0.000 A 
ATOM     20  C   UNL     1       2.715   2.649  21.585  0.00  0.00    +0.000 A 
ATOM     21  C   UNL     1       1.320   2.597  21.607  0.00  0.00    +0.000 A 
ATOM     22  C   UNL     1       0.601   2.925  20.466  0.00  0.00    +0.000 A 
ATOM     23  C   UNL     1       1.285   3.283  19.307  0.00  0.00    +0.000 A 
ENDBRANCH  17  18
BRANCH  17  24
ATOM     24  C   UNL     1       3.702   1.852  17.427  0.00  0.00    +0.000 C 
BRANCH  24  25
ATOM     25  N   UNL     1       4.170   0.998  18.531  0.00  0.00    +0.000 NA
ATOM     26  H   UNL     1       3.463   0.291  18.726  0.00  0.00    +0.000 HD
ATOM     27  H   UNL     1       4.249   1.564  19.376  0.00  0.00    +0.000 HD
ENDBRANCH  24  25
ENDBRANCH  17  24
ENDBRANCH   1  17
TORSDOF 5
ENDMDL
MODEL 7
REMARK VINA RESULT:      -7.5      2.635      6.512
REMARK  Name = 
REMARK  5 active torsions:
REMARK  status: ('A' for Active; 'I' for Inactive)
REMARK    1  A    between atoms: N_1  and  C_2
REMARK    2  A    between atoms: C_2  and  C_3
REMARK    3  A    between atoms: C_3  and  C_4
REMARK    4  A    between atoms: C_3  and  C_10
REMARK    5  A    between atoms: C_11  and  C_12
REMARK                            x       y       z     vdW  Elec       q    Type
REMARK                         _______ _______ _______ _____ _____    ______ ____
ROOT
ATOM      1  C   UNL     1       1.838   6.307  19.095  0.00  0.00    +0.000 A 
ATOM      2  C   UNL     1       2.437   5.649  17.990  0.00  0.00    +0.000 A 
ATOM      3  N   UNL     1       1.463   4.671  17.785  0.00  0.00    +0.000 N 
ATOM      4  C   UNL     1       1.369   4.074  19.030  0.00  0.00    +0.000 A 
ATOM      5  C   UNL     1       1.186   2.724  19.328  0.00  0.00    +0.000 A 
ATOM      6  C   UNL     1       1.755   2.316  20.528  0.00  0.00    +0.000 A 
ATOM      7  C   UNL     1       2.302   3.249  21.417  0.00  0.00    +0.000 A 
ATOM      8  C   UNL     1       2.224   4.649  21.185  0.00  0.00    +0.000 A 
ATOM      9  C   UNL     1       1.762   5.095  19.923  0.00  0.00    +0.000 A 
ATOM     10  H   UNL     1       0.621   4.839  17.254  0.00  0.00    +0.000 HD
ENDROOT
BRANCH   2  11
ATOM     11  C   UNL     1       3.918   5.365  17.988  0.00  0.00    +0.000 A 
ATOM     12  C   UNL     1       4.685   5.662  19.143  0.00  0.00    +0.000 A 
ATOM     13  C   UNL     1       6.041   5.336  19.240  0.00  0.00    +0.000 A 
ATOM     14  C   UNL     1       6.646   4.718  18.164  0.00  0.00    +0.000 A 
ATOM     15  C   UNL     1       5.914   4.436  17.010  0.00  0.00    +0.000 A 
ATOM     16  C   UNL     1       4.556   4.748  16.920  0.00  0.00    +0.000 A 
ENDBRANCH   2  11
BRANCH   1  17
ATOM     17  C   UNL     1       2.137   7.803  19.113  0.00  0.00    +0.000 C 
BRANCH  17  18
ATOM     18  C   UNL     1       1.489   8.664  20.174  0.00  0.00    +0.000 A 
ATOM     19  C   UNL     1       1.535   8.397  21.546  0.00  0.00    +0.000 A 
ATOM     20  C   UNL     1       0.612   9.004  22.413  0.00  0.00    +0.000 A 
ATOM     21  C   UNL     1      -0.361   9.880  21.929  0.00  0.00    +0.000 A 
ATOM     22  C   UNL     1      -0.406  10.178  20.574  0.00  0.00    +0.000 A 
ATOM     23  C   UNL     1       0.513   9.583  19.713  0.00  0.00    +0.000 A 
ENDBRANCH  17  18
BRANCH  17  24
ATOM     24  C   UNL     1       1.888   8.411  17.681  0.00  0.00    +0.000 C 
BRANCH  24  25
ATOM     25  N   UNL     1       2.414   9.773  17.499  0.00  0.00    +0.000 NA
ATOM     26  H   UNL     1       2.949  10.036  18.325  0.00  0.00    +0.000 HD
ATOM     27  H   UNL     1       1.631  10.426  17.447  0.00  0.00    +0.000 HD
ENDBRANCH  24  25
ENDBRANCH  17  24
ENDBRANCH   1  17
TORSDOF 5
ENDMDL
MODEL 8
REMARK VINA RESULT:      -7.5      1.500      2.049
REMARK  Name = 
REMARK  5 active torsions:
REMARK  status: ('A' for Active; 'I' for Inactive)
REMARK    1  A    between atoms: N_1  and  C_2
REMARK    2  A    between atoms: C_2  and  C_3
REMARK    3  A    between atoms: C_3  and  C_4
REMARK    4  A    between atoms: C_3  and  C_10
REMARK    5  A    between atoms: C_11  and  C_12
REMARK                            x       y       z     vdW  Elec       q    Type
REMARK                         _______ _______ _______ _____ _____    ______ ____
ROOT
ATOM      1  C   UNL     1       4.294   5.033  18.524  0.00  0.00    +0.000 A 
ATOM      2  C   UNL     1       3.874   5.873  19.587  0.00  0.00    +0.000 A 
ATOM      3  N   UNL     1       3.609   4.884  20.535  0.00  0.00    +0.000 N 
ATOM      4  C   UNL     1       2.727   4.054  19.865  0.00  0.00    +0.000 A 
ATOM      5  C   UNL     1       1.613   3.388  20.374  0.00  0.00    +0.000 A 
ATOM      6  C   UNL     1       0.591   3.187  19.455  0.00  0.00    +0.000 A 
ATOM      7  C   UNL     1       0.776   3.484  18.099  0.00  0.00    +0.000 A 
ATOM      8  C   UNL     1       2.029   3.913  17.584  0.00  0.00    +0.000 A 
ATOM      9  C   UNL     1       3.054   4.244  18.504  0.00  0.00    +0.000 A 
ATOM     10  H   UNL     1       4.327   4.475  21.115  0.00  0.00    +0.000 HD
ENDROOT
BRANCH   2  11
ATOM     11  C   UNL     1       2.954   7.037  19.315  0.00  0.00    +0.000 A 
ATOM     12  C   UNL     1       2.936   7.621  18.023  0.00  0.00    +0.000 A 
ATOM     13  C   UNL     1       2.039   8.639  17.680  0.00  0.00    +0.000 A 
ATOM     14  C   UNL     1       1.158   9.089  18.642  0.00  0.00    +0.000 A 
ATOM     15  C   UNL     1       1.174   8.542  19.926  0.00  0.00    +0.000 A 
ATOM     16  C   UNL     1       2.060   7.516  20.263  0.00  0.00    +0.000 A 
ENDBRANCH   2  11
BRANCH   1  17
ATOM     17  C   UNL     1       5.361   5.687  17.651  0.00  0.00    +0.000 C 
BRANCH  17  18
ATOM     18  C   UNL     1       5.839   4.960  16.414  0.00  0.00    +0.000 A 
ATOM     19  C   UNL     1       7.143   5.023  15.914  0.00  0.00    +0.000 A 
ATOM     20  C   UNL     1       7.408   4.649  14.586  0.00  0.00    +0.000 A 
ATOM     21  C   UNL     1       6.384   4.208  13.745  0.00  0.00    +0.000 A 
ATOM     22  C   UNL     1       5.087   4.113  14.232  0.00  0.00    +0.000 A 
ATOM     23  C   UNL     1       4.824   4.477  15.550  0.00  0.00    +0.000 A 
ENDBRANCH  17  18
BRANCH  17  24
ATOM     24  C   UNL     1       6.584   6.120  18.543  0.00  0.00    +0.000 C 
BRANCH  24  25
ATOM     25  N   UNL     1       6.894   5.191  19.642  0.00  0.00    +0.000 NA
ATOM     26  H   UNL     1       7.283   4.333  19.253  0.00  0.00    +0.000 HD
ATOM     27  H   UNL     1       6.025   4.926  20.106  0.00  0.00    +0.000 HD
ENDBRANCH  24  25
ENDBRANCH  17  24
ENDBRANCH   1  17
TORSDOF 5
ENDMDL
MODEL 9
REMARK VINA RESULT:      -7.5      2.458      6.459
REMARK  Name = 
REMARK  5 active torsions:
REMARK  status: ('A' for Active; 'I' for Inactive)
REMARK    1  A    between atoms: N_1  and  C_2
REMARK    2  A    between atoms: C_2  and  C_3
REMARK    3  A    between atoms: C_3  and  C_4
REMARK    4  A    between atoms: C_3  and  C_10
REMARK    5  A    between atoms: C_11  and  C_12
REMARK                            x       y       z     vdW  Elec       q    Type
REMARK                         _______ _______ _______ _____ _____    ______ ____
ROOT
ATOM      1  C   UNL     1       1.861   6.096  19.163  0.00  0.00    +0.000 A 
ATOM      2  C   UNL     1       2.492   5.437  18.078  0.00  0.00    +0.000 A 
ATOM      3  N   UNL     1       1.528   4.454  17.850  0.00  0.00    +0.000 N 
ATOM      4  C   UNL     1       1.402   3.861  19.094  0.00  0.00    +0.000 A 
ATOM      5  C   UNL     1       1.216   2.512  19.393  0.00  0.00    +0.000 A 
ATOM      6  C   UNL     1       1.754   2.111  20.609  0.00  0.00    +0.000 A 
ATOM      7  C   UNL     1       2.273   3.050  21.509  0.00  0.00    +0.000 A 
ATOM      8  C   UNL     1       2.195   4.448  21.270  0.00  0.00    +0.000 A 
ATOM      9  C   UNL     1       1.767   4.887  19.993  0.00  0.00    +0.000 A 
ATOM     10  H   UNL     1       0.701   4.617  17.295  0.00  0.00    +0.000 HD
ENDROOT
BRANCH   2  11
ATOM     11  C   UNL     1       3.974   5.159  18.118  0.00  0.00    +0.000 A 
ATOM     12  C   UNL     1       4.606   4.591  16.984  0.00  0.00    +0.000 A 
ATOM     13  C   UNL     1       5.990   4.396  16.922  0.00  0.00    +0.000 A 
ATOM     14  C   UNL     1       6.753   4.762  18.012  0.00  0.00    +0.000 A 
ATOM     15  C   UNL     1       6.148   5.303  19.147  0.00  0.00    +0.000 A 
ATOM     16  C   UNL     1       4.768   5.510  19.202  0.00  0.00    +0.000 A 
ENDBRANCH   2  11
BRANCH   1  17
ATOM     17  C   UNL     1       2.153   7.594  19.184  0.00  0.00    +0.000 C 
BRANCH  17  18
ATOM     18  C   UNL     1       1.296   8.493  20.047  0.00  0.00    +0.000 A 
ATOM     19  C   UNL     1       0.748   9.708  19.622  0.00  0.00    +0.000 A 
ATOM     20  C   UNL     1       0.303  10.648  20.566  0.00  0.00    +0.000 A 
ATOM     21  C   UNL     1       0.397  10.393  21.935  0.00  0.00    +0.000 A 
ATOM     22  C   UNL     1       0.914   9.182  22.375  0.00  0.00    +0.000 A 
ATOM     23  C   UNL     1       1.349   8.245  21.441  0.00  0.00    +0.000 A 
ENDBRANCH  17  18
BRANCH  17  24
ATOM     24  C   UNL     1       2.216   8.142  17.708  0.00  0.00    +0.000 C 
BRANCH  24  25
ATOM     25  N   UNL     1       3.547   8.612  17.291  0.00  0.00    +0.000 NA
ATOM     26  H   UNL     1       4.005   9.059  18.084  0.00  0.00    +0.000 HD
ATOM     27  H   UNL     1       3.435   9.336  16.582  0.00  0.00    +0.000 HD
ENDBRANCH  24  25
ENDBRANCH  17  24
ENDBRANCH   1  17
TORSDOF 5
ENDMDL
