MODEL 1
REMARK VINA RESULT:      -7.3      0.000      0.000
REMARK  Name = 
REMARK  10 active torsions:
REMARK  status: ('A' for Active; 'I' for Inactive)
REMARK    1  A    between atoms: C_1  and  C_2
REMARK    2  A    between atoms: C_2  and  O_3
REMARK    3  A    between atoms: O_3  and  C_4
REMARK    4  A    between atoms: C_4  and  C_6
REMARK    5  A    between atoms: C_6  and  C_7
REMARK    6  A    between atoms: C_10  and  N_11
REMARK    7  A    between atoms: N_14  and  C_15
REMARK    8  A    between atoms: C_20  and  O_21
REMARK    9  A    between atoms: O_21  and  C_22
REMARK   10  A    between atoms: C_22  and  C_23
REMARK                            x       y       z     vdW  Elec       q    Type
REMARK                         _______ _______ _______ _____ _____    ______ ____
ROOT
ATOM      1  C   UNL     1       7.195   5.302  14.862  0.00  0.00    +0.000 A 
ATOM      2  C   UNL     1       7.583   5.702  13.572  0.00  0.00    +0.000 A 
ATOM      3  C   UNL     1       7.302   4.908  12.466  0.00  0.00    +0.000 A 
ATOM      4  C   UNL     1       6.579   3.736  12.629  0.00  0.00    +0.000 A 
ATOM      5  C   UNL     1       6.123   3.367  13.894  0.00  0.00    +0.000 A 
ATOM      6  C   UNL     1       6.443   4.123  15.033  0.00  0.00    +0.000 A 
ENDROOT
BRANCH   1  10
ATOM      7  N   UNL     1       5.534   6.390  16.872  0.00  0.00    +0.000 N 
ATOM      8  C   UNL     1       6.897   6.439  17.062  0.00  0.00    +0.000 C 
ATOM      9  O   UNL     1       7.479   6.793  18.082  0.00  0.00    +0.000 OA
ATOM     10  N   UNL     1       7.642   6.061  15.959  0.00  0.00    +0.000 N 
ATOM     11  H   UNL     1       5.236   6.126  15.946  0.00  0.00    +0.000 HD
ATOM     12  H   UNL     1       8.644   6.056  16.137  0.00  0.00    +0.000 HD
BRANCH   7  16
ATOM     13  C   UNL     1       2.320   7.085  19.520  0.00  0.00    +0.000 A 
ATOM     14  C   UNL     1       3.370   6.245  19.913  0.00  0.00    +0.000 A 
ATOM     15  C   UNL     1       4.451   5.999  19.057  0.00  0.00    +0.000 A 
ATOM     16  C   UNL     1       4.505   6.603  17.805  0.00  0.00    +0.000 A 
ATOM     17  C   UNL     1       3.473   7.472  17.424  0.00  0.00    +0.000 A 
ATOM     18  C   UNL     1       2.389   7.713  18.273  0.00  0.00    +0.000 A 
BRANCH  13  19
ATOM     19  C   UNL     1       1.140   7.316  20.432  0.00  0.00    +0.000 C 
BRANCH  19  20
ATOM     20  C   UNL     1       1.114   8.679  21.083  0.00  0.00    +0.000 C 
ATOM     21  O   UNL     1       1.902   9.101  21.918  0.00  0.00    +0.000 OA
BRANCH  20  22
ATOM     22  O   UNL     1       0.013   9.357  20.636  0.00  0.00    +0.000 OA
BRANCH  22  24
ATOM     23  C   UNL     1      -0.302  10.119  18.399  0.00  0.00    +0.000 C 
ATOM     24  C   UNL     1       0.290  10.454  19.756  0.00  0.00    +0.000 C 
ENDBRANCH  22  24
ENDBRANCH  20  22
ENDBRANCH  19  20
ENDBRANCH  13  19
ENDBRANCH   7  16
ENDBRANCH   1  10
BRANCH   6  25
ATOM     25  O   UNL     1       6.121   3.716  16.315  0.00  0.00    +0.000 OA
BRANCH  25  26
ATOM     26  C   UNL     1       5.143   2.655  16.367  0.00  0.00    +0.000 C 
BRANCH  26  27
ATOM     27  C   UNL     1       3.951   2.952  17.244  0.00  0.00    +0.000 A 
ATOM     28  C   UNL     1       2.830   3.516  16.790  0.00  0.00    +0.000 A 
ATOM     29  C   UNL     1       1.710   3.745  17.723  0.00  0.00    +0.000 A 
ATOM     30  O   UNL     1       0.681   4.239  17.282  0.00  0.00    +0.000 OA
ATOM     31  N   UNL     1       1.929   3.353  19.033  0.00  0.00    +0.000 N 
ATOM     32  C   UNL     1       0.919   3.533  19.970  0.00  0.00    +0.000 A 
ATOM     33  C   UNL     1       1.066   3.161  21.246  0.00  0.00    +0.000 A 
ATOM     34  C   UNL     1       2.300   2.553  21.680  0.00  0.00    +0.000 A 
ATOM     35  C   UNL     1       3.296   2.369  20.812  0.00  0.00    +0.000 A 
ATOM     36  C   UNL     1       3.142   2.777  19.391  0.00  0.00    +0.000 A 
ATOM     37  N   UNL     1       4.129   2.572  18.563  0.00  0.00    +0.000 NA
ENDBRANCH  26  27
ENDBRANCH  25  26
ENDBRANCH   6  25
TORSDOF 9
ENDMDL
MODEL 2
REMARK VINA RESULT:      -7.2      0.639      1.409
REMARK  Name = 
REMARK  10 active torsions:
REMARK  status: ('A' for Active; 'I' for Inactive)
REMARK    1  A    between atoms: C_1  and  C_2
REMARK    2  A    between atoms: C_2  and  O_3
REMARK    3  A    between atoms: O_3  and  C_4
REMARK    4  A    between atoms: C_4  and  C_6
REMARK    5  A    between atoms: C_6  and  C_7
REMARK    6  A    between atoms: C_10  and  N_11
REMARK    7  A    between atoms: N_14  and  C_15
REMARK    8  A    between atoms: C_20  and  O_21
REMARK    9  A    between atoms: O_21  and  C_22
REMARK   10  A    between atoms: C_22  and  C_23
REMARK                            x       y       z     vdW  Elec       q    Type
REMARK                         _______ _______ _______ _____ _____    ______ ____
ROOT
ATOM      1  C   UNL     1       7.161   5.227  14.854  0.00  0.00    +0.000 A 
ATOM      2  C   UNL     1       7.554   5.630  13.567  0.00  0.00    +0.000 A 
ATOM      3  C   UNL     1       7.293   4.830  12.460  0.00  0.00    +0.000 A 
ATOM      4  C   UNL     1       6.583   3.651  12.619  0.00  0.00    +0.000 A 
ATOM      5  C   UNL     1       6.121   3.278  13.881  0.00  0.00    +0.000 A 
ATOM      6  C   UNL     1       6.421   4.040  15.021  0.00  0.00    +0.000 A 
ENDROOT
BRANCH   1  10
ATOM      7  N   UNL     1       5.454   6.497  16.715  0.00  0.00    +0.000 N 
ATOM      8  C   UNL     1       6.803   6.461  16.992  0.00  0.00    +0.000 C 
ATOM      9  O   UNL     1       7.342   6.812  18.038  0.00  0.00    +0.000 OA
ATOM     10  N   UNL     1       7.588   5.993  15.954  0.00  0.00    +0.000 N 
ATOM     11  H   UNL     1       5.198   6.221  15.780  0.00  0.00    +0.000 HD
ATOM     12  H   UNL     1       8.574   5.928  16.198  0.00  0.00    +0.000 HD
BRANCH   7  16
ATOM     13  C   UNL     1       2.348   7.364  19.440  0.00  0.00    +0.000 A 
ATOM     14  C   UNL     1       2.433   8.080  18.238  0.00  0.00    +0.000 A 
ATOM     15  C   UNL     1       3.450   7.812  17.313  0.00  0.00    +0.000 A 
ATOM     16  C   UNL     1       4.385   6.813  17.570  0.00  0.00    +0.000 A 
ATOM     17  C   UNL     1       4.280   6.072  18.755  0.00  0.00    +0.000 A 
ATOM     18  C   UNL     1       3.271   6.344  19.683  0.00  0.00    +0.000 A 
BRANCH  13  19
ATOM     19  C   UNL     1       1.272   7.684  20.448  0.00  0.00    +0.000 C 
BRANCH  19  20
ATOM     20  C   UNL     1       0.835   9.131  20.453  0.00  0.00    +0.000 C 
ATOM     21  O   UNL     1       0.131   9.681  19.619  0.00  0.00    +0.000 OA
BRANCH  20  22
ATOM     22  O   UNL     1       1.417   9.759  21.520  0.00  0.00    +0.000 OA
BRANCH  22  24
ATOM     23  C   UNL     1      -0.415   9.671  23.045  0.00  0.00    +0.000 C 
ATOM     24  C   UNL     1       1.027   9.260  22.807  0.00  0.00    +0.000 C 
ENDBRANCH  22  24
ENDBRANCH  20  22
ENDBRANCH  19  20
ENDBRANCH  13  19
ENDBRANCH   7  16
ENDBRANCH   1  10
BRANCH   6  25
ATOM     25  O   UNL     1       6.092   3.632  16.301  0.00  0.00    +0.000 OA
BRANCH  25  26
ATOM     26  C   UNL     1       5.095   2.589  16.348  0.00  0.00    +0.000 C 
BRANCH  26  27
ATOM     27  C   UNL     1       3.931   2.884  17.263  0.00  0.00    +0.000 A 
ATOM     28  C   UNL     1       2.788   3.427  16.842  0.00  0.00    +0.000 A 
ATOM     29  C   UNL     1       1.698   3.656  17.811  0.00  0.00    +0.000 A 
ATOM     30  O   UNL     1       0.648   4.130  17.401  0.00  0.00    +0.000 OA
ATOM     31  N   UNL     1       1.970   3.285  19.118  0.00  0.00    +0.000 N 
ATOM     32  C   UNL     1       0.992   3.467  20.089  0.00  0.00    +0.000 A 
ATOM     33  C   UNL     1       1.191   3.115  21.364  0.00  0.00    +0.000 A 
ATOM     34  C   UNL     1       2.447   2.529  21.761  0.00  0.00    +0.000 A 
ATOM     35  C   UNL     1       3.414   2.345  20.860  0.00  0.00    +0.000 A 
ATOM     36  C   UNL     1       3.202   2.730  19.440  0.00  0.00    +0.000 A 
ATOM     37  N   UNL     1       4.162   2.525  18.580  0.00  0.00    +0.000 NA
ENDBRANCH  26  27
ENDBRANCH  25  26
ENDBRANCH   6  25
TORSDOF 9
ENDMDL
MODEL 3
REMARK VINA RESULT:      -7.0      3.831      9.559
REMARK  Name = 
REMARK  10 active torsions:
REMARK  status: ('A' for Active; 'I' for Inactive)
REMARK    1  A    between atoms: C_1  and  C_2
REMARK    2  A    between atoms: C_2  and  O_3
REMARK    3  A    between atoms: O_3  and  C_4
REMARK    4  A    between atoms: C_4  and  C_6
REMARK    5  A    between atoms: C_6  and  C_7
REMARK    6  A    between atoms: C_10  and  N_11
REMARK    7  A    between atoms: N_14  and  C_15
REMARK    8  A    between atoms: C_20  and  O_21
REMARK    9  A    between atoms: O_21  and  C_22
REMARK   10  A    between atoms: C_22  and  C_23
REMARK                            x       y       z     vdW  Elec       q    Type
REMARK                         _______ _______ _______ _____ _____    ______ ____
ROOT
ATOM      1  C   UNL     1       0.493  10.092  20.806  0.00  0.00    +0.000 A 
ATOM      2  C   UNL     1       0.891   8.894  21.423  0.00  0.00    +0.000 A 
ATOM      3  C   UNL     1       0.608   8.656  22.764  0.00  0.00    +0.000 A 
ATOM      4  C   UNL     1      -0.129   9.584  23.483  0.00  0.00    +0.000 A 
ATOM      5  C   UNL     1      -0.595  10.741  22.861  0.00  0.00    +0.000 A 
ATOM      6  C   UNL     1      -0.274  11.030  21.526  0.00  0.00    +0.000 A 
ENDROOT
BRANCH   1  10
ATOM      7  N   UNL     1       2.012   8.310  19.223  0.00  0.00    +0.000 N 
ATOM      8  C   UNL     1       1.509   9.443  18.622  0.00  0.00    +0.000 C 
ATOM      9  O   UNL     1       1.538   9.707  17.424  0.00  0.00    +0.000 OA
ATOM     10  N   UNL     1       0.941  10.351  19.498  0.00  0.00    +0.000 N 
ATOM     11  H   UNL     1       1.948   8.291  20.229  0.00  0.00    +0.000 HD
ATOM     12  H   UNL     1       0.531  11.155  19.028  0.00  0.00    +0.000 HD
BRANCH   7  16
ATOM     13  C   UNL     1       3.803   4.955  17.391  0.00  0.00    +0.000 A 
ATOM     14  C   UNL     1       2.728   4.771  18.270  0.00  0.00    +0.000 A 
ATOM     15  C   UNL     1       2.112   5.865  18.889  0.00  0.00    +0.000 A 
ATOM     16  C   UNL     1       2.551   7.159  18.625  0.00  0.00    +0.000 A 
ATOM     17  C   UNL     1       3.603   7.348  17.718  0.00  0.00    +0.000 A 
ATOM     18  C   UNL     1       4.225   6.256  17.105  0.00  0.00    +0.000 A 
BRANCH  13  19
ATOM     19  C   UNL     1       4.487   3.769  16.756  0.00  0.00    +0.000 C 
BRANCH  19  20
ATOM     20  C   UNL     1       5.758   4.108  16.014  0.00  0.00    +0.000 C 
ATOM     21  O   UNL     1       6.856   4.314  16.509  0.00  0.00    +0.000 OA
BRANCH  20  22
ATOM     22  O   UNL     1       5.470   4.216  14.680  0.00  0.00    +0.000 OA
BRANCH  22  24
ATOM     23  C   UNL     1       6.277   3.519  12.547  0.00  0.00    +0.000 C 
ATOM     24  C   UNL     1       6.611   4.285  13.815  0.00  0.00    +0.000 C 
ENDBRANCH  22  24
ENDBRANCH  20  22
ENDBRANCH  19  20
ENDBRANCH  13  19
ENDBRANCH   7  16
ENDBRANCH   1  10
BRANCH   6  25
ATOM     25  O   UNL     1      -0.607  12.227  20.918  0.00  0.00    +0.000 OA
BRANCH  25  26
ATOM     26  C   UNL     1      -2.009  12.560  21.006  0.00  0.00    +0.000 C 
BRANCH  26  27
ATOM     27  C   UNL     1      -2.809  12.207  19.775  0.00  0.00    +0.000 A 
ATOM     28  C   UNL     1      -4.071  12.593  19.586  0.00  0.00    +0.000 A 
ATOM     29  C   UNL     1      -4.761  12.216  18.337  0.00  0.00    +0.000 A 
ATOM     30  O   UNL     1      -5.910  12.602  18.170  0.00  0.00    +0.000 OA
ATOM     31  N   UNL     1      -4.018  11.461  17.445  0.00  0.00    +0.000 N 
ATOM     32  C   UNL     1      -4.598  11.069  16.244  0.00  0.00    +0.000 A 
ATOM     33  C   UNL     1      -3.925  10.352  15.337  0.00  0.00    +0.000 A 
ATOM     34  C   UNL     1      -2.561   9.965  15.595  0.00  0.00    +0.000 A 
ATOM     35  C   UNL     1      -1.970  10.315  16.739  0.00  0.00    +0.000 A 
ATOM     36  C   UNL     1      -2.708  11.115  17.753  0.00  0.00    +0.000 A 
ATOM     37  N   UNL     1      -2.099  11.453  18.855  0.00  0.00    +0.000 NA
ENDBRANCH  26  27
ENDBRANCH  25  26
ENDBRANCH   6  25
TORSDOF 9
ENDMDL
MODEL 4
REMARK VINA RESULT:      -7.0      4.580      9.514
REMARK  Name = 
REMARK  10 active torsions:
REMARK  status: ('A' for Active; 'I' for Inactive)
REMARK    1  A    between atoms: C_1  and  C_2
REMARK    2  A    between atoms: C_2  and  O_3
REMARK    3  A    between atoms: O_3  and  C_4
REMARK    4  A    between atoms: C_4  and  C_6
REMARK    5  A    between atoms: C_6  and  C_7
REMARK    6  A    between atoms: C_10  and  N_11
REMARK    7  A    between atoms: N_14  and  C_15
REMARK    8  A    between atoms: C_20  and  O_21
REMARK    9  A    between atoms: O_21  and  C_22
REMARK   10  A    between atoms: C_22  and  C_23
REMARK                            x       y       z     vdW  Elec       q    Type
REMARK                         _______ _______ _______ _____ _____    ______ ____
ROOT
ATOM      1  C   UNL     1       1.355  12.252  18.879  0.00  0.00    +0.000 A 
ATOM      2  C   UNL     1       2.464  12.847  18.255  0.00  0.00    +0.000 A 
ATOM      3  C   UNL     1       3.194  13.841  18.897  0.00  0.00    +0.000 A 
ATOM      4  C   UNL     1       2.861  14.207  20.192  0.00  0.00    +0.000 A 
ATOM      5  C   UNL     1       1.809  13.571  20.850  0.00  0.00    +0.000 A 
ATOM      6  C   UNL     1       1.023  12.605  20.202  0.00  0.00    +0.000 A 
ENDROOT
BRANCH   1  10
ATOM      7  N   UNL     1       1.998   9.559  18.312  0.00  0.00    +0.000 N 
ATOM      8  C   UNL     1       0.734  10.004  17.994  0.00  0.00    +0.000 C 
ATOM      9  O   UNL     1      -0.204   9.316  17.602  0.00  0.00    +0.000 OA
ATOM     10  N   UNL     1       0.558  11.370  18.127  0.00  0.00    +0.000 N 
ATOM     11  H   UNL     1       2.658  10.278  18.563  0.00  0.00    +0.000 HD
ATOM     12  H   UNL     1      -0.395  11.669  17.935  0.00  0.00    +0.000 HD
BRANCH   7  16
ATOM     13  C   UNL     1       3.280   5.552  18.661  0.00  0.00    +0.000 A 
ATOM     14  C   UNL     1       3.708   6.322  17.572  0.00  0.00    +0.000 A 
ATOM     15  C   UNL     1       3.302   7.655  17.432  0.00  0.00    +0.000 A 
ATOM     16  C   UNL     1       2.477   8.241  18.388  0.00  0.00    +0.000 A 
ATOM     17  C   UNL     1       2.077   7.483  19.497  0.00  0.00    +0.000 A 
ATOM     18  C   UNL     1       2.474   6.150  19.634  0.00  0.00    +0.000 A 
BRANCH  13  19
ATOM     19  C   UNL     1       3.690   4.105  18.786  0.00  0.00    +0.000 C 
BRANCH  19  20
ATOM     20  C   UNL     1       2.548   3.123  18.671  0.00  0.00    +0.000 C 
ATOM     21  O   UNL     1       1.619   3.177  17.878  0.00  0.00    +0.000 OA
BRANCH  20  22
ATOM     22  O   UNL     1       2.680   2.182  19.656  0.00  0.00    +0.000 OA
BRANCH  22  24
ATOM     23  C   UNL     1       1.363   2.734  21.566  0.00  0.00    +0.000 C 
ATOM     24  C   UNL     1       2.767   2.704  20.988  0.00  0.00    +0.000 C 
ENDBRANCH  22  24
ENDBRANCH  20  22
ENDBRANCH  19  20
ENDBRANCH  13  19
ENDBRANCH   7  16
ENDBRANCH   1  10
BRANCH   6  25
ATOM     25  O   UNL     1      -0.107  12.051  20.778  0.00  0.00    +0.000 OA
BRANCH  25  26
ATOM     26  C   UNL     1      -1.204  12.978  20.929  0.00  0.00    +0.000 C 
BRANCH  26  27
ATOM     27  C   UNL     1      -2.470  12.562  20.222  0.00  0.00    +0.000 A 
ATOM     28  C   UNL     1      -2.484  12.018  19.004  0.00  0.00    +0.000 A 
ATOM     29  C   UNL     1      -3.774  11.622  18.405  0.00  0.00    +0.000 A 
ATOM     30  O   UNL     1      -3.763  11.100  17.299  0.00  0.00    +0.000 OA
ATOM     31  N   UNL     1      -4.896  11.867  19.180  0.00  0.00    +0.000 N 
ATOM     32  C   UNL     1      -6.147  11.519  18.686  0.00  0.00    +0.000 A 
ATOM     33  C   UNL     1      -7.265  11.718  19.394  0.00  0.00    +0.000 A 
ATOM     34  C   UNL     1      -7.189  12.308  20.707  0.00  0.00    +0.000 A 
ATOM     35  C   UNL     1      -6.006  12.662  21.214  0.00  0.00    +0.000 A 
ATOM     36  C   UNL     1      -4.758  12.443  20.437  0.00  0.00    +0.000 A 
ATOM     37  N   UNL     1      -3.616  12.788  20.965  0.00  0.00    +0.000 NA
ENDBRANCH  26  27
ENDBRANCH  25  26
ENDBRANCH   6  25
TORSDOF 9
ENDMDL
MODEL 5
REMARK VINA RESULT:      -6.9      2.844      8.329
REMARK  Name = 
REMARK  10 active torsions:
REMARK  status: ('A' for Active; 'I' for Inactive)
REMARK    1  A    between atoms: C_1  and  C_2
REMARK    2  A    between atoms: C_2  and  O_3
REMARK    3  A    between atoms: O_3  and  C_4
REMARK    4  A    between atoms: C_4  and  C_6
REMARK    5  A    between atoms: C_6  and  C_7
REMARK    6  A    between atoms: C_10  and  N_11
REMARK    7  A    between atoms: N_14  and  C_15
REMARK    8  A    between atoms: C_20  and  O_21
REMARK    9  A    between atoms: O_21  and  C_22
REMARK   10  A    between atoms: C_22  and  C_23
REMARK                            x       y       z     vdW  Elec       q    Type
REMARK                         _______ _______ _______ _____ _____    ______ ____
ROOT
ATOM      1  C   UNL     1       3.257   4.742  20.181  0.00  0.00    +0.000 A 
ATOM      2  C   UNL     1       3.424   3.388  20.515  0.00  0.00    +0.000 A 
ATOM      3  C   UNL     1       2.342   2.616  20.922  0.00  0.00    +0.000 A 
ATOM      4  C   UNL     1       1.072   3.172  20.939  0.00  0.00    +0.000 A 
ATOM      5  C   UNL     1       0.882   4.493  20.538  0.00  0.00    +0.000 A 
ATOM      6  C   UNL     1       1.966   5.308  20.178  0.00  0.00    +0.000 A 
ENDROOT
BRANCH   1  10
ATOM      7  N   UNL     1       4.848   4.589  17.850  0.00  0.00    +0.000 N 
ATOM      8  C   UNL     1       5.091   5.617  18.734  0.00  0.00    +0.000 C 
ATOM      9  O   UNL     1       5.849   6.566  18.559  0.00  0.00    +0.000 OA
ATOM     10  N   UNL     1       4.405   5.516  19.931  0.00  0.00    +0.000 N 
ATOM     11  H   UNL     1       4.235   3.864  18.189  0.00  0.00    +0.000 HD
ATOM     12  H   UNL     1       4.560   6.310  20.548  0.00  0.00    +0.000 HD
BRANCH   7  16
ATOM     13  C   UNL     1       6.075   3.969  13.858  0.00  0.00    +0.000 A 
ATOM     14  C   UNL     1       6.116   5.260  14.402  0.00  0.00    +0.000 A 
ATOM     15  C   UNL     1       5.719   5.495  15.724  0.00  0.00    +0.000 A 
ATOM     16  C   UNL     1       5.292   4.441  16.526  0.00  0.00    +0.000 A 
ATOM     17  C   UNL     1       5.284   3.143  15.995  0.00  0.00    +0.000 A 
ATOM     18  C   UNL     1       5.672   2.908  14.673  0.00  0.00    +0.000 A 
BRANCH  13  19
ATOM     19  C   UNL     1       6.469   3.729  12.422  0.00  0.00    +0.000 C 
BRANCH  19  20
ATOM     20  C   UNL     1       5.476   2.906  11.634  0.00  0.00    +0.000 C 
ATOM     21  O   UNL     1       5.653   1.779  11.195  0.00  0.00    +0.000 OA
BRANCH  20  22
ATOM     22  O   UNL     1       4.352   3.658  11.425  0.00  0.00    +0.000 OA
BRANCH  22  24
ATOM     23  C   UNL     1       2.926   4.166   9.583  0.00  0.00    +0.000 C 
ATOM     24  C   UNL     1       3.389   3.079  10.536  0.00  0.00    +0.000 C 
ENDBRANCH  22  24
ENDBRANCH  20  22
ENDBRANCH  19  20
ENDBRANCH  13  19
ENDBRANCH   7  16
ENDBRANCH   1  10
BRANCH   6  25
ATOM     25  O   UNL     1       1.829   6.657  19.902  0.00  0.00    +0.000 OA
BRANCH  25  26
ATOM     26  C   UNL     1       1.994   7.512  21.054  0.00  0.00    +0.000 C 
BRANCH  26  27
ATOM     27  C   UNL     1       1.056   8.695  21.087  0.00  0.00    +0.000 A 
ATOM     28  C   UNL     1       0.682   9.302  22.215  0.00  0.00    +0.000 A 
ATOM     29  C   UNL     1      -0.221  10.467  22.141  0.00  0.00    +0.000 A 
ATOM     30  O   UNL     1      -0.531  11.027  23.184  0.00  0.00    +0.000 OA
ATOM     31  N   UNL     1      -0.624  10.834  20.867  0.00  0.00    +0.000 N 
ATOM     32  C   UNL     1      -1.472  11.925  20.716  0.00  0.00    +0.000 A 
ATOM     33  C   UNL     1      -1.884  12.336  19.511  0.00  0.00    +0.000 A 
ATOM     34  C   UNL     1      -1.445  11.642  18.326  0.00  0.00    +0.000 A 
ATOM     35  C   UNL     1      -0.635  10.586  18.430  0.00  0.00    +0.000 A 
ATOM     36  C   UNL     1      -0.170  10.123  19.764  0.00  0.00    +0.000 A 
ATOM     37  N   UNL     1       0.632   9.096  19.832  0.00  0.00    +0.000 NA
ENDBRANCH  26  27
ENDBRANCH  25  26
ENDBRANCH   6  25
TORSDOF 9
ENDMDL
MODEL 6
REMARK VINA RESULT:      -6.9      2.509      5.933
REMARK  Name = 
REMARK  10 active torsions:
REMARK  status: ('A' for Active; 'I' for Inactive)
REMARK    1  A    between atoms: C_1  and  C_2
REMARK    2  A    between atoms: C_2  and  O_3
REMARK    3  A    between atoms: O_3  and  C_4
REMARK    4  A    between atoms: C_4  and  C_6
REMARK    5  A    between atoms: C_6  and  C_7
REMARK    6  A    between atoms: C_10  and  N_11
REMARK    7  A    between atoms: N_14  and  C_15
REMARK    8  A    between atoms: C_20  and  O_21
REMARK    9  A    between atoms: O_21  and  C_22
REMARK   10  A    between atoms: C_22  and  C_23
REMARK                            x       y       z     vdW  Elec       q    Type
REMARK                         _______ _______ _______ _____ _____    ______ ____
ROOT
ATOM      1  C   UNL     1       2.424   4.635  18.508  0.00  0.00    +0.000 A 
ATOM      2  C   UNL     1       1.320   3.908  18.031  0.00  0.00    +0.000 A 
ATOM      3  C   UNL     1       0.951   2.705  18.623  0.00  0.00    +0.000 A 
ATOM      4  C   UNL     1       1.643   2.248  19.734  0.00  0.00    +0.000 A 
ATOM      5  C   UNL     1       2.692   2.998  20.262  0.00  0.00    +0.000 A 
ATOM      6  C   UNL     1       3.119   4.186  19.648  0.00  0.00    +0.000 A 
ENDROOT
BRANCH   1  10
ATOM      7  N   UNL     1       1.707   7.310  19.071  0.00  0.00    +0.000 N 
ATOM      8  C   UNL     1       2.689   7.087  18.131  0.00  0.00    +0.000 C 
ATOM      9  O   UNL     1       3.390   7.938  17.593  0.00  0.00    +0.000 OA
ATOM     10  N   UNL     1       2.850   5.760  17.777  0.00  0.00    +0.000 N 
ATOM     11  H   UNL     1       1.193   6.493  19.361  0.00  0.00    +0.000 HD
ATOM     12  H   UNL     1       3.613   5.612  17.120  0.00  0.00    +0.000 HD
BRANCH   7  16
ATOM     13  C   UNL     1       0.575  10.969  20.848  0.00  0.00    +0.000 A 
ATOM     14  C   UNL     1       0.898   9.875  21.662  0.00  0.00    +0.000 A 
ATOM     15  C   UNL     1       1.280   8.651  21.101  0.00  0.00    +0.000 A 
ATOM     16  C   UNL     1       1.361   8.508  19.719  0.00  0.00    +0.000 A 
ATOM     17  C   UNL     1       1.074   9.611  18.904  0.00  0.00    +0.000 A 
ATOM     18  C   UNL     1       0.684  10.832  19.462  0.00  0.00    +0.000 A 
BRANCH  13  19
ATOM     19  C   UNL     1       0.127  12.274  21.459  0.00  0.00    +0.000 C 
BRANCH  19  20
ATOM     20  C   UNL     1      -1.359  12.360  21.722  0.00  0.00    +0.000 C 
ATOM     21  O   UNL     1      -2.241  12.461  20.882  0.00  0.00    +0.000 OA
BRANCH  20  22
ATOM     22  O   UNL     1      -1.563  12.376  23.075  0.00  0.00    +0.000 OA
BRANCH  22  24
ATOM     23  C   UNL     1      -3.735  12.512  24.048  0.00  0.00    +0.000 C 
ATOM     24  C   UNL     1      -2.551  13.309  23.531  0.00  0.00    +0.000 C 
ENDBRANCH  22  24
ENDBRANCH  20  22
ENDBRANCH  19  20
ENDBRANCH  13  19
ENDBRANCH   7  16
ENDBRANCH   1  10
BRANCH   6  25
ATOM     25  O   UNL     1       4.237   4.885  20.067  0.00  0.00    +0.000 OA
BRANCH  25  26
ATOM     26  C   UNL     1       5.489   4.286  19.665  0.00  0.00    +0.000 C 
BRANCH  26  27
ATOM     27  C   UNL     1       6.006   4.766  18.331  0.00  0.00    +0.000 A 
ATOM     28  C   UNL     1       6.738   5.871  18.184  0.00  0.00    +0.000 A 
ATOM     29  C   UNL     1       7.218   6.244  16.839  0.00  0.00    +0.000 A 
ATOM     30  O   UNL     1       7.910   7.247  16.728  0.00  0.00    +0.000 OA
ATOM     31  N   UNL     1       6.845   5.394  15.811  0.00  0.00    +0.000 N 
ATOM     32  C   UNL     1       7.260   5.677  14.515  0.00  0.00    +0.000 A 
ATOM     33  C   UNL     1       6.944   4.886  13.484  0.00  0.00    +0.000 A 
ATOM     34  C   UNL     1       6.152   3.701  13.704  0.00  0.00    +0.000 A 
ATOM     35  C   UNL     1       5.727   3.398  14.932  0.00  0.00    +0.000 A 
ATOM     36  C   UNL     1       6.075   4.270  16.085  0.00  0.00    +0.000 A 
ATOM     37  N   UNL     1       5.657   3.940  17.275  0.00  0.00    +0.000 NA
ENDBRANCH  26  27
ENDBRANCH  25  26
ENDBRANCH   6  25
TORSDOF 9
ENDMDL
MODEL 7
REMARK VINA RESULT:      -6.8      2.552      5.801
REMARK  Name = 
REMARK  10 active torsions:
REMARK  status: ('A' for Active; 'I' for Inactive)
REMARK    1  A    between atoms: C_1  and  C_2
REMARK    2  A    between atoms: C_2  and  O_3
REMARK    3  A    between atoms: O_3  and  C_4
REMARK    4  A    between atoms: C_4  and  C_6
REMARK    5  A    between atoms: C_6  and  C_7
REMARK    6  A    between atoms: C_10  and  N_11
REMARK    7  A    between atoms: N_14  and  C_15
REMARK    8  A    between atoms: C_20  and  O_21
REMARK    9  A    between atoms: O_21  and  C_22
REMARK   10  A    between atoms: C_22  and  C_23
REMARK                            x       y       z     vdW  Elec       q    Type
REMARK                         _______ _______ _______ _____ _____    ______ ____
ROOT
ATOM      1  C   UNL     1       2.482   4.535  19.489  0.00  0.00    +0.000 A 
ATOM      2  C   UNL     1       2.195   4.777  20.843  0.00  0.00    +0.000 A 
ATOM      3  C   UNL     1       1.737   3.756  21.668  0.00  0.00    +0.000 A 
ATOM      4  C   UNL     1       1.619   2.470  21.164  0.00  0.00    +0.000 A 
ATOM      5  C   UNL     1       1.972   2.201  19.842  0.00  0.00    +0.000 A 
ATOM      6  C   UNL     1       2.383   3.227  18.976  0.00  0.00    +0.000 A 
ENDROOT
BRANCH   1  10
ATOM      7  N   UNL     1       1.576   7.181  19.896  0.00  0.00    +0.000 N 
ATOM      8  C   UNL     1       2.536   6.966  18.932  0.00  0.00    +0.000 C 
ATOM      9  O   UNL     1       3.147   7.827  18.306  0.00  0.00    +0.000 OA
ATOM     10  N   UNL     1       2.789   5.633  18.664  0.00  0.00    +0.000 N 
ATOM     11  H   UNL     1       1.140   6.350  20.264  0.00  0.00    +0.000 HD
ATOM     12  H   UNL     1       3.535   5.496  17.987  0.00  0.00    +0.000 HD
BRANCH   7  16
ATOM     13  C   UNL     1       0.232  10.866  21.460  0.00  0.00    +0.000 A 
ATOM     14  C   UNL     1       0.627   9.845  22.335  0.00  0.00    +0.000 A 
ATOM     15  C   UNL     1       1.081   8.614  21.846  0.00  0.00    +0.000 A 
ATOM     16  C   UNL     1       1.162   8.393  20.474  0.00  0.00    +0.000 A 
ATOM     17  C   UNL     1       0.802   9.425  19.596  0.00  0.00    +0.000 A 
ATOM     18  C   UNL     1       0.341  10.651  20.083  0.00  0.00    +0.000 A 
BRANCH  13  19
ATOM     19  C   UNL     1      -0.291  12.175  21.995  0.00  0.00    +0.000 C 
BRANCH  19  20
ATOM     20  C   UNL     1       0.368  13.398  21.399  0.00  0.00    +0.000 C 
ATOM     21  O   UNL     1       1.470  13.842  21.686  0.00  0.00    +0.000 OA
BRANCH  20  22
ATOM     22  O   UNL     1      -0.505  13.982  20.522  0.00  0.00    +0.000 OA
BRANCH  22  24
ATOM     23  C   UNL     1      -0.721  16.095  19.439  0.00  0.00    +0.000 C 
ATOM     24  C   UNL     1       0.099  14.821  19.529  0.00  0.00    +0.000 C 
ENDBRANCH  22  24
ENDBRANCH  20  22
ENDBRANCH  19  20
ENDBRANCH  13  19
ENDBRANCH   7  16
ENDBRANCH   1  10
BRANCH   6  25
ATOM     25  O   UNL     1       2.614   3.019  17.628  0.00  0.00    +0.000 OA
BRANCH  25  26
ATOM     26  C   UNL     1       4.002   2.794  17.297  0.00  0.00    +0.000 C 
BRANCH  26  27
ATOM     27  C   UNL     1       4.809   4.056  17.117  0.00  0.00    +0.000 A 
ATOM     28  C   UNL     1       4.646   4.890  16.088  0.00  0.00    +0.000 A 
ATOM     29  C   UNL     1       5.470   6.113  16.014  0.00  0.00    +0.000 A 
ATOM     30  O   UNL     1       5.287   6.878  15.077  0.00  0.00    +0.000 OA
ATOM     31  N   UNL     1       6.378   6.289  17.045  0.00  0.00    +0.000 N 
ATOM     32  C   UNL     1       7.188   7.418  17.046  0.00  0.00    +0.000 A 
ATOM     33  C   UNL     1       8.073   7.650  18.022  0.00  0.00    +0.000 A 
ATOM     34  C   UNL     1       8.204   6.714  19.111  0.00  0.00    +0.000 A 
ATOM     35  C   UNL     1       7.449   5.614  19.142  0.00  0.00    +0.000 A 
ATOM     36  C   UNL     1       6.461   5.348  18.064  0.00  0.00    +0.000 A 
ATOM     37  N   UNL     1       5.729   4.271  18.130  0.00  0.00    +0.000 NA
ENDBRANCH  26  27
ENDBRANCH  25  26
ENDBRANCH   6  25
TORSDOF 9
ENDMDL
MODEL 8
REMARK VINA RESULT:      -6.7      5.069      8.876
REMARK  Name = 
REMARK  10 active torsions:
REMARK  status: ('A' for Active; 'I' for Inactive)
REMARK    1  A    between atoms: C_1  and  C_2
REMARK    2  A    between atoms: C_2  and  O_3
REMARK    3  A    between atoms: O_3  and  C_4
REMARK    4  A    between atoms: C_4  and  C_6
REMARK    5  A    between atoms: C_6  and  C_7
REMARK    6  A    between atoms: C_10  and  N_11
REMARK    7  A    between atoms: N_14  and  C_15
REMARK    8  A    between atoms: C_20  and  O_21
REMARK    9  A    between atoms: O_21  and  C_22
REMARK   10  A    between atoms: C_22  and  C_23
REMARK                            x       y       z     vdW  Elec       q    Type
REMARK                         _______ _______ _______ _____ _____    ______ ____
ROOT
ATOM      1  C   UNL     1      -0.793  10.962  20.827  0.00  0.00    +0.000 A 
ATOM      2  C   UNL     1      -1.150  11.439  22.099  0.00  0.00    +0.000 A 
ATOM      3  C   UNL     1      -0.923  10.673  23.236  0.00  0.00    +0.000 A 
ATOM      4  C   UNL     1      -0.281   9.450  23.121  0.00  0.00    +0.000 A 
ATOM      5  C   UNL     1       0.146   8.999  21.873  0.00  0.00    +0.000 A 
ATOM      6  C   UNL     1      -0.123   9.728  20.704  0.00  0.00    +0.000 A 
ENDROOT
BRANCH   1  10
ATOM      7  N   UNL     1       0.660  13.109  19.700  0.00  0.00    +0.000 N 
ATOM      8  C   UNL     1      -0.422  12.620  19.001  0.00  0.00    +0.000 C 
ATOM      9  O   UNL     1      -0.755  12.934  17.862  0.00  0.00    +0.000 OA
ATOM     10  N   UNL     1      -1.187  11.704  19.699  0.00  0.00    +0.000 N 
ATOM     11  H   UNL     1       0.746  12.777  20.648  0.00  0.00    +0.000 HD
ATOM     12  H   UNL     1      -1.951  11.320  19.147  0.00  0.00    +0.000 HD
BRANCH   7  16
ATOM     13  C   UNL     1       3.699  15.792  18.523  0.00  0.00    +0.000 A 
ATOM     14  C   UNL     1       3.766  14.452  18.121  0.00  0.00    +0.000 A 
ATOM     15  C   UNL     1       2.771  13.540  18.493  0.00  0.00    +0.000 A 
ATOM     16  C   UNL     1       1.686  13.959  19.257  0.00  0.00    +0.000 A 
ATOM     17  C   UNL     1       1.599  15.308  19.630  0.00  0.00    +0.000 A 
ATOM     18  C   UNL     1       2.595  16.218  19.266  0.00  0.00    +0.000 A 
BRANCH  13  19
ATOM     19  C   UNL     1       4.794  16.761  18.150  0.00  0.00    +0.000 C 
BRANCH  19  20
ATOM     20  C   UNL     1       5.681  17.171  19.303  0.00  0.00    +0.000 C 
ATOM     21  O   UNL     1       5.614  18.216  19.934  0.00  0.00    +0.000 OA
BRANCH  20  22
ATOM     22  O   UNL     1       6.630  16.204  19.490  0.00  0.00    +0.000 OA
BRANCH  22  24
ATOM     23  C   UNL     1       7.537  14.407  18.212  0.00  0.00    +0.000 C 
ATOM     24  C   UNL     1       7.440  15.916  18.343  0.00  0.00    +0.000 C 
ENDBRANCH  22  24
ENDBRANCH  20  22
ENDBRANCH  19  20
ENDBRANCH  13  19
ENDBRANCH   7  16
ENDBRANCH   1  10
BRANCH   6  25
ATOM     25  O   UNL     1       0.169   9.249  19.440  0.00  0.00    +0.000 OA
BRANCH  25  26
ATOM     26  C   UNL     1       1.559   9.377  19.069  0.00  0.00    +0.000 C 
BRANCH  26  27
ATOM     27  C   UNL     1       2.290   8.063  18.942  0.00  0.00    +0.000 A 
ATOM     28  C   UNL     1       2.159   7.063  19.816  0.00  0.00    +0.000 A 
ATOM     29  C   UNL     1       2.900   5.807  19.591  0.00  0.00    +0.000 A 
ATOM     30  O   UNL     1       2.746   4.892  20.389  0.00  0.00    +0.000 OA
ATOM     31  N   UNL     1       3.702   5.776  18.462  0.00  0.00    +0.000 N 
ATOM     32  C   UNL     1       4.429   4.626  18.181  0.00  0.00    +0.000 A 
ATOM     33  C   UNL     1       5.209   4.532  17.098  0.00  0.00    +0.000 A 
ATOM     34  C   UNL     1       5.310   5.644  16.186  0.00  0.00    +0.000 A 
ATOM     35  C   UNL     1       4.634   6.769  16.425  0.00  0.00    +0.000 A 
ATOM     36  C   UNL     1       3.762   6.883  17.624  0.00  0.00    +0.000 A 
ATOM     37  N   UNL     1       3.103   7.990  17.823  0.00  0.00    +0.000 NA
ENDBRANCH  26  27
ENDBRANCH  25  26
ENDBRANCH   6  25
TORSDOF 9
ENDMDL
MODEL 9
REMARK VINA RESULT:      -6.7      4.913      8.996
REMARK  Name = 
REMARK  10 active torsions:
REMARK  status: ('A' for Active; 'I' for Inactive)
REMARK    1  A    between atoms: C_1  and  C_2
REMARK    2  A    between atoms: C_2  and  O_3
REMARK    3  A    between atoms: O_3  and  C_4
REMARK    4  A    between atoms: C_4  and  C_6
REMARK    5  A    between atoms: C_6  and  C_7
REMARK    6  A    between atoms: C_10  and  N_11
REMARK    7  A    between atoms: N_14  and  C_15
REMARK    8  A    between atoms: C_20  and  O_21
REMARK    9  A    between atoms: O_21  and  C_22
REMARK   10  A    between atoms: C_22  and  C_23
REMARK                            x       y       z     vdW  Elec       q    Type
REMARK                         _______ _______ _______ _____ _____    ______ ____
ROOT
ATOM      1  C   UNL     1       0.158  10.629  20.757  0.00  0.00    +0.000 A 
ATOM      2  C   UNL     1      -0.485  11.392  21.746  0.00  0.00    +0.000 A 
ATOM      3  C   UNL     1      -0.769  10.846  22.994  0.00  0.00    +0.000 A 
ATOM      4  C   UNL     1      -0.357   9.555  23.286  0.00  0.00    +0.000 A 
ATOM      5  C   UNL     1       0.349   8.815  22.339  0.00  0.00    +0.000 A 
ATOM      6  C   UNL     1       0.597   9.324  21.054  0.00  0.00    +0.000 A 
ENDROOT
BRANCH   1  10
ATOM      7  N   UNL     1      -2.001  11.200  19.025  0.00  0.00    +0.000 N 
ATOM      8  C   UNL     1      -0.749  11.651  18.670  0.00  0.00    +0.000 C 
ATOM      9  O   UNL     1      -0.481  12.396  17.733  0.00  0.00    +0.000 OA
ATOM     10  N   UNL     1       0.278  11.174  19.466  0.00  0.00    +0.000 N 
ATOM     11  H   UNL     1      -2.023  10.546  19.792  0.00  0.00    +0.000 HD
ATOM     12  H   UNL     1       1.186  11.559  19.218  0.00  0.00    +0.000 HD
BRANCH   7  16
ATOM     13  C   UNL     1      -5.778  12.441  17.604  0.00  0.00    +0.000 A 
ATOM     14  C   UNL     1      -4.894  11.786  16.737  0.00  0.00    +0.000 A 
ATOM     15  C   UNL     1      -3.636  11.360  17.181  0.00  0.00    +0.000 A 
ATOM     16  C   UNL     1      -3.252  11.567  18.502  0.00  0.00    +0.000 A 
ATOM     17  C   UNL     1      -4.149  12.189  19.381  0.00  0.00    +0.000 A 
ATOM     18  C   UNL     1      -5.402  12.623  18.938  0.00  0.00    +0.000 A 
BRANCH  13  19
ATOM     19  C   UNL     1      -7.116  12.931  17.109  0.00  0.00    +0.000 C 
BRANCH  19  20
ATOM     20  C   UNL     1      -7.188  14.424  16.888  0.00  0.00    +0.000 C 
ATOM     21  O   UNL     1      -6.846  15.027  15.881  0.00  0.00    +0.000 OA
BRANCH  20  22
ATOM     22  O   UNL     1      -7.641  15.015  18.036  0.00  0.00    +0.000 OA
BRANCH  22  24
ATOM     23  C   UNL     1      -6.179  16.581  19.084  0.00  0.00    +0.000 C 
ATOM     24  C   UNL     1      -7.364  16.417  18.148  0.00  0.00    +0.000 C 
ENDBRANCH  22  24
ENDBRANCH  20  22
ENDBRANCH  19  20
ENDBRANCH  13  19
ENDBRANCH   7  16
ENDBRANCH   1  10
BRANCH   6  25
ATOM     25  O   UNL     1       1.177   8.569  20.050  0.00  0.00    +0.000 OA
BRANCH  25  26
ATOM     26  C   UNL     1       1.927   7.432  20.528  0.00  0.00    +0.000 C 
BRANCH  26  27
ATOM     27  C   UNL     1       2.425   6.514  19.438  0.00  0.00    +0.000 A 
ATOM     28  C   UNL     1       1.766   5.426  19.038  0.00  0.00    +0.000 A 
ATOM     29  C   UNL     1       2.325   4.605  17.946  0.00  0.00    +0.000 A 
ATOM     30  O   UNL     1       1.692   3.625  17.576  0.00  0.00    +0.000 OA
ATOM     31  N   UNL     1       3.530   5.043  17.422  0.00  0.00    +0.000 N 
ATOM     32  C   UNL     1       4.118   4.324  16.388  0.00  0.00    +0.000 A 
ATOM     33  C   UNL     1       5.273   4.706  15.832  0.00  0.00    +0.000 A 
ATOM     34  C   UNL     1       5.939   5.894  16.303  0.00  0.00    +0.000 A 
ATOM     35  C   UNL     1       5.411   6.608  17.299  0.00  0.00    +0.000 A 
ATOM     36  C   UNL     1       4.126   6.193  17.922  0.00  0.00    +0.000 A 
ATOM     37  N   UNL     1       3.628   6.920  18.884  0.00  0.00    +0.000 NA
ENDBRANCH  26  27
ENDBRANCH  25  26
ENDBRANCH   6  25
TORSDOF 9
ENDMDL
