MODEL 1
REMARK VINA RESULT:      -5.5      0.000      0.000
REMARK  Name = 
REMARK  2 active torsions:
REMARK  status: ('A' for Active; 'I' for Inactive)
REMARK    1  A    between atoms: C_1  and  C_2
REMARK    2  A    between atoms: N_4  and  C_5
REMARK                            x       y       z     vdW  Elec       q    Type
REMARK                         _______ _______ _______ _____ _____    ______ ____
ROOT
ATOM      1  C   UNL     1       4.435   4.780  19.240  0.00  0.00    +0.000 A 
ATOM      2  C   UNL     1       3.370   5.463  19.832  0.00  0.00    +0.000 A 
ATOM      3  C   UNL     1       2.412   4.775  20.585  0.00  0.00    +0.000 A 
ATOM      4  C   UNL     1       2.516   3.397  20.746  0.00  0.00    +0.000 A 
ATOM      5 CL   UNL     1       1.364   2.557  21.707  0.00  0.00    +0.000 Cl
ATOM      6  C   UNL     1       3.556   2.699  20.135  0.00  0.00    +0.000 A 
ATOM      7  C   UNL     1       4.506   3.388  19.375  0.00  0.00    +0.000 A 
ENDROOT
BRANCH   1  11
ATOM      8  C   UNL     1       7.573   6.388  17.903  0.00  0.00    +0.000 C 
ATOM      9  C   UNL     1       6.748   5.674  18.941  0.00  0.00    +0.000 C 
ATOM     10  O   UNL     1       7.229   5.378  20.029  0.00  0.00    +0.000 OA
ATOM     11  N   UNL     1       5.458   5.419  18.509  0.00  0.00    +0.000 N 
ATOM     12  H   UNL     1       5.255   5.624  17.537  0.00  0.00    +0.000 HD
ENDBRANCH   1  11
TORSDOF 1
ENDMDL
MODEL 2
REMARK VINA RESULT:      -5.5      0.149      1.461
REMARK  Name = 
REMARK  2 active torsions:
REMARK  status: ('A' for Active; 'I' for Inactive)
REMARK    1  A    between atoms: C_1  and  C_2
REMARK    2  A    between atoms: N_4  and  C_5
REMARK                            x       y       z     vdW  Elec       q    Type
REMARK                         _______ _______ _______ _____ _____    ______ ____
ROOT
ATOM      1  C   UNL     1       4.570   4.718  19.243  0.00  0.00    +0.000 A 
ATOM      2  C   UNL     1       4.582   3.333  19.423  0.00  0.00    +0.000 A 
ATOM      3  C   UNL     1       3.546   2.696  20.117  0.00  0.00    +0.000 A 
ATOM      4  C   UNL     1       2.495   3.446  20.635  0.00  0.00    +0.000 A 
ATOM      5 CL   UNL     1       1.201   2.659  21.449  0.00  0.00    +0.000 Cl
ATOM      6  C   UNL     1       2.487   4.831  20.489  0.00  0.00    +0.000 A 
ATOM      7  C   UNL     1       3.528   5.466  19.804  0.00  0.00    +0.000 A 
ENDROOT
BRANCH   1  11
ATOM      8  C   UNL     1       7.621   6.487  17.907  0.00  0.00    +0.000 C 
ATOM      9  C   UNL     1       6.839   5.718  18.939  0.00  0.00    +0.000 C 
ATOM     10  O   UNL     1       7.344   5.422  20.016  0.00  0.00    +0.000 OA
ATOM     11  N   UNL     1       5.557   5.415  18.514  0.00  0.00    +0.000 N 
ATOM     12  H   UNL     1       5.334   5.630  17.550  0.00  0.00    +0.000 HD
ENDBRANCH   1  11
TORSDOF 1
ENDMDL
MODEL 3
REMARK VINA RESULT:      -5.3      1.823      1.823
REMARK  Name = 
REMARK  2 active torsions:
REMARK  status: ('A' for Active; 'I' for Inactive)
REMARK    1  A    between atoms: C_1  and  C_2
REMARK    2  A    between atoms: N_4  and  C_5
REMARK                            x       y       z     vdW  Elec       q    Type
REMARK                         _______ _______ _______ _____ _____    ______ ____
ROOT
ATOM      1  C   UNL     1       4.169   4.924  17.817  0.00  0.00    +0.000 A 
ATOM      2  C   UNL     1       3.007   5.463  18.374  0.00  0.00    +0.000 A 
ATOM      3  C   UNL     1       1.895   4.651  18.626  0.00  0.00    +0.000 A 
ATOM      4  C   UNL     1       1.943   3.295  18.316  0.00  0.00    +0.000 A 
ATOM      5 CL   UNL     1       0.593   2.289  18.665  0.00  0.00    +0.000 Cl
ATOM      6  C   UNL     1       3.084   2.752  17.732  0.00  0.00    +0.000 A 
ATOM      7  C   UNL     1       4.191   3.567  17.473  0.00  0.00    +0.000 A 
ENDROOT
BRANCH   1  11
ATOM      8  C   UNL     1       7.516   6.662  17.846  0.00  0.00    +0.000 C 
ATOM      9  C   UNL     1       6.453   5.750  18.400  0.00  0.00    +0.000 C 
ATOM     10  O   UNL     1       6.623   5.164  19.464  0.00  0.00    +0.000 OA
ATOM     11  N   UNL     1       5.339   5.677  17.582  0.00  0.00    +0.000 N 
ATOM     12  H   UNL     1       5.407   6.131  16.679  0.00  0.00    +0.000 HD
ENDBRANCH   1  11
TORSDOF 1
ENDMDL
MODEL 4
REMARK VINA RESULT:      -5.3      2.674      2.786
REMARK  Name = 
REMARK  2 active torsions:
REMARK  status: ('A' for Active; 'I' for Inactive)
REMARK    1  A    between atoms: C_1  and  C_2
REMARK    2  A    between atoms: N_4  and  C_5
REMARK                            x       y       z     vdW  Elec       q    Type
REMARK                         _______ _______ _______ _____ _____    ______ ____
ROOT
ATOM      1  C   UNL     1       4.171   3.548  17.477  0.00  0.00    +0.000 A 
ATOM      2  C   UNL     1       2.822   3.423  17.137  0.00  0.00    +0.000 A 
ATOM      3  C   UNL     1       1.835   3.418  18.129  0.00  0.00    +0.000 A 
ATOM      4  C   UNL     1       2.197   3.535  19.468  0.00  0.00    +0.000 A 
ATOM      5 CL   UNL     1       0.981   3.573  20.683  0.00  0.00    +0.000 Cl
ATOM      6  C   UNL     1       3.540   3.631  19.822  0.00  0.00    +0.000 A 
ATOM      7  C   UNL     1       4.526   3.626  18.830  0.00  0.00    +0.000 A 
ENDROOT
BRANCH   1  11
ATOM      8  C   UNL     1       6.737   4.417  14.854  0.00  0.00    +0.000 C 
ATOM      9  C   UNL     1       5.598   4.716  15.792  0.00  0.00    +0.000 C 
ATOM     10  O   UNL     1       5.114   5.841  15.851  0.00  0.00    +0.000 OA
ATOM     11  N   UNL     1       5.210   3.608  16.525  0.00  0.00    +0.000 N 
ATOM     12  H   UNL     1       5.791   2.782  16.442  0.00  0.00    +0.000 HD
ENDBRANCH   1  11
TORSDOF 1
ENDMDL
MODEL 5
REMARK VINA RESULT:      -5.3      1.674      2.212
REMARK  Name = 
REMARK  2 active torsions:
REMARK  status: ('A' for Active; 'I' for Inactive)
REMARK    1  A    between atoms: C_1  and  C_2
REMARK    2  A    between atoms: N_4  and  C_5
REMARK                            x       y       z     vdW  Elec       q    Type
REMARK                         _______ _______ _______ _____ _____    ______ ____
ROOT
ATOM      1  C   UNL     1       4.334   4.693  18.013  0.00  0.00    +0.000 A 
ATOM      2  C   UNL     1       4.279   3.331  17.708  0.00  0.00    +0.000 A 
ATOM      3  C   UNL     1       3.108   2.598  17.930  0.00  0.00    +0.000 A 
ATOM      4  C   UNL     1       1.987   3.227  18.462  0.00  0.00    +0.000 A 
ATOM      5 CL   UNL     1       0.534   2.336  18.695  0.00  0.00    +0.000 Cl
ATOM      6  C   UNL     1       2.038   4.577  18.799  0.00  0.00    +0.000 A 
ATOM      7  C   UNL     1       3.212   5.306  18.585  0.00  0.00    +0.000 A 
ENDROOT
BRANCH   1  11
ATOM      8  C   UNL     1       7.565   6.637  18.047  0.00  0.00    +0.000 C 
ATOM      9  C   UNL     1       6.536   5.701  18.624  0.00  0.00    +0.000 C 
ATOM     10  O   UNL     1       6.692   5.206  19.735  0.00  0.00    +0.000 OA
ATOM     11  N   UNL     1       5.466   5.499  17.770  0.00  0.00    +0.000 N 
ATOM     12  H   UNL     1       5.547   5.891  16.839  0.00  0.00    +0.000 HD
ENDBRANCH   1  11
TORSDOF 1
ENDMDL
MODEL 6
REMARK VINA RESULT:      -5.3      2.660      2.834
REMARK  Name = 
REMARK  2 active torsions:
REMARK  status: ('A' for Active; 'I' for Inactive)
REMARK    1  A    between atoms: C_1  and  C_2
REMARK    2  A    between atoms: N_4  and  C_5
REMARK                            x       y       z     vdW  Elec       q    Type
REMARK                         _______ _______ _______ _____ _____    ______ ____
ROOT
ATOM      1  C   UNL     1       4.185   3.493  17.567  0.00  0.00    +0.000 A 
ATOM      2  C   UNL     1       4.521   3.535  18.923  0.00  0.00    +0.000 A 
ATOM      3  C   UNL     1       3.529   3.453  19.906  0.00  0.00    +0.000 A 
ATOM      4  C   UNL     1       2.194   3.332  19.534  0.00  0.00    +0.000 A 
ATOM      5 CL   UNL     1       0.978   3.187  20.741  0.00  0.00    +0.000 Cl
ATOM      6  C   UNL     1       1.842   3.320  18.186  0.00  0.00    +0.000 A 
ATOM      7  C   UNL     1       2.835   3.411  17.205  0.00  0.00    +0.000 A 
ENDROOT
BRANCH   1  11
ATOM      8  C   UNL     1       6.562   4.298  14.752  0.00  0.00    +0.000 C 
ATOM      9  C   UNL     1       5.529   4.632  15.795  0.00  0.00    +0.000 C 
ATOM     10  O   UNL     1       5.122   5.780  15.929  0.00  0.00    +0.000 OA
ATOM     11  N   UNL     1       5.139   3.524  16.528  0.00  0.00    +0.000 N 
ATOM     12  H   UNL     1       5.659   2.669  16.371  0.00  0.00    +0.000 HD
ENDBRANCH   1  11
TORSDOF 1
ENDMDL
MODEL 7
REMARK VINA RESULT:      -5.3      3.688      5.330
REMARK  Name = 
REMARK  2 active torsions:
REMARK  status: ('A' for Active; 'I' for Inactive)
REMARK    1  A    between atoms: C_1  and  C_2
REMARK    2  A    between atoms: N_4  and  C_5
REMARK                            x       y       z     vdW  Elec       q    Type
REMARK                         _______ _______ _______ _____ _____    ______ ____
ROOT
ATOM      1  C   UNL     1       5.707   4.538  17.631  0.00  0.00    +0.000 A 
ATOM      2  C   UNL     1       6.951   4.662  18.257  0.00  0.00    +0.000 A 
ATOM      3  C   UNL     1       7.637   5.882  18.243  0.00  0.00    +0.000 A 
ATOM      4  C   UNL     1       7.080   6.983  17.600  0.00  0.00    +0.000 A 
ATOM      5 CL   UNL     1       7.903   8.493  17.621  0.00  0.00    +0.000 Cl
ATOM      6  C   UNL     1       5.856   6.865  16.946  0.00  0.00    +0.000 A 
ATOM      7  C   UNL     1       5.177   5.643  16.953  0.00  0.00    +0.000 A 
ENDROOT
BRANCH   1  11
ATOM      8  C   UNL     1       3.407   1.632  18.323  0.00  0.00    +0.000 C 
ATOM      9  C   UNL     1       4.033   2.969  18.617  0.00  0.00    +0.000 C 
ATOM     10  O   UNL     1       3.723   3.599  19.623  0.00  0.00    +0.000 OA
ATOM     11  N   UNL     1       4.943   3.353  17.648  0.00  0.00    +0.000 N 
ATOM     12  H   UNL     1       4.997   2.772  16.820  0.00  0.00    +0.000 HD
ENDBRANCH   1  11
TORSDOF 1
ENDMDL
MODEL 8
REMARK VINA RESULT:      -5.2      3.705      5.200
REMARK  Name = 
REMARK  2 active torsions:
REMARK  status: ('A' for Active; 'I' for Inactive)
REMARK    1  A    between atoms: C_1  and  C_2
REMARK    2  A    between atoms: N_4  and  C_5
REMARK                            x       y       z     vdW  Elec       q    Type
REMARK                         _______ _______ _______ _____ _____    ______ ____
ROOT
ATOM      1  C   UNL     1       5.581   4.644  17.654  0.00  0.00    +0.000 A 
ATOM      2  C   UNL     1       5.090   5.790  17.025  0.00  0.00    +0.000 A 
ATOM      3  C   UNL     1       5.836   6.974  17.016  0.00  0.00    +0.000 A 
ATOM      4  C   UNL     1       7.078   7.014  17.642  0.00  0.00    +0.000 A 
ATOM      5 CL   UNL     1       8.015   8.456  17.595  0.00  0.00    +0.000 Cl
ATOM      6  C   UNL     1       7.566   5.888  18.300  0.00  0.00    +0.000 A 
ATOM      7  C   UNL     1       6.814   4.709  18.315  0.00  0.00    +0.000 A 
ENDROOT
BRANCH   1  11
ATOM      8  C   UNL     1       3.496   1.573  18.320  0.00  0.00    +0.000 C 
ATOM      9  C   UNL     1       4.030   2.946  18.630  0.00  0.00    +0.000 C 
ATOM     10  O   UNL     1       3.689   3.536  19.650  0.00  0.00    +0.000 OA
ATOM     11  N   UNL     1       4.901   3.408  17.659  0.00  0.00    +0.000 N 
ATOM     12  H   UNL     1       4.986   2.846  16.820  0.00  0.00    +0.000 HD
ENDBRANCH   1  11
TORSDOF 1
ENDMDL
MODEL 9
REMARK VINA RESULT:      -5.2      2.382      2.805
REMARK  Name = 
REMARK  2 active torsions:
REMARK  status: ('A' for Active; 'I' for Inactive)
REMARK    1  A    between atoms: C_1  and  C_2
REMARK    2  A    between atoms: N_4  and  C_5
REMARK                            x       y       z     vdW  Elec       q    Type
REMARK                         _______ _______ _______ _____ _____    ______ ____
ROOT
ATOM      1  C   UNL     1       3.949   3.943  17.166  0.00  0.00    +0.000 A 
ATOM      2  C   UNL     1       3.706   2.693  17.739  0.00  0.00    +0.000 A 
ATOM      3  C   UNL     1       2.774   2.552  18.773  0.00  0.00    +0.000 A 
ATOM      4  C   UNL     1       2.082   3.666  19.239  0.00  0.00    +0.000 A 
ATOM      5 CL   UNL     1       0.905   3.486  20.479  0.00  0.00    +0.000 Cl
ATOM      6  C   UNL     1       2.337   4.923  18.697  0.00  0.00    +0.000 A 
ATOM      7  C   UNL     1       3.276   5.063  17.670  0.00  0.00    +0.000 A 
ENDROOT
BRANCH   1  11
ATOM      8  C   UNL     1       6.844   4.552  14.827  0.00  0.00    +0.000 C 
ATOM      9  C   UNL     1       6.205   4.360  16.177  0.00  0.00    +0.000 C 
ATOM     10  O   UNL     1       6.878   4.400  17.201  0.00  0.00    +0.000 OA
ATOM     11  N   UNL     1       4.840   4.146  16.091  0.00  0.00    +0.000 N 
ATOM     12  H   UNL     1       4.456   4.026  15.161  0.00  0.00    +0.000 HD
ENDBRANCH   1  11
TORSDOF 1
ENDMDL
