MODEL 1
REMARK VINA RESULT:      -8.1      0.000      0.000
REMARK  Name = 
REMARK  2 active torsions:
REMARK  status: ('A' for Active; 'I' for Inactive)
REMARK    1  A    between atoms: C_4  and  C_5
REMARK    2  A    between atoms: C_8  and  S_9
REMARK                            x       y       z     vdW  Elec       q    Type
REMARK                         _______ _______ _______ _____ _____    ______ ____
ROOT
ATOM      1  O   UNL     1       1.668   3.888  21.289  0.00  0.00    +0.000 OA
ATOM      2  C   UNL     1       2.020   4.788  20.534  0.00  0.00    +0.000 A 
ATOM      3  C   UNL     1       1.533   6.157  20.725  0.00  0.00    +0.000 A 
ATOM      4  C   UNL     1       1.966   7.139  19.922  0.00  0.00    +0.000 A 
ATOM      5  O   UNL     1       2.853   6.921  18.864  0.00  0.00    +0.000 OA
ATOM      6  C   UNL     1       3.305   5.640  18.606  0.00  0.00    +0.000 A 
ATOM      7  C   UNL     1       2.939   4.564  19.416  0.00  0.00    +0.000 A 
ATOM      8  C   UNL     1       3.422   3.279  19.169  0.00  0.00    +0.000 A 
ATOM      9  C   UNL     1       4.259   3.056  18.083  0.00  0.00    +0.000 A 
ATOM     10  C   UNL     1       4.627   4.108  17.236  0.00  0.00    +0.000 A 
ATOM     11  C   UNL     1       5.456   3.856  16.132  0.00  0.00    +0.000 A 
ATOM     12  C   UNL     1       5.835   4.880  15.271  0.00  0.00    +0.000 A 
ATOM     13  C   UNL     1       5.397   6.179  15.511  0.00  0.00    +0.000 A 
ATOM     14  C   UNL     1       4.572   6.451  16.607  0.00  0.00    +0.000 A 
ATOM     15  C   UNL     1       4.160   5.427  17.492  0.00  0.00    +0.000 A 
ENDROOT
BRANCH   4  16
ATOM     16  C   UNL     1       1.618   8.608  20.126  0.00  0.00    +0.000 C 
ATOM     17  C   UNL     1       1.361   9.335  18.795  0.00  0.00    +0.000 C 
ATOM     18  C   UNL     1       1.278  10.848  19.027  0.00  0.00    +0.000 C 
ATOM     19  C   UNL     1       0.229  11.264  20.067  0.00  0.00    +0.000 C 
ATOM     20  C   UNL     1       0.294  10.407  21.337  0.00  0.00    +0.000 C 
ATOM     21  C   UNL     1       0.435   8.904  21.074  0.00  0.00    +0.000 C 
BRANCH  19  22
ATOM     22  S   UNL     1      -1.453  11.249  19.346  0.00  0.00    +0.000 S 
ATOM     23  H   UNL     1      -2.136  11.396  20.489  0.00  0.00    +0.000 HD
ENDBRANCH  19  22
ENDBRANCH   4  16
TORSDOF 2
ENDMDL
MODEL 2
REMARK VINA RESULT:      -7.7      3.041      7.603
REMARK  Name = 
REMARK  2 active torsions:
REMARK  status: ('A' for Active; 'I' for Inactive)
REMARK    1  A    between atoms: C_4  and  C_5
REMARK    2  A    between atoms: C_8  and  S_9
REMARK                            x       y       z     vdW  Elec       q    Type
REMARK                         _______ _______ _______ _____ _____    ______ ____
ROOT
ATOM      1  O   UNL     1       2.456   9.537  17.012  0.00  0.00    +0.000 OA
ATOM      2  C   UNL     1       2.124   9.038  18.081  0.00  0.00    +0.000 A 
ATOM      3  C   UNL     1       2.486   7.656  18.407  0.00  0.00    +0.000 A 
ATOM      4  C   UNL     1       2.159   7.142  19.600  0.00  0.00    +0.000 A 
ATOM      5  O   UNL     1       1.443   7.856  20.566  0.00  0.00    +0.000 OA
ATOM      6  C   UNL     1       1.031   9.147  20.293  0.00  0.00    +0.000 A 
ATOM      7  C   UNL     1       1.364   9.777  19.093  0.00  0.00    +0.000 A 
ATOM      8  C   UNL     1       0.971  11.090  18.835  0.00  0.00    +0.000 A 
ATOM      9  C   UNL     1       0.213  11.778  19.774  0.00  0.00    +0.000 A 
ATOM     10  C   UNL     1      -0.159  11.168  20.978  0.00  0.00    +0.000 A 
ATOM     11  C   UNL     1      -0.944  11.874  21.903  0.00  0.00    +0.000 A 
ATOM     12  C   UNL     1      -1.331  11.294  23.106  0.00  0.00    +0.000 A 
ATOM     13  C   UNL     1      -0.926   9.996  23.407  0.00  0.00    +0.000 A 
ATOM     14  C   UNL     1      -0.141   9.278  22.499  0.00  0.00    +0.000 A 
ATOM     15  C   UNL     1       0.256   9.837  21.263  0.00  0.00    +0.000 A 
ENDROOT
BRANCH   4  16
ATOM     16  C   UNL     1       2.605   5.765  20.075  0.00  0.00    +0.000 C 
ATOM     17  C   UNL     1       1.423   4.901  20.548  0.00  0.00    +0.000 C 
ATOM     18  C   UNL     1       1.940   3.642  21.256  0.00  0.00    +0.000 C 
ATOM     19  C   UNL     1       2.903   2.801  20.409  0.00  0.00    +0.000 C 
ATOM     20  C   UNL     1       3.976   3.655  19.721  0.00  0.00    +0.000 C 
ATOM     21  C   UNL     1       3.439   4.935  19.074  0.00  0.00    +0.000 C 
BRANCH  19  22
ATOM     22  S   UNL     1       1.990   1.783  19.191  0.00  0.00    +0.000 S 
ATOM     23  H   UNL     1       2.127   2.600  18.139  0.00  0.00    +0.000 HD
ENDBRANCH  19  22
ENDBRANCH   4  16
TORSDOF 2
ENDMDL
MODEL 3
REMARK VINA RESULT:      -7.6      1.556      3.819
REMARK  Name = 
REMARK  2 active torsions:
REMARK  status: ('A' for Active; 'I' for Inactive)
REMARK    1  A    between atoms: C_4  and  C_5
REMARK    2  A    between atoms: C_8  and  S_9
REMARK                            x       y       z     vdW  Elec       q    Type
REMARK                         _______ _______ _______ _____ _____    ______ ____
ROOT
ATOM      1  O   UNL     1       4.965   7.036  16.274  0.00  0.00    +0.000 OA
ATOM      2  C   UNL     1       4.150   6.963  17.187  0.00  0.00    +0.000 A 
ATOM      3  C   UNL     1       3.265   8.091  17.490  0.00  0.00    +0.000 A 
ATOM      4  C   UNL     1       2.346   7.979  18.459  0.00  0.00    +0.000 A 
ATOM      5  O   UNL     1       2.201   6.829  19.241  0.00  0.00    +0.000 OA
ATOM      6  C   UNL     1       3.044   5.752  19.032  0.00  0.00    +0.000 A 
ATOM      7  C   UNL     1       4.001   5.766  18.017  0.00  0.00    +0.000 A 
ATOM      8  C   UNL     1       4.828   4.666  17.792  0.00  0.00    +0.000 A 
ATOM      9  C   UNL     1       4.719   3.545  18.606  0.00  0.00    +0.000 A 
ATOM     10  C   UNL     1       3.786   3.507  19.648  0.00  0.00    +0.000 A 
ATOM     11  C   UNL     1       3.708   2.373  20.472  0.00  0.00    +0.000 A 
ATOM     12  C   UNL     1       2.792   2.308  21.517  0.00  0.00    +0.000 A 
ATOM     13  C   UNL     1       1.930   3.377  21.746  0.00  0.00    +0.000 A 
ATOM     14  C   UNL     1       1.992   4.514  20.934  0.00  0.00    +0.000 A 
ATOM     15  C   UNL     1       2.920   4.614  19.873  0.00  0.00    +0.000 A 
ENDROOT
BRANCH   4  16
ATOM     16  C   UNL     1       1.301   9.046  18.757  0.00  0.00    +0.000 C 
ATOM     17  C   UNL     1       0.968   9.134  20.256  0.00  0.00    +0.000 C 
ATOM     18  C   UNL     1      -0.262  10.022  20.473  0.00  0.00    +0.000 C 
ATOM     19  C   UNL     1      -0.129  11.430  19.879  0.00  0.00    +0.000 C 
ATOM     20  C   UNL     1       0.423  11.411  18.448  0.00  0.00    +0.000 C 
ATOM     21  C   UNL     1       1.616  10.471  18.248  0.00  0.00    +0.000 C 
BRANCH  19  22
ATOM     22  S   UNL     1       0.880  12.507  20.961  0.00  0.00    +0.000 S 
ATOM     23  H   UNL     1       1.354  13.321  20.008  0.00  0.00    +0.000 HD
ENDBRANCH  19  22
ENDBRANCH   4  16
TORSDOF 2
ENDMDL
MODEL 4
REMARK VINA RESULT:      -7.4      1.678      3.700
REMARK  Name = 
REMARK  2 active torsions:
REMARK  status: ('A' for Active; 'I' for Inactive)
REMARK    1  A    between atoms: C_4  and  C_5
REMARK    2  A    between atoms: C_8  and  S_9
REMARK                            x       y       z     vdW  Elec       q    Type
REMARK                         _______ _______ _______ _____ _____    ______ ____
ROOT
ATOM      1  O   UNL     1       5.568   7.197  16.329  0.00  0.00    +0.000 OA
ATOM      2  C   UNL     1       4.537   7.004  16.963  0.00  0.00    +0.000 A 
ATOM      3  C   UNL     1       3.701   8.129  17.391  0.00  0.00    +0.000 A 
ATOM      4  C   UNL     1       2.551   7.900  18.040  0.00  0.00    +0.000 A 
ATOM      5  O   UNL     1       2.107   6.616  18.370  0.00  0.00    +0.000 OA
ATOM      6  C   UNL     1       2.881   5.520  18.036  0.00  0.00    +0.000 A 
ATOM      7  C   UNL     1       4.072   5.663  17.323  0.00  0.00    +0.000 A 
ATOM      8  C   UNL     1       4.833   4.551  16.962  0.00  0.00    +0.000 A 
ATOM      9  C   UNL     1       4.417   3.281  17.340  0.00  0.00    +0.000 A 
ATOM     10  C   UNL     1       3.240   3.103  18.076  0.00  0.00    +0.000 A 
ATOM     11  C   UNL     1       2.850   1.813  18.467  0.00  0.00    +0.000 A 
ATOM     12  C   UNL     1       1.687   1.606  19.201  0.00  0.00    +0.000 A 
ATOM     13  C   UNL     1       0.889   2.692  19.547  0.00  0.00    +0.000 A 
ATOM     14  C   UNL     1       1.260   3.986  19.165  0.00  0.00    +0.000 A 
ATOM     15  C   UNL     1       2.443   4.227  18.430  0.00  0.00    +0.000 A 
ENDROOT
BRANCH   4  16
ATOM     16  C   UNL     1       1.558   8.995  18.407  0.00  0.00    +0.000 C 
ATOM     17  C   UNL     1       1.191   8.972  19.900  0.00  0.00    +0.000 C 
ATOM     18  C   UNL     1       0.006   9.907  20.167  0.00  0.00    +0.000 C 
ATOM     19  C   UNL     1       0.231  11.350  19.701  0.00  0.00    +0.000 C 
ATOM     20  C   UNL     1       0.819  11.423  18.286  0.00  0.00    +0.000 C 
ATOM     21  C   UNL     1       1.964  10.438  18.031  0.00  0.00    +0.000 C 
BRANCH  19  22
ATOM     22  S   UNL     1       1.269  12.272  20.895  0.00  0.00    +0.000 S 
ATOM     23  H   UNL     1       2.238  12.634  20.044  0.00  0.00    +0.000 HD
ENDBRANCH  19  22
ENDBRANCH   4  16
TORSDOF 2
ENDMDL
MODEL 5
REMARK VINA RESULT:      -7.4      3.601      7.693
REMARK  Name = 
REMARK  2 active torsions:
REMARK  status: ('A' for Active; 'I' for Inactive)
REMARK    1  A    between atoms: C_4  and  C_5
REMARK    2  A    between atoms: C_8  and  S_9
REMARK                            x       y       z     vdW  Elec       q    Type
REMARK                         _______ _______ _______ _____ _____    ______ ____
ROOT
ATOM      1  O   UNL     1       0.006  11.841  22.135  0.00  0.00    +0.000 OA
ATOM      2  C   UNL     1      -0.008  11.168  21.112  0.00  0.00    +0.000 A 
ATOM      3  C   UNL     1       1.068  10.213  20.831  0.00  0.00    +0.000 A 
ATOM      4  C   UNL     1       1.013   9.448  19.731  0.00  0.00    +0.000 A 
ATOM      5  O   UNL     1      -0.022   9.534  18.795  0.00  0.00    +0.000 OA
ATOM      6  C   UNL     1      -1.037  10.453  18.985  0.00  0.00    +0.000 A 
ATOM      7  C   UNL     1      -1.083  11.261  20.121  0.00  0.00    +0.000 A 
ATOM      8  C   UNL     1      -2.125  12.165  20.321  0.00  0.00    +0.000 A 
ATOM      9  C   UNL     1      -3.123  12.287  19.362  0.00  0.00    +0.000 A 
ATOM     10  C   UNL     1      -3.095  11.510  18.199  0.00  0.00    +0.000 A 
ATOM     11  C   UNL     1      -4.102  11.665  17.233  0.00  0.00    +0.000 A 
ATOM     12  C   UNL     1      -4.099  10.908  16.066  0.00  0.00    +0.000 A 
ATOM     13  C   UNL     1      -3.090   9.973  15.854  0.00  0.00    +0.000 A 
ATOM     14  C   UNL     1      -2.080   9.802  16.806  0.00  0.00    +0.000 A 
ATOM     15  C   UNL     1      -2.050  10.566  17.995  0.00  0.00    +0.000 A 
ENDROOT
BRANCH   4  16
ATOM     16  C   UNL     1       2.014   8.341  19.425  0.00  0.00    +0.000 C 
ATOM     17  C   UNL     1       1.708   7.048  20.200  0.00  0.00    +0.000 C 
ATOM     18  C   UNL     1       2.875   6.064  20.067  0.00  0.00    +0.000 C 
ATOM     19  C   UNL     1       3.252   5.733  18.617  0.00  0.00    +0.000 C 
ATOM     20  C   UNL     1       3.346   6.986  17.737  0.00  0.00    +0.000 C 
ATOM     21  C   UNL     1       2.195   7.979  17.934  0.00  0.00    +0.000 C 
BRANCH  19  22
ATOM     22  S   UNL     1       2.094   4.509  17.900  0.00  0.00    +0.000 S 
ATOM     23  H   UNL     1       2.950   3.481  17.823  0.00  0.00    +0.000 HD
ENDBRANCH  19  22
ENDBRANCH   4  16
TORSDOF 2
ENDMDL
MODEL 6
REMARK VINA RESULT:      -7.1      0.991      1.431
REMARK  Name = 
REMARK  2 active torsions:
REMARK  status: ('A' for Active; 'I' for Inactive)
REMARK    1  A    between atoms: C_4  and  C_5
REMARK    2  A    between atoms: C_8  and  S_9
REMARK                            x       y       z     vdW  Elec       q    Type
REMARK                         _______ _______ _______ _____ _____    ______ ____
ROOT
ATOM      1  O   UNL     1       2.172   4.068  21.716  0.00  0.00    +0.000 OA
ATOM      2  C   UNL     1       2.294   4.945  20.869  0.00  0.00    +0.000 A 
ATOM      3  C   UNL     1       1.487   6.167  20.936  0.00  0.00    +0.000 A 
ATOM      4  C   UNL     1       1.668   7.138  20.030  0.00  0.00    +0.000 A 
ATOM      5  O   UNL     1       2.583   7.037  18.978  0.00  0.00    +0.000 OA
ATOM      6  C   UNL     1       3.335   5.885  18.837  0.00  0.00    +0.000 A 
ATOM      7  C   UNL     1       3.242   4.840  19.757  0.00  0.00    +0.000 A 
ATOM      8  C   UNL     1       4.025   3.694  19.627  0.00  0.00    +0.000 A 
ATOM      9  C   UNL     1       4.893   3.572  18.549  0.00  0.00    +0.000 A 
ATOM     10  C   UNL     1       4.994   4.591  17.594  0.00  0.00    +0.000 A 
ATOM     11  C   UNL     1       5.861   4.438  16.501  0.00  0.00    +0.000 A 
ATOM     12  C   UNL     1       5.980   5.432  15.536  0.00  0.00    +0.000 A 
ATOM     13  C   UNL     1       5.237   6.603  15.657  0.00  0.00    +0.000 A 
ATOM     14  C   UNL     1       4.369   6.774  16.740  0.00  0.00    +0.000 A 
ATOM     15  C   UNL     1       4.218   5.776  17.730  0.00  0.00    +0.000 A 
ENDROOT
BRANCH   4  16
ATOM     16  C   UNL     1       0.971   8.492  20.096  0.00  0.00    +0.000 C 
ATOM     17  C   UNL     1       1.271   9.238  21.408  0.00  0.00    +0.000 C 
ATOM     18  C   UNL     1       0.352  10.456  21.544  0.00  0.00    +0.000 C 
ATOM     19  C   UNL     1       0.420  11.426  20.358  0.00  0.00    +0.000 C 
ATOM     20  C   UNL     1       0.355  10.703  19.007  0.00  0.00    +0.000 C 
ATOM     21  C   UNL     1       1.241   9.456  18.920  0.00  0.00    +0.000 C 
BRANCH  19  22
ATOM     22  S   UNL     1       1.904  12.493  20.465  0.00  0.00    +0.000 S 
ATOM     23  H   UNL     1       2.251  12.443  19.172  0.00  0.00    +0.000 HD
ENDBRANCH  19  22
ENDBRANCH   4  16
TORSDOF 2
ENDMDL
MODEL 7
REMARK VINA RESULT:      -7.1      1.412      3.565
REMARK  Name = 
REMARK  2 active torsions:
REMARK  status: ('A' for Active; 'I' for Inactive)
REMARK    1  A    between atoms: C_4  and  C_5
REMARK    2  A    between atoms: C_8  and  S_9
REMARK                            x       y       z     vdW  Elec       q    Type
REMARK                         _______ _______ _______ _____ _____    ______ ____
ROOT
ATOM      1  O   UNL     1       5.125   6.855  15.964  0.00  0.00    +0.000 OA
ATOM      2  C   UNL     1       4.291   6.798  16.860  0.00  0.00    +0.000 A 
ATOM      3  C   UNL     1       3.744   8.022  17.452  0.00  0.00    +0.000 A 
ATOM      4  C   UNL     1       2.796   7.943  18.396  0.00  0.00    +0.000 A 
ATOM      5  O   UNL     1       2.309   6.727  18.885  0.00  0.00    +0.000 OA
ATOM      6  C   UNL     1       2.825   5.540  18.398  0.00  0.00    +0.000 A 
ATOM      7  C   UNL     1       3.785   5.527  17.385  0.00  0.00    +0.000 A 
ATOM      8  C   UNL     1       4.280   4.327  16.877  0.00  0.00    +0.000 A 
ATOM      9  C   UNL     1       3.835   3.121  17.404  0.00  0.00    +0.000 A 
ATOM     10  C   UNL     1       2.891   3.098  18.437  0.00  0.00    +0.000 A 
ATOM     11  C   UNL     1       2.471   1.869  18.970  0.00  0.00    +0.000 A 
ATOM     12  C   UNL     1       1.536   1.814  19.998  0.00  0.00    +0.000 A 
ATOM     13  C   UNL     1       0.998   2.995  20.503  0.00  0.00    +0.000 A 
ATOM     14  C   UNL     1       1.403   4.229  19.984  0.00  0.00    +0.000 A 
ATOM     15  C   UNL     1       2.360   4.315  18.947  0.00  0.00    +0.000 A 
ENDROOT
BRANCH   4  16
ATOM     16  C   UNL     1       2.079   9.156  18.973  0.00  0.00    +0.000 C 
ATOM     17  C   UNL     1       1.596  10.123  17.878  0.00  0.00    +0.000 C 
ATOM     18  C   UNL     1       1.124  11.439  18.507  0.00  0.00    +0.000 C 
ATOM     19  C   UNL     1       0.036  11.266  19.575  0.00  0.00    +0.000 C 
ATOM     20  C   UNL     1       0.366  10.145  20.568  0.00  0.00    +0.000 C 
ATOM     21  C   UNL     1       0.890   8.862  19.916  0.00  0.00    +0.000 C 
BRANCH  19  22
ATOM     22  S   UNL     1      -1.605  11.005  18.806  0.00  0.00    +0.000 S 
ATOM     23  H   UNL     1      -2.195  12.114  19.269  0.00  0.00    +0.000 HD
ENDBRANCH  19  22
ENDBRANCH   4  16
TORSDOF 2
ENDMDL
MODEL 8
REMARK VINA RESULT:      -7.0      3.016      7.304
REMARK  Name = 
REMARK  2 active torsions:
REMARK  status: ('A' for Active; 'I' for Inactive)
REMARK    1  A    between atoms: C_4  and  C_5
REMARK    2  A    between atoms: C_8  and  S_9
REMARK                            x       y       z     vdW  Elec       q    Type
REMARK                         _______ _______ _______ _____ _____    ______ ____
ROOT
ATOM      1  O   UNL     1       0.565  10.061  23.537  0.00  0.00    +0.000 OA
ATOM      2  C   UNL     1       0.568   9.701  22.366  0.00  0.00    +0.000 A 
ATOM      3  C   UNL     1       1.499   8.668  21.904  0.00  0.00    +0.000 A 
ATOM      4  C   UNL     1       1.457   8.249  20.631  0.00  0.00    +0.000 A 
ATOM      5  O   UNL     1       0.574   8.779  19.685  0.00  0.00    +0.000 OA
ATOM      6  C   UNL     1      -0.293   9.791  20.053  0.00  0.00    +0.000 A 
ATOM      7  C   UNL     1      -0.346  10.259  21.366  0.00  0.00    +0.000 A 
ATOM      8  C   UNL     1      -1.243  11.260  21.739  0.00  0.00    +0.000 A 
ATOM      9  C   UNL     1      -2.081  11.822  20.784  0.00  0.00    +0.000 A 
ATOM     10  C   UNL     1      -2.037  11.393  19.452  0.00  0.00    +0.000 A 
ATOM     11  C   UNL     1      -2.877  11.991  18.499  0.00  0.00    +0.000 A 
ATOM     12  C   UNL     1      -2.853  11.587  17.169  0.00  0.00    +0.000 A 
ATOM     13  C   UNL     1      -1.993  10.567  16.774  0.00  0.00    +0.000 A 
ATOM     14  C   UNL     1      -1.149   9.958  17.709  0.00  0.00    +0.000 A 
ATOM     15  C   UNL     1      -1.143  10.356  19.065  0.00  0.00    +0.000 A 
ENDROOT
BRANCH   4  16
ATOM     16  C   UNL     1       2.294   7.094  20.096  0.00  0.00    +0.000 C 
ATOM     17  C   UNL     1       1.750   5.726  20.542  0.00  0.00    +0.000 C 
ATOM     18  C   UNL     1       2.760   4.622  20.208  0.00  0.00    +0.000 C 
ATOM     19  C   UNL     1       3.164   4.573  18.729  0.00  0.00    +0.000 C 
ATOM     20  C   UNL     1       3.499   5.960  18.167  0.00  0.00    +0.000 C 
ATOM     21  C   UNL     1       2.504   7.055  18.566  0.00  0.00    +0.000 C 
BRANCH  19  22
ATOM     22  S   UNL     1       1.878   3.746  17.722  0.00  0.00    +0.000 S 
ATOM     23  H   UNL     1       1.833   4.639  16.725  0.00  0.00    +0.000 HD
ENDBRANCH  19  22
ENDBRANCH   4  16
TORSDOF 2
ENDMDL
MODEL 9
REMARK VINA RESULT:      -6.8      2.254      4.454
REMARK  Name = 
REMARK  2 active torsions:
REMARK  status: ('A' for Active; 'I' for Inactive)
REMARK    1  A    between atoms: C_4  and  C_5
REMARK    2  A    between atoms: C_8  and  S_9
REMARK                            x       y       z     vdW  Elec       q    Type
REMARK                         _______ _______ _______ _____ _____    ______ ____
ROOT
ATOM      1  O   UNL     1       2.601  10.461  17.115  0.00  0.00    +0.000 OA
ATOM      2  C   UNL     1       2.109   9.856  18.060  0.00  0.00    +0.000 A 
ATOM      3  C   UNL     1       1.150  10.515  18.951  0.00  0.00    +0.000 A 
ATOM      4  C   UNL     1       0.582   9.825  19.951  0.00  0.00    +0.000 A 
ATOM      5  O   UNL     1       0.886   8.487  20.220  0.00  0.00    +0.000 OA
ATOM      6  C   UNL     1       1.822   7.830  19.442  0.00  0.00    +0.000 A 
ATOM      7  C   UNL     1       2.431   8.458  18.355  0.00  0.00    +0.000 A 
ATOM      8  C   UNL     1       3.352   7.782  17.556  0.00  0.00    +0.000 A 
ATOM      9  C   UNL     1       3.693   6.469  17.859  0.00  0.00    +0.000 A 
ATOM     10  C   UNL     1       3.119   5.817  18.957  0.00  0.00    +0.000 A 
ATOM     11  C   UNL     1       3.494   4.499  19.258  0.00  0.00    +0.000 A 
ATOM     12  C   UNL     1       2.942   3.826  20.343  0.00  0.00    +0.000 A 
ATOM     13  C   UNL     1       1.995   4.463  21.139  0.00  0.00    +0.000 A 
ATOM     14  C   UNL     1       1.607   5.776  20.854  0.00  0.00    +0.000 A 
ATOM     15  C   UNL     1       2.160   6.489  19.765  0.00  0.00    +0.000 A 
ENDROOT
BRANCH   4  16
ATOM     16  C   UNL     1      -0.518  10.385  20.843  0.00  0.00    +0.000 C 
ATOM     17  C   UNL     1      -0.066  10.527  22.307  0.00  0.00    +0.000 C 
ATOM     18  C   UNL     1      -1.269  10.838  23.203  0.00  0.00    +0.000 C 
ATOM     19  C   UNL     1      -2.063  12.078  22.775  0.00  0.00    +0.000 C 
ATOM     20  C   UNL     1      -2.345  12.099  21.267  0.00  0.00    +0.000 C 
ATOM     21  C   UNL     1      -1.139  11.728  20.398  0.00  0.00    +0.000 C 
BRANCH  19  22
ATOM     22  S   UNL     1      -1.225  13.614  23.311  0.00  0.00    +0.000 S 
ATOM     23  H   UNL     1      -2.263  14.446  23.155  0.00  0.00    +0.000 HD
ENDBRANCH  19  22
ENDBRANCH   4  16
TORSDOF 2
ENDMDL
