MODEL 1
REMARK VINA RESULT:      -8.5      0.000      0.000
REMARK  Name = 
REMARK  7 active torsions:
REMARK  status: ('A' for Active; 'I' for Inactive)
REMARK    1  A    between atoms: C_1  and  C_2
REMARK    2  A    between atoms: C_2  and  N_3
REMARK    3  A    between atoms: C_2  and  C_20
REMARK    4  A    between atoms: C_4  and  C_6
REMARK    5  A    between atoms: C_6  and  O_7
REMARK    6  A    between atoms: O_7  and  C_8
REMARK    7  A    between atoms: N_12  and  C_13
REMARK                            x       y       z     vdW  Elec       q    Type
REMARK                         _______ _______ _______ _____ _____    ______ ____
ROOT
ATOM      1  N   UNL     1       2.884   2.965  20.282  0.00  0.00    +0.000 N 
ATOM      2  C   UNL     1       2.197   3.859  21.056  0.00  0.00    +0.000 C 
ATOM      3  O   UNL     1       2.210   3.699  22.278  0.00  0.00    +0.000 OA
ATOM      4  H   UNL     1       3.370   2.268  20.833  0.00  0.00    +0.000 HD
ENDROOT
BRANCH   1   6
ATOM      5  C   UNL     1       3.444   1.504  18.381  0.00  0.00    +0.000 C 
ATOM      6  C   UNL     1       3.085   2.926  18.831  0.00  0.00    +0.000 C 
BRANCH   6   7
ATOM      7  C   UNL     1       4.009   4.033  18.333  0.00  0.00    +0.000 A 
ATOM      8  C   UNL     1       3.589   4.930  17.328  0.00  0.00    +0.000 A 
ATOM      9  C   UNL     1       4.403   5.988  16.912  0.00  0.00    +0.000 A 
ATOM     10  C   UNL     1       5.670   6.145  17.462  0.00  0.00    +0.000 A 
ATOM     11  C   UNL     1       6.114   5.255  18.442  0.00  0.00    +0.000 A 
ATOM     12  C   UNL     1       5.302   4.200  18.856  0.00  0.00    +0.000 A 
ATOM     13  O   UNL     1       7.341   5.353  19.048  0.00  0.00    +0.000 OA
ATOM     14  C   UNL     1       7.930   6.639  18.827  0.00  0.00    +0.000 C 
ATOM     15  C   UNL     1       7.800   7.041  17.367  0.00  0.00    +0.000 C 
ATOM     16  O   UNL     1       6.422   7.194  17.002  0.00  0.00    +0.000 OA
ENDBRANCH   6   7
ENDBRANCH   1   6
BRANCH   2  17
ATOM     17  C   UNL     1       1.422   4.999  20.405  0.00  0.00    +0.000 C 
BRANCH  17  18
ATOM     18  O   UNL     1       1.685   6.220  21.086  0.00  0.00    +0.000 OA
BRANCH  18  19
ATOM     19  C   UNL     1       1.595   7.388  20.354  0.00  0.00    +0.000 A 
ATOM     20  C   UNL     1       2.079   7.581  19.119  0.00  0.00    +0.000 A 
ATOM     21  C   UNL     1       1.974   8.876  18.416  0.00  0.00    +0.000 A 
ATOM     22  O   UNL     1       2.482   8.962  17.299  0.00  0.00    +0.000 OA
ATOM     23  N   UNL     1       1.314   9.905  19.065  0.00  0.00    +0.000 N 
ATOM     24  C   UNL     1       1.192  11.177  18.378  0.00  0.00    +0.000 C 
ATOM     25  C   UNL     1       0.778   9.743  20.380  0.00  0.00    +0.000 A 
ATOM     26  C   UNL     1       0.117  10.794  21.038  0.00  0.00    +0.000 A 
ATOM     27  C   UNL     1      -0.378  10.632  22.334  0.00  0.00    +0.000 A 
ATOM     28  C   UNL     1      -0.215   9.420  22.993  0.00  0.00    +0.000 A 
ATOM     29  C   UNL     1       0.430   8.364  22.350  0.00  0.00    +0.000 A 
ATOM     30  C   UNL     1       0.925   8.507  21.041  0.00  0.00    +0.000 A 
ENDBRANCH  18  19
ENDBRANCH  17  18
ENDBRANCH   2  17
TORSDOF 5
ENDMDL
MODEL 2
REMARK VINA RESULT:      -8.4      3.094      8.372
REMARK  Name = 
REMARK  7 active torsions:
REMARK  status: ('A' for Active; 'I' for Inactive)
REMARK    1  A    between atoms: C_1  and  C_2
REMARK    2  A    between atoms: C_2  and  N_3
REMARK    3  A    between atoms: C_2  and  C_20
REMARK    4  A    between atoms: C_4  and  C_6
REMARK    5  A    between atoms: C_6  and  O_7
REMARK    6  A    between atoms: O_7  and  C_8
REMARK    7  A    between atoms: N_12  and  C_13
REMARK                            x       y       z     vdW  Elec       q    Type
REMARK                         _______ _______ _______ _____ _____    ______ ____
ROOT
ATOM      1  N   UNL     1       1.092   9.981  20.525  0.00  0.00    +0.000 N 
ATOM      2  C   UNL     1       1.320   8.971  21.417  0.00  0.00    +0.000 C 
ATOM      3  O   UNL     1       1.625   9.275  22.573  0.00  0.00    +0.000 OA
ATOM      4  H   UNL     1       1.171  10.898  20.947  0.00  0.00    +0.000 HD
ENDROOT
BRANCH   1   6
ATOM      5  C   UNL     1       1.776  10.497  18.217  0.00  0.00    +0.000 C 
ATOM      6  C   UNL     1       0.675   9.930  19.121  0.00  0.00    +0.000 C 
BRANCH   6   7
ATOM      7  C   UNL     1      -0.724  10.496  18.899  0.00  0.00    +0.000 A 
ATOM      8  C   UNL     1      -1.294  11.401  19.819  0.00  0.00    +0.000 A 
ATOM      9  C   UNL     1      -2.547  11.977  19.591  0.00  0.00    +0.000 A 
ATOM     10  C   UNL     1      -3.274  11.627  18.458  0.00  0.00    +0.000 A 
ATOM     11  C   UNL     1      -2.739  10.717  17.546  0.00  0.00    +0.000 A 
ATOM     12  C   UNL     1      -1.488  10.143  17.774  0.00  0.00    +0.000 A 
ATOM     13  O   UNL     1      -3.382  10.336  16.396  0.00  0.00    +0.000 OA
ATOM     14  C   UNL     1      -4.455  11.229  16.079  0.00  0.00    +0.000 C 
ATOM     15  C   UNL     1      -5.284  11.526  17.318  0.00  0.00    +0.000 C 
ATOM     16  O   UNL     1      -4.501  12.217  18.300  0.00  0.00    +0.000 OA
ENDBRANCH   6   7
ENDBRANCH   1   6
BRANCH   2  17
ATOM     17  C   UNL     1       1.220   7.517  20.972  0.00  0.00    +0.000 C 
BRANCH  17  18
ATOM     18  O   UNL     1       2.351   7.170  20.180  0.00  0.00    +0.000 OA
BRANCH  18  19
ATOM     19  C   UNL     1       2.479   5.847  19.802  0.00  0.00    +0.000 A 
ATOM     20  C   UNL     1       1.944   4.793  20.434  0.00  0.00    +0.000 A 
ATOM     21  C   UNL     1       2.160   3.402  19.987  0.00  0.00    +0.000 A 
ATOM     22  O   UNL     1       1.656   2.502  20.656  0.00  0.00    +0.000 OA
ATOM     23  N   UNL     1       2.918   3.208  18.844  0.00  0.00    +0.000 N 
ATOM     24  C   UNL     1       3.125   1.847  18.387  0.00  0.00    +0.000 C 
ATOM     25  C   UNL     1       3.504   4.302  18.136  0.00  0.00    +0.000 A 
ATOM     26  C   UNL     1       4.280   4.099  16.983  0.00  0.00    +0.000 A 
ATOM     27  C   UNL     1       4.870   5.173  16.314  0.00  0.00    +0.000 A 
ATOM     28  C   UNL     1       4.697   6.467  16.791  0.00  0.00    +0.000 A 
ATOM     29  C   UNL     1       3.920   6.687  17.929  0.00  0.00    +0.000 A 
ATOM     30  C   UNL     1       3.311   5.616  18.607  0.00  0.00    +0.000 A 
ENDBRANCH  18  19
ENDBRANCH  17  18
ENDBRANCH   2  17
TORSDOF 5
ENDMDL
MODEL 3
REMARK VINA RESULT:      -8.2      3.652      8.737
REMARK  Name = 
REMARK  7 active torsions:
REMARK  status: ('A' for Active; 'I' for Inactive)
REMARK    1  A    between atoms: C_1  and  C_2
REMARK    2  A    between atoms: C_2  and  N_3
REMARK    3  A    between atoms: C_2  and  C_20
REMARK    4  A    between atoms: C_4  and  C_6
REMARK    5  A    between atoms: C_6  and  O_7
REMARK    6  A    between atoms: O_7  and  C_8
REMARK    7  A    between atoms: N_12  and  C_13
REMARK                            x       y       z     vdW  Elec       q    Type
REMARK                         _______ _______ _______ _____ _____    ______ ____
ROOT
ATOM      1  N   UNL     1       0.340  10.138  19.970  0.00  0.00    +0.000 N 
ATOM      2  C   UNL     1       1.096   9.017  20.171  0.00  0.00    +0.000 C 
ATOM      3  O   UNL     1       1.138   8.541  21.308  0.00  0.00    +0.000 OA
ATOM      4  H   UNL     1      -0.142  10.437  20.809  0.00  0.00    +0.000 HD
ENDROOT
BRANCH   1   6
ATOM      5  C   UNL     1       0.801  12.234  18.764  0.00  0.00    +0.000 C 
ATOM      6  C   UNL     1       0.065  10.889  18.742  0.00  0.00    +0.000 C 
BRANCH   6   7
ATOM      7  C   UNL     1      -1.422  10.950  18.407  0.00  0.00    +0.000 A 
ATOM      8  C   UNL     1      -1.967  10.149  17.382  0.00  0.00    +0.000 A 
ATOM      9  C   UNL     1      -3.339  10.148  17.112  0.00  0.00    +0.000 A 
ATOM     10  C   UNL     1      -4.187  10.981  17.835  0.00  0.00    +0.000 A 
ATOM     11  C   UNL     1      -3.665  11.798  18.838  0.00  0.00    +0.000 A 
ATOM     12  C   UNL     1      -2.297  11.798  19.107  0.00  0.00    +0.000 A 
ATOM     13  O   UNL     1      -4.436  12.631  19.609  0.00  0.00    +0.000 OA
ATOM     14  C   UNL     1      -5.824  12.296  19.509  0.00  0.00    +0.000 C 
ATOM     15  C   UNL     1      -6.215  12.071  18.057  0.00  0.00    +0.000 C 
ATOM     16  O   UNL     1      -5.518  10.943  17.513  0.00  0.00    +0.000 OA
ENDBRANCH   6   7
ENDBRANCH   1   6
BRANCH   2  17
ATOM     17  C   UNL     1       1.878   8.403  19.016  0.00  0.00    +0.000 C 
BRANCH  17  18
ATOM     18  O   UNL     1       2.356   7.113  19.380  0.00  0.00    +0.000 OA
BRANCH  18  19
ATOM     19  C   UNL     1       3.144   6.445  18.463  0.00  0.00    +0.000 A 
ATOM     20  C   UNL     1       4.131   6.985  17.734  0.00  0.00    +0.000 A 
ATOM     21  C   UNL     1       4.906   6.209  16.744  0.00  0.00    +0.000 A 
ATOM     22  O   UNL     1       5.767   6.805  16.098  0.00  0.00    +0.000 OA
ATOM     23  N   UNL     1       4.607   4.864  16.609  0.00  0.00    +0.000 N 
ATOM     24  C   UNL     1       5.372   4.089  15.651  0.00  0.00    +0.000 C 
ATOM     25  C   UNL     1       3.567   4.245  17.370  0.00  0.00    +0.000 A 
ATOM     26  C   UNL     1       3.262   2.882  17.222  0.00  0.00    +0.000 A 
ATOM     27  C   UNL     1       2.226   2.294  17.951  0.00  0.00    +0.000 A 
ATOM     28  C   UNL     1       1.476   3.062  18.833  0.00  0.00    +0.000 A 
ATOM     29  C   UNL     1       1.772   4.415  18.998  0.00  0.00    +0.000 A 
ATOM     30  C   UNL     1       2.820   5.019  18.280  0.00  0.00    +0.000 A 
ENDBRANCH  18  19
ENDBRANCH  17  18
ENDBRANCH   2  17
TORSDOF 5
ENDMDL
MODEL 4
REMARK VINA RESULT:      -8.1      3.387      8.433
REMARK  Name = 
REMARK  7 active torsions:
REMARK  status: ('A' for Active; 'I' for Inactive)
REMARK    1  A    between atoms: C_1  and  C_2
REMARK    2  A    between atoms: C_2  and  N_3
REMARK    3  A    between atoms: C_2  and  C_20
REMARK    4  A    between atoms: C_4  and  C_6
REMARK    5  A    between atoms: C_6  and  O_7
REMARK    6  A    between atoms: O_7  and  C_8
REMARK    7  A    between atoms: N_12  and  C_13
REMARK                            x       y       z     vdW  Elec       q    Type
REMARK                         _______ _______ _______ _____ _____    ______ ____
ROOT
ATOM      1  N   UNL     1       0.582  10.727  20.965  0.00  0.00    +0.000 N 
ATOM      2  C   UNL     1       0.969   9.428  21.146  0.00  0.00    +0.000 C 
ATOM      3  O   UNL     1       0.980   8.979  22.294  0.00  0.00    +0.000 OA
ATOM      4  H   UNL     1       0.307  11.174  21.831  0.00  0.00    +0.000 HD
ENDROOT
BRANCH   1   6
ATOM      5  C   UNL     1       0.875  12.956  19.963  0.00  0.00    +0.000 C 
ATOM      6  C   UNL     1       0.428  11.507  19.735  0.00  0.00    +0.000 C 
BRANCH   6   7
ATOM      7  C   UNL     1      -0.944  11.329  19.090  0.00  0.00    +0.000 A 
ATOM      8  C   UNL     1      -1.141  10.394  18.053  0.00  0.00    +0.000 A 
ATOM      9  C   UNL     1      -2.407  10.176  17.502  0.00  0.00    +0.000 A 
ATOM     10  C   UNL     1      -3.494  10.919  17.949  0.00  0.00    +0.000 A 
ATOM     11  C   UNL     1      -3.317  11.866  18.959  0.00  0.00    +0.000 A 
ATOM     12  C   UNL     1      -2.053  12.083  19.508  0.00  0.00    +0.000 A 
ATOM     13  O   UNL     1      -4.340  12.624  19.468  0.00  0.00    +0.000 OA
ATOM     14  C   UNL     1      -5.617  12.085  19.110  0.00  0.00    +0.000 C 
ATOM     15  C   UNL     1      -5.644  11.713  17.637  0.00  0.00    +0.000 C 
ATOM     16  O   UNL     1      -4.705  10.667  17.359  0.00  0.00    +0.000 OA
ENDBRANCH   6   7
ENDBRANCH   1   6
BRANCH   2  17
ATOM     17  C   UNL     1       1.396   8.582  19.952  0.00  0.00    +0.000 C 
BRANCH  17  18
ATOM     18  O   UNL     1       1.832   7.301  20.391  0.00  0.00    +0.000 OA
BRANCH  18  19
ATOM     19  C   UNL     1       2.485   6.503  19.472  0.00  0.00    +0.000 A 
ATOM     20  C   UNL     1       3.302   6.931  18.498  0.00  0.00    +0.000 A 
ATOM     21  C   UNL     1       3.935   6.013  17.529  0.00  0.00    +0.000 A 
ATOM     22  O   UNL     1       4.640   6.508  16.650  0.00  0.00    +0.000 OA
ATOM     23  N   UNL     1       3.689   4.659  17.675  0.00  0.00    +0.000 N 
ATOM     24  C   UNL     1       4.317   3.747  16.738  0.00  0.00    +0.000 C 
ATOM     25  C   UNL     1       2.829   4.157  18.701  0.00  0.00    +0.000 A 
ATOM     26  C   UNL     1       2.575   2.782  18.839  0.00  0.00    +0.000 A 
ATOM     27  C   UNL     1       1.712   2.306  19.828  0.00  0.00    +0.000 A 
ATOM     28  C   UNL     1       1.086   3.197  20.690  0.00  0.00    +0.000 A 
ATOM     29  C   UNL     1       1.335   4.565  20.572  0.00  0.00    +0.000 A 
ATOM     30  C   UNL     1       2.211   5.060  19.589  0.00  0.00    +0.000 A 
ENDBRANCH  18  19
ENDBRANCH  17  18
ENDBRANCH   2  17
TORSDOF 5
ENDMDL
MODEL 5
REMARK VINA RESULT:      -8.1      2.353      3.210
REMARK  Name = 
REMARK  7 active torsions:
REMARK  status: ('A' for Active; 'I' for Inactive)
REMARK    1  A    between atoms: C_1  and  C_2
REMARK    2  A    between atoms: C_2  and  N_3
REMARK    3  A    between atoms: C_2  and  C_20
REMARK    4  A    between atoms: C_4  and  C_6
REMARK    5  A    between atoms: C_6  and  O_7
REMARK    6  A    between atoms: O_7  and  C_8
REMARK    7  A    between atoms: N_12  and  C_13
REMARK                            x       y       z     vdW  Elec       q    Type
REMARK                         _______ _______ _______ _____ _____    ______ ____
ROOT
ATOM      1  N   UNL     1       1.776   6.351  20.616  0.00  0.00    +0.000 N 
ATOM      2  C   UNL     1       1.779   7.707  20.440  0.00  0.00    +0.000 C 
ATOM      3  O   UNL     1       1.844   8.422  21.442  0.00  0.00    +0.000 OA
ATOM      4  H   UNL     1       1.865   6.086  21.589  0.00  0.00    +0.000 HD
ENDROOT
BRANCH   1   6
ATOM      5  C   UNL     1       1.122   4.008  20.236  0.00  0.00    +0.000 C 
ATOM      6  C   UNL     1       1.756   5.267  19.631  0.00  0.00    +0.000 C 
BRANCH   6   7
ATOM      7  C   UNL     1       3.103   5.067  18.944  0.00  0.00    +0.000 A 
ATOM      8  C   UNL     1       3.176   4.678  17.590  0.00  0.00    +0.000 A 
ATOM      9  C   UNL     1       4.404   4.558  16.933  0.00  0.00    +0.000 A 
ATOM     10  C   UNL     1       5.586   4.783  17.629  0.00  0.00    +0.000 A 
ATOM     11  C   UNL     1       5.539   5.148  18.975  0.00  0.00    +0.000 A 
ATOM     12  C   UNL     1       4.313   5.268  19.630  0.00  0.00    +0.000 A 
ATOM     13  O   UNL     1       6.657   5.408  19.726  0.00  0.00    +0.000 OA
ATOM     14  C   UNL     1       7.805   5.610  18.896  0.00  0.00    +0.000 C 
ATOM     15  C   UNL     1       7.879   4.542  17.817  0.00  0.00    +0.000 C 
ATOM     16  O   UNL     1       6.756   4.636  16.931  0.00  0.00    +0.000 OA
ENDBRANCH   6   7
ENDBRANCH   1   6
BRANCH   2  17
ATOM     17  C   UNL     1       1.680   8.297  19.039  0.00  0.00    +0.000 C 
BRANCH  17  18
ATOM     18  O   UNL     1       1.409   9.692  19.114  0.00  0.00    +0.000 OA
BRANCH  18  19
ATOM     19  C   UNL     1       0.134  10.110  18.783  0.00  0.00    +0.000 A 
ATOM     20  C   UNL     1      -0.551   9.752  17.688  0.00  0.00    +0.000 A 
ATOM     21  C   UNL     1      -1.899  10.274  17.386  0.00  0.00    +0.000 A 
ATOM     22  O   UNL     1      -2.431   9.912  16.337  0.00  0.00    +0.000 OA
ATOM     23  N   UNL     1      -2.472  11.137  18.304  0.00  0.00    +0.000 N 
ATOM     24  C   UNL     1      -3.802  11.645  18.025  0.00  0.00    +0.000 C 
ATOM     25  C   UNL     1      -1.780  11.543  19.487  0.00  0.00    +0.000 A 
ATOM     26  C   UNL     1      -2.362  12.427  20.411  0.00  0.00    +0.000 A 
ATOM     27  C   UNL     1      -1.666  12.837  21.550  0.00  0.00    +0.000 A 
ATOM     28  C   UNL     1      -0.376  12.375  21.779  0.00  0.00    +0.000 A 
ATOM     29  C   UNL     1       0.212  11.488  20.877  0.00  0.00    +0.000 A 
ATOM     30  C   UNL     1      -0.480  11.057  19.731  0.00  0.00    +0.000 A 
ENDBRANCH  18  19
ENDBRANCH  17  18
ENDBRANCH   2  17
TORSDOF 5
ENDMDL
MODEL 6
REMARK VINA RESULT:      -8.0      2.330      6.729
REMARK  Name = 
REMARK  7 active torsions:
REMARK  status: ('A' for Active; 'I' for Inactive)
REMARK    1  A    between atoms: C_1  and  C_2
REMARK    2  A    between atoms: C_2  and  N_3
REMARK    3  A    between atoms: C_2  and  C_20
REMARK    4  A    between atoms: C_4  and  C_6
REMARK    5  A    between atoms: C_6  and  O_7
REMARK    6  A    between atoms: O_7  and  C_8
REMARK    7  A    between atoms: N_12  and  C_13
REMARK                            x       y       z     vdW  Elec       q    Type
REMARK                         _______ _______ _______ _____ _____    ______ ____
ROOT
ATOM      1  N   UNL     1       1.406   4.020  19.242  0.00  0.00    +0.000 N 
ATOM      2  C   UNL     1       1.629   2.819  18.630  0.00  0.00    +0.000 C 
ATOM      3  O   UNL     1       0.676   2.262  18.080  0.00  0.00    +0.000 OA
ATOM      4  H   UNL     1       0.451   4.339  19.137  0.00  0.00    +0.000 HD
ENDROOT
BRANCH   1   6
ATOM      5  C   UNL     1       2.300   4.682  21.438  0.00  0.00    +0.000 C 
ATOM      6  C   UNL     1       2.337   4.924  19.924  0.00  0.00    +0.000 C 
BRANCH   6   7
ATOM      7  C   UNL     1       2.184   6.375  19.479  0.00  0.00    +0.000 A 
ATOM      8  C   UNL     1       2.604   6.788  18.198  0.00  0.00    +0.000 A 
ATOM      9  C   UNL     1       2.408   8.100  17.756  0.00  0.00    +0.000 A 
ATOM     10  C   UNL     1       1.826   9.036  18.603  0.00  0.00    +0.000 A 
ATOM     11  C   UNL     1       1.424   8.655  19.884  0.00  0.00    +0.000 A 
ATOM     12  C   UNL     1       1.620   7.346  20.324  0.00  0.00    +0.000 A 
ATOM     13  O   UNL     1       0.825   9.511  20.772  0.00  0.00    +0.000 OA
ATOM     14  C   UNL     1       0.350  10.692  20.117  0.00  0.00    +0.000 C 
ATOM     15  C   UNL     1       1.407  11.238  19.171  0.00  0.00    +0.000 C 
ATOM     16  O   UNL     1       1.675  10.307  18.115  0.00  0.00    +0.000 OA
ENDBRANCH   6   7
ENDBRANCH   1   6
BRANCH   2  17
ATOM     17  C   UNL     1       3.017   2.189  18.658  0.00  0.00    +0.000 C 
BRANCH  17  18
ATOM     18  O   UNL     1       3.763   2.599  17.518  0.00  0.00    +0.000 OA
BRANCH  18  19
ATOM     19  C   UNL     1       4.763   3.531  17.715  0.00  0.00    +0.000 A 
ATOM     20  C   UNL     1       5.166   4.014  18.899  0.00  0.00    +0.000 A 
ATOM     21  C   UNL     1       6.221   5.041  19.023  0.00  0.00    +0.000 A 
ATOM     22  O   UNL     1       6.494   5.446  20.152  0.00  0.00    +0.000 OA
ATOM     23  N   UNL     1       6.828   5.479  17.858  0.00  0.00    +0.000 N 
ATOM     24  C   UNL     1       7.875   6.477  17.969  0.00  0.00    +0.000 C 
ATOM     25  C   UNL     1       6.433   4.989  16.575  0.00  0.00    +0.000 A 
ATOM     26  C   UNL     1       7.045   5.444  15.395  0.00  0.00    +0.000 A 
ATOM     27  C   UNL     1       6.634   4.977  14.145  0.00  0.00    +0.000 A 
ATOM     28  C   UNL     1       5.600   4.054  14.055  0.00  0.00    +0.000 A 
ATOM     29  C   UNL     1       4.988   3.585  15.218  0.00  0.00    +0.000 A 
ATOM     30  C   UNL     1       5.399   4.036  16.485  0.00  0.00    +0.000 A 
ENDBRANCH  18  19
ENDBRANCH  17  18
ENDBRANCH   2  17
TORSDOF 5
ENDMDL
MODEL 7
REMARK VINA RESULT:      -8.0      3.163      8.544
REMARK  Name = 
REMARK  7 active torsions:
REMARK  status: ('A' for Active; 'I' for Inactive)
REMARK    1  A    between atoms: C_1  and  C_2
REMARK    2  A    between atoms: C_2  and  N_3
REMARK    3  A    between atoms: C_2  and  C_20
REMARK    4  A    between atoms: C_4  and  C_6
REMARK    5  A    between atoms: C_6  and  O_7
REMARK    6  A    between atoms: O_7  and  C_8
REMARK    7  A    between atoms: N_12  and  C_13
REMARK                            x       y       z     vdW  Elec       q    Type
REMARK                         _______ _______ _______ _____ _____    ______ ____
ROOT
ATOM      1  N   UNL     1       0.991  10.314  20.381  0.00  0.00    +0.000 N 
ATOM      2  C   UNL     1       1.112   9.073  20.942  0.00  0.00    +0.000 C 
ATOM      3  O   UNL     1       1.227   8.998  22.167  0.00  0.00    +0.000 OA
ATOM      4  H   UNL     1       0.975  11.053  21.073  0.00  0.00    +0.000 HD
ENDROOT
BRANCH   1   6
ATOM      5  C   UNL     1       1.654  11.934  18.651  0.00  0.00    +0.000 C 
ATOM      6  C   UNL     1       0.796  10.708  18.983  0.00  0.00    +0.000 C 
BRANCH   6   7
ATOM      7  C   UNL     1      -0.677  10.803  18.597  0.00  0.00    +0.000 A 
ATOM      8  C   UNL     1      -1.210   9.997  17.569  0.00  0.00    +0.000 A 
ATOM      9  C   UNL     1      -2.572  10.029  17.252  0.00  0.00    +0.000 A 
ATOM     10  C   UNL     1      -3.419  10.899  17.929  0.00  0.00    +0.000 A 
ATOM     11  C   UNL     1      -2.909  11.721  18.934  0.00  0.00    +0.000 A 
ATOM     12  C   UNL     1      -1.551  11.689  19.250  0.00  0.00    +0.000 A 
ATOM     13  O   UNL     1      -3.682  12.590  19.661  0.00  0.00    +0.000 OA
ATOM     14  C   UNL     1      -5.075  12.292  19.520  0.00  0.00    +0.000 C 
ATOM     15  C   UNL     1      -5.422  12.048  18.061  0.00  0.00    +0.000 C 
ATOM     16  O   UNL     1      -4.740  10.891  17.562  0.00  0.00    +0.000 OA
ENDBRANCH   6   7
ENDBRANCH   1   6
BRANCH   2  17
ATOM     17  C   UNL     1       1.128   7.831  20.058  0.00  0.00    +0.000 C 
BRANCH  17  18
ATOM     18  O   UNL     1       2.445   7.294  19.993  0.00  0.00    +0.000 OA
BRANCH  18  19
ATOM     19  C   UNL     1       2.569   5.951  19.696  0.00  0.00    +0.000 A 
ATOM     20  C   UNL     1       2.030   4.939  20.390  0.00  0.00    +0.000 A 
ATOM     21  C   UNL     1       2.241   3.523  20.028  0.00  0.00    +0.000 A 
ATOM     22  O   UNL     1       1.734   2.666  20.750  0.00  0.00    +0.000 OA
ATOM     23  N   UNL     1       3.000   3.257  18.900  0.00  0.00    +0.000 N 
ATOM     24  C   UNL     1       3.201   1.870  18.526  0.00  0.00    +0.000 C 
ATOM     25  C   UNL     1       3.589   4.304  18.127  0.00  0.00    +0.000 A 
ATOM     26  C   UNL     1       4.366   4.029  16.989  0.00  0.00    +0.000 A 
ATOM     27  C   UNL     1       4.959   5.059  16.257  0.00  0.00    +0.000 A 
ATOM     28  C   UNL     1       4.790   6.379  16.654  0.00  0.00    +0.000 A 
ATOM     29  C   UNL     1       4.014   6.670  17.776  0.00  0.00    +0.000 A 
ATOM     30  C   UNL     1       3.400   5.645  18.518  0.00  0.00    +0.000 A 
ENDBRANCH  18  19
ENDBRANCH  17  18
ENDBRANCH   2  17
TORSDOF 5
ENDMDL
MODEL 8
REMARK VINA RESULT:      -8.0      1.076      2.472
REMARK  Name = 
REMARK  7 active torsions:
REMARK  status: ('A' for Active; 'I' for Inactive)
REMARK    1  A    between atoms: C_1  and  C_2
REMARK    2  A    between atoms: C_2  and  N_3
REMARK    3  A    between atoms: C_2  and  C_20
REMARK    4  A    between atoms: C_4  and  C_6
REMARK    5  A    between atoms: C_6  and  O_7
REMARK    6  A    between atoms: O_7  and  C_8
REMARK    7  A    between atoms: N_12  and  C_13
REMARK                            x       y       z     vdW  Elec       q    Type
REMARK                         _______ _______ _______ _____ _____    ______ ____
ROOT
ATOM      1  N   UNL     1       2.713   3.062  20.068  0.00  0.00    +0.000 N 
ATOM      2  C   UNL     1       2.067   3.802  21.018  0.00  0.00    +0.000 C 
ATOM      3  O   UNL     1       2.195   3.471  22.199  0.00  0.00    +0.000 OA
ATOM      4  H   UNL     1       3.271   2.318  20.468  0.00  0.00    +0.000 HD
ENDROOT
BRANCH   1   6
ATOM      5  C   UNL     1       2.857   1.876  17.915  0.00  0.00    +0.000 C 
ATOM      6  C   UNL     1       2.784   3.238  18.615  0.00  0.00    +0.000 C 
BRANCH   6   7
ATOM      7  C   UNL     1       3.839   4.257  18.195  0.00  0.00    +0.000 A 
ATOM      8  C   UNL     1       3.594   5.161  17.140  0.00  0.00    +0.000 A 
ATOM      9  C   UNL     1       4.527   6.142  16.792  0.00  0.00    +0.000 A 
ATOM     10  C   UNL     1       5.742   6.211  17.463  0.00  0.00    +0.000 A 
ATOM     11  C   UNL     1       6.015   5.313  18.496  0.00  0.00    +0.000 A 
ATOM     12  C   UNL     1       5.083   4.334  18.843  0.00  0.00    +0.000 A 
ATOM     13  O   UNL     1       7.179   5.328  19.220  0.00  0.00    +0.000 OA
ATOM     14  C   UNL     1       7.889   6.558  19.040  0.00  0.00    +0.000 C 
ATOM     15  C   UNL     1       7.936   6.935  17.569  0.00  0.00    +0.000 C 
ATOM     16  O   UNL     1       6.618   7.187  17.065  0.00  0.00    +0.000 OA
ENDBRANCH   6   7
ENDBRANCH   1   6
BRANCH   2  17
ATOM     17  C   UNL     1       1.196   4.984  20.608  0.00  0.00    +0.000 C 
BRANCH  17  18
ATOM     18  O   UNL     1       1.991   6.159  20.491  0.00  0.00    +0.000 OA
BRANCH  18  19
ATOM     19  C   UNL     1       1.375   7.370  20.743  0.00  0.00    +0.000 A 
ATOM     20  C   UNL     1       0.626   7.664  21.815  0.00  0.00    +0.000 A 
ATOM     21  C   UNL     1      -0.030   8.974  21.994  0.00  0.00    +0.000 A 
ATOM     22  O   UNL     1      -0.727   9.133  22.995  0.00  0.00    +0.000 OA
ATOM     23  N   UNL     1       0.181   9.934  21.018  0.00  0.00    +0.000 N 
ATOM     24  C   UNL     1      -0.447  11.231  21.190  0.00  0.00    +0.000 C 
ATOM     25  C   UNL     1       0.975   9.667  19.861  0.00  0.00    +0.000 A 
ATOM     26  C   UNL     1       1.179  10.641  18.869  0.00  0.00    +0.000 A 
ATOM     27  C   UNL     1       1.935  10.360  17.729  0.00  0.00    +0.000 A 
ATOM     28  C   UNL     1       2.494   9.100  17.561  0.00  0.00    +0.000 A 
ATOM     29  C   UNL     1       2.309   8.124  18.541  0.00  0.00    +0.000 A 
ATOM     30  C   UNL     1       1.560   8.395  19.700  0.00  0.00    +0.000 A 
ENDBRANCH  18  19
ENDBRANCH  17  18
ENDBRANCH   2  17
TORSDOF 5
ENDMDL
MODEL 9
REMARK VINA RESULT:      -7.9      2.896      8.370
REMARK  Name = 
REMARK  7 active torsions:
REMARK  status: ('A' for Active; 'I' for Inactive)
REMARK    1  A    between atoms: C_1  and  C_2
REMARK    2  A    between atoms: C_2  and  N_3
REMARK    3  A    between atoms: C_2  and  C_20
REMARK    4  A    between atoms: C_4  and  C_6
REMARK    5  A    between atoms: C_6  and  O_7
REMARK    6  A    between atoms: O_7  and  C_8
REMARK    7  A    between atoms: N_12  and  C_13
REMARK                            x       y       z     vdW  Elec       q    Type
REMARK                         _______ _______ _______ _____ _____    ______ ____
ROOT
ATOM      1  N   UNL     1       0.806   9.911  21.007  0.00  0.00    +0.000 N 
ATOM      2  C   UNL     1       1.172   8.608  20.813  0.00  0.00    +0.000 C 
ATOM      3  O   UNL     1       1.069   7.828  21.762  0.00  0.00    +0.000 OA
ATOM      4  H   UNL     1       0.447  10.078  21.939  0.00  0.00    +0.000 HD
ENDROOT
BRANCH   1   6
ATOM      5  C   UNL     1       1.334  12.299  20.734  0.00  0.00    +0.000 C 
ATOM      6  C   UNL     1       0.774  11.036  20.069  0.00  0.00    +0.000 C 
BRANCH   6   7
ATOM      7  C   UNL     1      -0.578  11.192  19.380  0.00  0.00    +0.000 A 
ATOM      8  C   UNL     1      -1.629  11.902  19.998  0.00  0.00    +0.000 A 
ATOM      9  C   UNL     1      -2.848  12.108  19.346  0.00  0.00    +0.000 A 
ATOM     10  C   UNL     1      -3.056  11.572  18.080  0.00  0.00    +0.000 A 
ATOM     11  C   UNL     1      -2.037  10.847  17.459  0.00  0.00    +0.000 A 
ATOM     12  C   UNL     1      -0.821  10.642  18.110  0.00  0.00    +0.000 A 
ATOM     13  O   UNL     1      -2.155  10.304  16.205  0.00  0.00    +0.000 OA
ATOM     14  C   UNL     1      -3.266  10.864  15.497  0.00  0.00    +0.000 C 
ATOM     15  C   UNL     1      -4.494  10.919  16.390  0.00  0.00    +0.000 C 
ATOM     16  O   UNL     1      -4.277  11.798  17.501  0.00  0.00    +0.000 OA
ENDBRANCH   6   7
ENDBRANCH   1   6
BRANCH   2  17
ATOM     17  C   UNL     1       1.713   8.157  19.462  0.00  0.00    +0.000 C 
BRANCH  17  18
ATOM     18  O   UNL     1       2.856   7.329  19.644  0.00  0.00    +0.000 OA
BRANCH  18  19
ATOM     19  C   UNL     1       2.751   6.007  19.258  0.00  0.00    +0.000 A 
ATOM     20  C   UNL     1       1.978   5.077  19.837  0.00  0.00    +0.000 A 
ATOM     21  C   UNL     1       1.949   3.671  19.386  0.00  0.00    +0.000 A 
ATOM     22  O   UNL     1       1.233   2.886  20.007  0.00  0.00    +0.000 OA
ATOM     23  N   UNL     1       2.733   3.332  18.296  0.00  0.00    +0.000 N 
ATOM     24  C   UNL     1       2.702   1.957  17.835  0.00  0.00    +0.000 C 
ATOM     25  C   UNL     1       3.569   4.291  17.645  0.00  0.00    +0.000 A 
ATOM     26  C   UNL     1       4.370   3.940  16.545  0.00  0.00    +0.000 A 
ATOM     27  C   UNL     1       5.203   4.879  15.933  0.00  0.00    +0.000 A 
ATOM     28  C   UNL     1       5.252   6.181  16.415  0.00  0.00    +0.000 A 
ATOM     29  C   UNL     1       4.456   6.548  17.500  0.00  0.00    +0.000 A 
ATOM     30  C   UNL     1       3.603   5.617  18.120  0.00  0.00    +0.000 A 
ENDBRANCH  18  19
ENDBRANCH  17  18
ENDBRANCH   2  17
TORSDOF 5
ENDMDL
