MODEL 1
REMARK VINA RESULT:      -7.5      0.000      0.000
REMARK  Name = 
REMARK  4 active torsions:
REMARK  status: ('A' for Active; 'I' for Inactive)
REMARK    1  A    between atoms: C_1  and  C_2
REMARK    2  A    between atoms: N_9  and  C_10
REMARK    3  A    between atoms: C_10  and  C_11
REMARK    4  A    between atoms: C_11  and  N_12
REMARK                            x       y       z     vdW  Elec       q    Type
REMARK                         _______ _______ _______ _____ _____    ______ ____
ROOT
ATOM      1  C   UNL     1       1.092   2.778  20.800  0.00  0.00    +0.000 C 
ATOM      2  C   UNL     1       2.024   2.889  19.657  0.00  0.00    +0.000 A 
ATOM      3  N   UNL     1       2.486   1.804  18.959  0.00  0.00    +0.000 N 
ATOM      4  N   UNL     1       3.308   2.125  17.941  0.00  0.00    +0.000 NA
ATOM      5  C   UNL     1       3.367   3.461  17.993  0.00  0.00    +0.000 A 
ATOM      6  C   UNL     1       2.597   3.982  19.043  0.00  0.00    +0.000 A 
ATOM      7  C   UNL     1       2.485   5.395  19.314  0.00  0.00    +0.000 A 
ATOM      8  O   UNL     1       1.818   5.818  20.255  0.00  0.00    +0.000 OA
ATOM      9  N   UNL     1       3.183   6.240  18.419  0.00  0.00    +0.000 N 
ATOM     10  C   UNL     1       4.002   5.729  17.337  0.00  0.00    +0.000 A 
ATOM     11  C   UNL     1       4.720   6.574  16.478  0.00  0.00    +0.000 A 
ATOM     12  C   UNL     1       5.487   6.053  15.426  0.00  0.00    +0.000 A 
ATOM     13  C   UNL     1       5.556   4.679  15.219  0.00  0.00    +0.000 A 
ATOM     14 CL   UNL     1       6.501   4.055  13.924  0.00  0.00    +0.000 Cl
ATOM     15  C   UNL     1       4.870   3.811  16.057  0.00  0.00    +0.000 A 
ATOM     16  C   UNL     1       4.101   4.332  17.106  0.00  0.00    +0.000 A 
ATOM     17  H   UNL     1       2.278   0.823  19.116  0.00  0.00    +0.000 HD
ENDROOT
BRANCH   9  18
ATOM     18  C   UNL     1       2.977   7.678  18.614  0.00  0.00    +0.000 C 
BRANCH  18  19
ATOM     19  C   UNL     1       1.815   8.267  17.793  0.00  0.00    +0.000 C 
BRANCH  19  20
ATOM     20  N   UNL     1       1.953   9.702  17.534  0.00  0.00    +0.000 NA
ATOM     21  H   UNL     1       2.274  10.160  18.389  0.00  0.00    +0.000 HD
ATOM     22  H   UNL     1       1.028  10.093  17.346  0.00  0.00    +0.000 HD
ENDBRANCH  19  20
ENDBRANCH  18  19
ENDBRANCH   9  18
TORSDOF 3
ENDMDL
MODEL 2
REMARK VINA RESULT:      -7.1      2.457      3.270
REMARK  Name = 
REMARK  4 active torsions:
REMARK  status: ('A' for Active; 'I' for Inactive)
REMARK    1  A    between atoms: C_1  and  C_2
REMARK    2  A    between atoms: N_9  and  C_10
REMARK    3  A    between atoms: C_10  and  C_11
REMARK    4  A    between atoms: C_11  and  N_12
REMARK                            x       y       z     vdW  Elec       q    Type
REMARK                         _______ _______ _______ _____ _____    ______ ____
ROOT
ATOM      1  C   UNL     1       2.058   4.136  20.151  0.00  0.00    +0.000 C 
ATOM      2  C   UNL     1       2.645   3.938  18.808  0.00  0.00    +0.000 A 
ATOM      3  N   UNL     1       2.004   3.263  17.802  0.00  0.00    +0.000 N 
ATOM      4  N   UNL     1       2.704   3.215  16.651  0.00  0.00    +0.000 NA
ATOM      5  C   UNL     1       3.826   3.885  16.937  0.00  0.00    +0.000 A 
ATOM      6  C   UNL     1       3.844   4.345  18.262  0.00  0.00    +0.000 A 
ATOM      7  C   UNL     1       4.937   5.101  18.821  0.00  0.00    +0.000 A 
ATOM      8  O   UNL     1       4.930   5.473  19.992  0.00  0.00    +0.000 OA
ATOM      9  N   UNL     1       5.995   5.387  17.926  0.00  0.00    +0.000 N 
ATOM     10  C   UNL     1       6.014   4.908  16.557  0.00  0.00    +0.000 A 
ATOM     11  C   UNL     1       7.085   5.164  15.688  0.00  0.00    +0.000 A 
ATOM     12  C   UNL     1       7.067   4.708  14.363  0.00  0.00    +0.000 A 
ATOM     13  C   UNL     1       5.982   3.979  13.885  0.00  0.00    +0.000 A 
ATOM     14 CL   UNL     1       5.973   3.425  12.256  0.00  0.00    +0.000 Cl
ATOM     15  C   UNL     1       4.910   3.695  14.719  0.00  0.00    +0.000 A 
ATOM     16  C   UNL     1       4.927   4.155  16.042  0.00  0.00    +0.000 A 
ATOM     17  H   UNL     1       1.092   2.819  17.827  0.00  0.00    +0.000 HD
ENDROOT
BRANCH   9  18
ATOM     18  C   UNL     1       7.053   6.255  18.450  0.00  0.00    +0.000 C 
BRANCH  18  19
ATOM     19  C   UNL     1       8.192   5.503  19.163  0.00  0.00    +0.000 C 
BRANCH  19  20
ATOM     20  N   UNL     1       8.027   5.436  20.617  0.00  0.00    +0.000 NA
ATOM     21  H   UNL     1       8.807   4.908  21.012  0.00  0.00    +0.000 HD
ATOM     22  H   UNL     1       7.192   4.887  20.828  0.00  0.00    +0.000 HD
ENDBRANCH  19  20
ENDBRANCH  18  19
ENDBRANCH   9  18
TORSDOF 3
ENDMDL
MODEL 3
REMARK VINA RESULT:      -6.9      3.026      5.748
REMARK  Name = 
REMARK  4 active torsions:
REMARK  status: ('A' for Active; 'I' for Inactive)
REMARK    1  A    between atoms: C_1  and  C_2
REMARK    2  A    between atoms: N_9  and  C_10
REMARK    3  A    between atoms: C_10  and  C_11
REMARK    4  A    between atoms: C_11  and  N_12
REMARK                            x       y       z     vdW  Elec       q    Type
REMARK                         _______ _______ _______ _____ _____    ______ ____
ROOT
ATOM      1  C   UNL     1       6.054   4.381  14.900  0.00  0.00    +0.000 C 
ATOM      2  C   UNL     1       5.290   5.282  15.790  0.00  0.00    +0.000 A 
ATOM      3  N   UNL     1       5.207   6.636  15.593  0.00  0.00    +0.000 N 
ATOM      4  N   UNL     1       4.444   7.269  16.505  0.00  0.00    +0.000 NA
ATOM      5  C   UNL     1       4.027   6.282  17.307  0.00  0.00    +0.000 A 
ATOM      6  C   UNL     1       4.530   5.034  16.913  0.00  0.00    +0.000 A 
ATOM      7  C   UNL     1       4.226   3.806  17.606  0.00  0.00    +0.000 A 
ATOM      8  O   UNL     1       4.699   2.731  17.247  0.00  0.00    +0.000 OA
ATOM      9  N   UNL     1       3.345   3.934  18.705  0.00  0.00    +0.000 N 
ATOM     10  C   UNL     1       2.824   5.214  19.147  0.00  0.00    +0.000 A 
ATOM     11  C   UNL     1       1.982   5.334  20.262  0.00  0.00    +0.000 A 
ATOM     12  C   UNL     1       1.475   6.582  20.654  0.00  0.00    +0.000 A 
ATOM     13  C   UNL     1       1.810   7.731  19.945  0.00  0.00    +0.000 A 
ATOM     14 CL   UNL     1       1.181   9.255  20.437  0.00  0.00    +0.000 Cl
ATOM     15  C   UNL     1       2.652   7.652  18.844  0.00  0.00    +0.000 A 
ATOM     16  C   UNL     1       3.154   6.405  18.451  0.00  0.00    +0.000 A 
ATOM     17  H   UNL     1       5.636   7.190  14.859  0.00  0.00    +0.000 HD
ENDROOT
BRANCH   9  18
ATOM     18  C   UNL     1       2.936   2.678  19.340  0.00  0.00    +0.000 C 
BRANCH  18  19
ATOM     19  C   UNL     1       3.793   2.276  20.556  0.00  0.00    +0.000 C 
BRANCH  19  20
ATOM     20  N   UNL     1       5.098   1.719  20.191  0.00  0.00    +0.000 NA
ATOM     21  H   UNL     1       4.955   0.964  19.517  0.00  0.00    +0.000 HD
ATOM     22  H   UNL     1       5.508   1.276  21.014  0.00  0.00    +0.000 HD
ENDBRANCH  19  20
ENDBRANCH  18  19
ENDBRANCH   9  18
TORSDOF 3
ENDMDL
MODEL 4
REMARK VINA RESULT:      -6.8      1.387      4.211
REMARK  Name = 
REMARK  4 active torsions:
REMARK  status: ('A' for Active; 'I' for Inactive)
REMARK    1  A    between atoms: C_1  and  C_2
REMARK    2  A    between atoms: N_9  and  C_10
REMARK    3  A    between atoms: C_10  and  C_11
REMARK    4  A    between atoms: C_11  and  N_12
REMARK                            x       y       z     vdW  Elec       q    Type
REMARK                         _______ _______ _______ _____ _____    ______ ____
ROOT
ATOM      1  C   UNL     1       0.892   9.161  20.131  0.00  0.00    +0.000 C 
ATOM      2  C   UNL     1       1.800   8.559  19.131  0.00  0.00    +0.000 A 
ATOM      3  N   UNL     1       2.290   9.247  18.052  0.00  0.00    +0.000 N 
ATOM      4  N   UNL     1       3.118   8.520  17.277  0.00  0.00    +0.000 NA
ATOM      5  C   UNL     1       3.157   7.331  17.887  0.00  0.00    +0.000 A 
ATOM      6  C   UNL     1       2.351   7.299  19.034  0.00  0.00    +0.000 A 
ATOM      7  C   UNL     1       2.223   6.135  19.877  0.00  0.00    +0.000 A 
ATOM      8  O   UNL     1       1.493   6.134  20.865  0.00  0.00    +0.000 OA
ATOM      9  N   UNL     1       3.000   5.018  19.489  0.00  0.00    +0.000 N 
ATOM     10  C   UNL     1       3.827   5.015  18.297  0.00  0.00    +0.000 A 
ATOM     11  C   UNL     1       4.564   3.890  17.901  0.00  0.00    +0.000 A 
ATOM     12  C   UNL     1       5.373   3.922  16.756  0.00  0.00    +0.000 A 
ATOM     13  C   UNL     1       5.451   5.077  15.982  0.00  0.00    +0.000 A 
ATOM     14 CL   UNL     1       6.447   5.101  14.580  0.00  0.00    +0.000 Cl
ATOM     15  C   UNL     1       4.725   6.205  16.336  0.00  0.00    +0.000 A 
ATOM     16  C   UNL     1       3.921   6.173  17.483  0.00  0.00    +0.000 A 
ATOM     17  H   UNL     1       2.108  10.210  17.789  0.00  0.00    +0.000 HD
ENDROOT
BRANCH   9  18
ATOM     18  C   UNL     1       2.968   3.875  20.405  0.00  0.00    +0.000 C 
BRANCH  18  19
ATOM     19  C   UNL     1       1.949   2.786  20.020  0.00  0.00    +0.000 C 
BRANCH  19  20
ATOM     20  N   UNL     1       0.579   3.096  20.437  0.00  0.00    +0.000 NA
ATOM     21  H   UNL     1       0.390   4.080  20.235  0.00  0.00    +0.000 HD
ATOM     22  H   UNL     1       0.517   3.009  21.453  0.00  0.00    +0.000 HD
ENDBRANCH  19  20
ENDBRANCH  18  19
ENDBRANCH   9  18
TORSDOF 3
ENDMDL
MODEL 5
REMARK VINA RESULT:      -6.7      2.913      5.534
REMARK  Name = 
REMARK  4 active torsions:
REMARK  status: ('A' for Active; 'I' for Inactive)
REMARK    1  A    between atoms: C_1  and  C_2
REMARK    2  A    between atoms: N_9  and  C_10
REMARK    3  A    between atoms: C_10  and  C_11
REMARK    4  A    between atoms: C_11  and  N_12
REMARK                            x       y       z     vdW  Elec       q    Type
REMARK                         _______ _______ _______ _____ _____    ______ ____
ROOT
ATOM      1  C   UNL     1       6.073   3.973  15.563  0.00  0.00    +0.000 C 
ATOM      2  C   UNL     1       5.282   5.031  16.228  0.00  0.00    +0.000 A 
ATOM      3  N   UNL     1       5.198   6.314  15.755  0.00  0.00    +0.000 N 
ATOM      4  N   UNL     1       4.408   7.114  16.498  0.00  0.00    +0.000 NA
ATOM      5  C   UNL     1       3.973   6.309  17.474  0.00  0.00    +0.000 A 
ATOM      6  C   UNL     1       4.493   5.012  17.359  0.00  0.00    +0.000 A 
ATOM      7  C   UNL     1       4.175   3.949  18.282  0.00  0.00    +0.000 A 
ATOM      8  O   UNL     1       4.663   2.828  18.163  0.00  0.00    +0.000 OA
ATOM      9  N   UNL     1       3.264   4.292  19.309  0.00  0.00    +0.000 N 
ATOM     10  C   UNL     1       2.726   5.630  19.464  0.00  0.00    +0.000 A 
ATOM     11  C   UNL     1       1.854   5.969  20.509  0.00  0.00    +0.000 A 
ATOM     12  C   UNL     1       1.332   7.265  20.623  0.00  0.00    +0.000 A 
ATOM     13  C   UNL     1       1.680   8.248  19.700  0.00  0.00    +0.000 A 
ATOM     14 CL   UNL     1       1.032   9.834  19.853  0.00  0.00    +0.000 Cl
ATOM     15  C   UNL     1       2.552   7.953  18.662  0.00  0.00    +0.000 A 
ATOM     16  C   UNL     1       3.070   6.656  18.546  0.00  0.00    +0.000 A 
ATOM     17  H   UNL     1       5.644   6.710  14.934  0.00  0.00    +0.000 HD
ENDROOT
BRANCH   9  18
ATOM     18  C   UNL     1       2.844   3.189  20.177  0.00  0.00    +0.000 C 
BRANCH  18  19
ATOM     19  C   UNL     1       1.529   2.511  19.747  0.00  0.00    +0.000 C 
BRANCH  19  20
ATOM     20  N   UNL     1       1.681   1.629  18.587  0.00  0.00    +0.000 NA
ATOM     21  H   UNL     1       2.298   0.855  18.842  0.00  0.00    +0.000 HD
ATOM     22  H   UNL     1       2.171   2.137  17.850  0.00  0.00    +0.000 HD
ENDBRANCH  19  20
ENDBRANCH  18  19
ENDBRANCH   9  18
TORSDOF 3
ENDMDL
MODEL 6
REMARK VINA RESULT:      -6.6      3.274      4.659
REMARK  Name = 
REMARK  4 active torsions:
REMARK  status: ('A' for Active; 'I' for Inactive)
REMARK    1  A    between atoms: C_1  and  C_2
REMARK    2  A    between atoms: N_9  and  C_10
REMARK    3  A    between atoms: C_10  and  C_11
REMARK    4  A    between atoms: C_11  and  N_12
REMARK                            x       y       z     vdW  Elec       q    Type
REMARK                         _______ _______ _______ _____ _____    ______ ____
ROOT
ATOM      1  C   UNL     1       4.383   1.760  19.728  0.00  0.00    +0.000 C 
ATOM      2  C   UNL     1       3.639   3.019  19.955  0.00  0.00    +0.000 A 
ATOM      3  N   UNL     1       2.808   3.216  21.026  0.00  0.00    +0.000 N 
ATOM      4  N   UNL     1       2.245   4.440  21.057  0.00  0.00    +0.000 NA
ATOM      5  C   UNL     1       2.739   5.041  19.969  0.00  0.00    +0.000 A 
ATOM      6  C   UNL     1       3.600   4.201  19.247  0.00  0.00    +0.000 A 
ATOM      7  C   UNL     1       4.270   4.610  18.036  0.00  0.00    +0.000 A 
ATOM      8  O   UNL     1       5.003   3.843  17.417  0.00  0.00    +0.000 OA
ATOM      9  N   UNL     1       4.030   5.945  17.633  0.00  0.00    +0.000 N 
ATOM     10  C   UNL     1       3.130   6.829  18.348  0.00  0.00    +0.000 A 
ATOM     11  C   UNL     1       2.870   8.139  17.919  0.00  0.00    +0.000 A 
ATOM     12  C   UNL     1       2.012   8.980  18.642  0.00  0.00    +0.000 A 
ATOM     13  C   UNL     1       1.392   8.524  19.801  0.00  0.00    +0.000 A 
ATOM     14 CL   UNL     1       0.343   9.567  20.678  0.00  0.00    +0.000 Cl
ATOM     15  C   UNL     1       1.616   7.229  20.250  0.00  0.00    +0.000 A 
ATOM     16  C   UNL     1       2.476   6.391  19.529  0.00  0.00    +0.000 A 
ATOM     17  H   UNL     1       2.584   2.567  21.773  0.00  0.00    +0.000 HD
ENDROOT
BRANCH   9  18
ATOM     18  C   UNL     1       4.800   6.405  16.474  0.00  0.00    +0.000 C 
BRANCH  18  19
ATOM     19  C   UNL     1       6.229   6.871  16.809  0.00  0.00    +0.000 C 
BRANCH  19  20
ATOM     20  N   UNL     1       7.269   5.963  16.318  0.00  0.00    +0.000 NA
ATOM     21  H   UNL     1       8.177   6.296  16.646  0.00  0.00    +0.000 HD
ATOM     22  H   UNL     1       7.306   6.028  15.300  0.00  0.00    +0.000 HD
ENDBRANCH  19  20
ENDBRANCH  18  19
ENDBRANCH   9  18
TORSDOF 3
ENDMDL
MODEL 7
REMARK VINA RESULT:      -6.6      2.917      5.345
REMARK  Name = 
REMARK  4 active torsions:
REMARK  status: ('A' for Active; 'I' for Inactive)
REMARK    1  A    between atoms: C_1  and  C_2
REMARK    2  A    between atoms: N_9  and  C_10
REMARK    3  A    between atoms: C_10  and  C_11
REMARK    4  A    between atoms: C_11  and  N_12
REMARK                            x       y       z     vdW  Elec       q    Type
REMARK                         _______ _______ _______ _____ _____    ______ ____
ROOT
ATOM      1  C   UNL     1       6.324   3.845  15.583  0.00  0.00    +0.000 C 
ATOM      2  C   UNL     1       5.552   5.032  16.012  0.00  0.00    +0.000 A 
ATOM      3  N   UNL     1       5.525   6.205  15.304  0.00  0.00    +0.000 N 
ATOM      4  N   UNL     1       4.745   7.153  15.858  0.00  0.00    +0.000 NA
ATOM      5  C   UNL     1       4.257   6.559  16.954  0.00  0.00    +0.000 A 
ATOM      6  C   UNL     1       4.734   5.249  17.101  0.00  0.00    +0.000 A 
ATOM      7  C   UNL     1       4.356   4.389  18.195  0.00  0.00    +0.000 A 
ATOM      8  O   UNL     1       4.807   3.252  18.305  0.00  0.00    +0.000 OA
ATOM      9  N   UNL     1       3.430   4.946  19.110  0.00  0.00    +0.000 N 
ATOM     10  C   UNL     1       2.935   6.304  18.995  0.00  0.00    +0.000 A 
ATOM     11  C   UNL     1       2.048   6.859  19.928  0.00  0.00    +0.000 A 
ATOM     12  C   UNL     1       1.568   8.168  19.780  0.00  0.00    +0.000 A 
ATOM     13  C   UNL     1       1.974   8.949  18.701  0.00  0.00    +0.000 A 
ATOM     14 CL   UNL     1       1.377  10.553  18.533  0.00  0.00    +0.000 Cl
ATOM     15  C   UNL     1       2.862   8.438  17.765  0.00  0.00    +0.000 A 
ATOM     16  C   UNL     1       3.338   7.128  17.912  0.00  0.00    +0.000 A 
ATOM     17  H   UNL     1       6.006   6.425  14.438  0.00  0.00    +0.000 HD
ENDROOT
BRANCH   9  18
ATOM     18  C   UNL     1       2.950   4.039  20.156  0.00  0.00    +0.000 C 
BRANCH  18  19
ATOM     19  C   UNL     1       1.678   3.256  19.778  0.00  0.00    +0.000 C 
BRANCH  19  20
ATOM     20  N   UNL     1       0.771   3.036  20.907  0.00  0.00    +0.000 NA
ATOM     21  H   UNL     1       0.870   3.813  21.563  0.00  0.00    +0.000 HD
ATOM     22  H   UNL     1       1.079   2.207  21.418  0.00  0.00    +0.000 HD
ENDBRANCH  19  20
ENDBRANCH  18  19
ENDBRANCH   9  18
TORSDOF 3
ENDMDL
MODEL 8
REMARK VINA RESULT:      -6.6      2.744      4.522
REMARK  Name = 
REMARK  4 active torsions:
REMARK  status: ('A' for Active; 'I' for Inactive)
REMARK    1  A    between atoms: C_1  and  C_2
REMARK    2  A    between atoms: N_9  and  C_10
REMARK    3  A    between atoms: C_10  and  C_11
REMARK    4  A    between atoms: C_11  and  N_12
REMARK                            x       y       z     vdW  Elec       q    Type
REMARK                         _______ _______ _______ _____ _____    ______ ____
ROOT
ATOM      1  C   UNL     1       6.423   4.792  14.670  0.00  0.00    +0.000 C 
ATOM      2  C   UNL     1       5.601   4.337  15.811  0.00  0.00    +0.000 A 
ATOM      3  N   UNL     1       5.542   3.030  16.220  0.00  0.00    +0.000 N 
ATOM      4  N   UNL     1       4.750   2.833  17.292  0.00  0.00    +0.000 NA
ATOM      5  C   UNL     1       4.294   4.058  17.576  0.00  0.00    +0.000 A 
ATOM      6  C   UNL     1       4.782   5.023  16.683  0.00  0.00    +0.000 A 
ATOM      7  C   UNL     1       4.446   6.423  16.773  0.00  0.00    +0.000 A 
ATOM      8  O   UNL     1       4.876   7.241  15.963  0.00  0.00    +0.000 OA
ATOM      9  N   UNL     1       3.607   6.776  17.856  0.00  0.00    +0.000 N 
ATOM     10  C   UNL     1       3.071   5.797  18.783  0.00  0.00    +0.000 A 
ATOM     11  C   UNL     1       2.209   6.152  19.831  0.00  0.00    +0.000 A 
ATOM     12  C   UNL     1       1.723   5.188  20.726  0.00  0.00    +0.000 A 
ATOM     13  C   UNL     1       2.083   3.851  20.582  0.00  0.00    +0.000 A 
ATOM     14 CL   UNL     1       1.479   2.679  21.688  0.00  0.00    +0.000 Cl
ATOM     15  C   UNL     1       2.923   3.460  19.549  0.00  0.00    +0.000 A 
ATOM     16  C   UNL     1       3.411   4.425  18.658  0.00  0.00    +0.000 A 
ATOM     17  H   UNL     1       6.018   2.227  15.821  0.00  0.00    +0.000 HD
ENDROOT
BRANCH   9  18
ATOM     18  C   UNL     1       3.359   8.210  18.025  0.00  0.00    +0.000 C 
BRANCH  18  19
ATOM     19  C   UNL     1       1.928   8.651  17.662  0.00  0.00    +0.000 C 
BRANCH  19  20
ATOM     20  N   UNL     1       1.789  10.099  17.493  0.00  0.00    +0.000 NA
ATOM     21  H   UNL     1       2.644  10.463  17.068  0.00  0.00    +0.000 HD
ATOM     22  H   UNL     1       1.736  10.534  18.415  0.00  0.00    +0.000 HD
ENDBRANCH  19  20
ENDBRANCH  18  19
ENDBRANCH   9  18
TORSDOF 3
ENDMDL
MODEL 9
REMARK VINA RESULT:      -6.6      2.686      3.235
REMARK  Name = 
REMARK  4 active torsions:
REMARK  status: ('A' for Active; 'I' for Inactive)
REMARK    1  A    between atoms: C_1  and  C_2
REMARK    2  A    between atoms: N_9  and  C_10
REMARK    3  A    between atoms: C_10  and  C_11
REMARK    4  A    between atoms: C_11  and  N_12
REMARK                            x       y       z     vdW  Elec       q    Type
REMARK                         _______ _______ _______ _____ _____    ______ ____
ROOT
ATOM      1  C   UNL     1       2.736   4.073  20.466  0.00  0.00    +0.000 C 
ATOM      2  C   UNL     1       3.088   3.923  19.038  0.00  0.00    +0.000 A 
ATOM      3  N   UNL     1       2.199   3.492  18.088  0.00  0.00    +0.000 N 
ATOM      4  N   UNL     1       2.716   3.446  16.844  0.00  0.00    +0.000 NA
ATOM      5  C   UNL     1       3.975   3.866  17.011  0.00  0.00    +0.000 A 
ATOM      6  C   UNL     1       4.259   4.165  18.351  0.00  0.00    +0.000 A 
ATOM      7  C   UNL     1       5.544   4.643  18.798  0.00  0.00    +0.000 A 
ATOM      8  O   UNL     1       5.766   4.877  19.984  0.00  0.00    +0.000 OA
ATOM      9  N   UNL     1       6.508   4.831  17.779  0.00  0.00    +0.000 N 
ATOM     10  C   UNL     1       6.249   4.512  16.388  0.00  0.00    +0.000 A 
ATOM     11  C   UNL     1       7.224   4.665  15.392  0.00  0.00    +0.000 A 
ATOM     12  C   UNL     1       6.940   4.370  14.051  0.00  0.00    +0.000 A 
ATOM     13  C   UNL     1       5.679   3.908  13.684  0.00  0.00    +0.000 A 
ATOM     14 CL   UNL     1       5.345   3.550  12.035  0.00  0.00    +0.000 Cl
ATOM     15  C   UNL     1       4.694   3.731  14.645  0.00  0.00    +0.000 A 
ATOM     16  C   UNL     1       4.978   4.030  15.984  0.00  0.00    +0.000 A 
ATOM     17  H   UNL     1       1.230   3.220  18.214  0.00  0.00    +0.000 HD
ENDROOT
BRANCH   9  18
ATOM     18  C   UNL     1       7.775   5.429  18.208  0.00  0.00    +0.000 C 
BRANCH  18  19
ATOM     19  C   UNL     1       7.733   6.963  18.352  0.00  0.00    +0.000 C 
BRANCH  19  20
ATOM     20  N   UNL     1       7.655   7.666  17.069  0.00  0.00    +0.000 NA
ATOM     21  H   UNL     1       8.160   8.551  17.150  0.00  0.00    +0.000 HD
ATOM     22  H   UNL     1       6.683   7.922  16.893  0.00  0.00    +0.000 HD
ENDBRANCH  19  20
ENDBRANCH  18  19
ENDBRANCH   9  18
TORSDOF 3
ENDMDL
