MODEL 1
REMARK VINA RESULT:      -6.8      0.000      0.000
REMARK  Name = 
REMARK  3 active torsions:
REMARK  status: ('A' for Active; 'I' for Inactive)
REMARK    1  A    between atoms: C_1  and  C_2
REMARK    2  A    between atoms: C_6  and  C_7
REMARK    3  A    between atoms: C_8  and  O_9
REMARK                            x       y       z     vdW  Elec       q    Type
REMARK                         _______ _______ _______ _____ _____    ______ ____
ROOT
ATOM      1  C   UNL     1       3.324   3.697  18.148  0.00  0.00    +0.000 C 
ATOM      2  C   UNL     1       3.770   2.967  19.170  0.00  0.00    +0.000 C 
ATOM      3  C   UNL     1       2.671   2.287  19.883  0.00  0.00    +0.000 C 
ATOM      4  O   UNL     1       1.501   2.696  19.174  0.00  0.00    +0.000 OA
ATOM      5  C   UNL     1       1.858   3.536  18.159  0.00  0.00    +0.000 C 
ATOM      6  O   UNL     1       1.077   4.067  17.389  0.00  0.00    +0.000 OA
ENDROOT
BRANCH   1  12
ATOM      7  C   UNL     1       6.240   3.919  14.105  0.00  0.00    +0.000 C 
ATOM      8  C   UNL     1       5.522   4.609  15.229  0.00  0.00    +0.000 A 
ATOM      9  C   UNL     1       5.589   5.998  15.377  0.00  0.00    +0.000 A 
ATOM     10  C   UNL     1       4.916   6.628  16.425  0.00  0.00    +0.000 A 
ATOM     11  C   UNL     1       4.172   5.877  17.334  0.00  0.00    +0.000 A 
ATOM     12  C   UNL     1       4.089   4.488  17.196  0.00  0.00    +0.000 A 
ATOM     13  C   UNL     1       4.770   3.859  16.146  0.00  0.00    +0.000 A 
ENDBRANCH   1  12
BRANCH   2  14
ATOM     14  O   UNL     1       5.063   2.798  19.582  0.00  0.00    +0.000 OA
ATOM     15  H   UNL     1       5.658   3.110  18.872  0.00  0.00    +0.000 HD
ENDBRANCH   2  14
TORSDOF 2
ENDMDL
MODEL 2
REMARK VINA RESULT:      -6.7      0.568      2.052
REMARK  Name = 
REMARK  3 active torsions:
REMARK  status: ('A' for Active; 'I' for Inactive)
REMARK    1  A    between atoms: C_1  and  C_2
REMARK    2  A    between atoms: C_6  and  C_7
REMARK    3  A    between atoms: C_8  and  O_9
REMARK                            x       y       z     vdW  Elec       q    Type
REMARK                         _______ _______ _______ _____ _____    ______ ____
ROOT
ATOM      1  C   UNL     1       3.278   3.719  18.262  0.00  0.00    +0.000 C 
ATOM      2  C   UNL     1       1.965   3.487  18.284  0.00  0.00    +0.000 C 
ATOM      3  C   UNL     1       1.573   2.651  19.433  0.00  0.00    +0.000 C 
ATOM      4  O   UNL     1       2.806   2.395  20.106  0.00  0.00    +0.000 OA
ATOM      5  C   UNL     1       3.824   3.001  19.428  0.00  0.00    +0.000 C 
ATOM      6  O   UNL     1       4.999   2.948  19.746  0.00  0.00    +0.000 OA
ENDROOT
BRANCH   1  12
ATOM      7  C   UNL     1       6.164   3.955  14.198  0.00  0.00    +0.000 C 
ATOM      8  C   UNL     1       5.461   4.640  15.334  0.00  0.00    +0.000 A 
ATOM      9  C   UNL     1       5.542   6.027  15.496  0.00  0.00    +0.000 A 
ATOM     10  C   UNL     1       4.883   6.653  16.555  0.00  0.00    +0.000 A 
ATOM     11  C   UNL     1       4.139   5.900  17.463  0.00  0.00    +0.000 A 
ATOM     12  C   UNL     1       4.043   4.513  17.312  0.00  0.00    +0.000 A 
ATOM     13  C   UNL     1       4.710   3.888  16.250  0.00  0.00    +0.000 A 
ENDBRANCH   1  12
BRANCH   2  14
ATOM     14  O   UNL     1       1.018   3.931  17.403  0.00  0.00    +0.000 OA
ATOM     15  H   UNL     1       1.044   4.908  17.385  0.00  0.00    +0.000 HD
ENDBRANCH   2  14
TORSDOF 2
ENDMDL
MODEL 3
REMARK VINA RESULT:      -6.5      2.750      4.971
REMARK  Name = 
REMARK  3 active torsions:
REMARK  status: ('A' for Active; 'I' for Inactive)
REMARK    1  A    between atoms: C_1  and  C_2
REMARK    2  A    between atoms: C_6  and  C_7
REMARK    3  A    between atoms: C_8  and  O_9
REMARK                            x       y       z     vdW  Elec       q    Type
REMARK                         _______ _______ _______ _____ _____    ______ ____
ROOT
ATOM      1  C   UNL     1       5.504   5.739  17.793  0.00  0.00    +0.000 C 
ATOM      2  C   UNL     1       6.568   5.783  18.596  0.00  0.00    +0.000 C 
ATOM      3  C   UNL     1       7.628   6.657  18.059  0.00  0.00    +0.000 C 
ATOM      4  O   UNL     1       7.084   7.136  16.829  0.00  0.00    +0.000 OA
ATOM      5  C   UNL     1       5.843   6.599  16.644  0.00  0.00    +0.000 C 
ATOM      6  O   UNL     1       5.135   6.804  15.675  0.00  0.00    +0.000 OA
ENDROOT
BRANCH   1  12
ATOM      7  C   UNL     1       1.374   4.919  20.471  0.00  0.00    +0.000 C 
ATOM      8  C   UNL     1       2.239   4.600  19.285  0.00  0.00    +0.000 A 
ATOM      9  C   UNL     1       1.864   3.613  18.367  0.00  0.00    +0.000 A 
ATOM     10  C   UNL     1       2.675   3.327  17.269  0.00  0.00    +0.000 A 
ATOM     11  C   UNL     1       3.868   4.023  17.077  0.00  0.00    +0.000 A 
ATOM     12  C   UNL     1       4.255   5.017  17.981  0.00  0.00    +0.000 A 
ATOM     13  C   UNL     1       3.440   5.298  19.085  0.00  0.00    +0.000 A 
ENDBRANCH   1  12
BRANCH   2  14
ATOM     14  O   UNL     1       6.746   5.141  19.790  0.00  0.00    +0.000 OA
ATOM     15  H   UNL     1       6.812   4.181  19.621  0.00  0.00    +0.000 HD
ENDBRANCH   2  14
TORSDOF 2
ENDMDL
MODEL 4
REMARK VINA RESULT:      -6.5      1.561      1.638
REMARK  Name = 
REMARK  3 active torsions:
REMARK  status: ('A' for Active; 'I' for Inactive)
REMARK    1  A    between atoms: C_1  and  C_2
REMARK    2  A    between atoms: C_6  and  C_7
REMARK    3  A    between atoms: C_8  and  O_9
REMARK                            x       y       z     vdW  Elec       q    Type
REMARK                         _______ _______ _______ _____ _____    ______ ____
ROOT
ATOM      1  C   UNL     1       3.465   3.493  17.972  0.00  0.00    +0.000 C 
ATOM      2  C   UNL     1       3.113   2.268  18.363  0.00  0.00    +0.000 C 
ATOM      3  C   UNL     1       1.700   2.208  18.780  0.00  0.00    +0.000 C 
ATOM      4  O   UNL     1       1.235   3.546  18.602  0.00  0.00    +0.000 OA
ATOM      5  C   UNL     1       2.258   4.323  18.140  0.00  0.00    +0.000 C 
ATOM      6  O   UNL     1       2.176   5.516  17.910  0.00  0.00    +0.000 OA
ENDROOT
BRANCH   1  12
ATOM      7  C   UNL     1       6.515   4.359  14.118  0.00  0.00    +0.000 C 
ATOM      8  C   UNL     1       6.255   4.368  15.597  0.00  0.00    +0.000 A 
ATOM      9  C   UNL     1       7.236   4.799  16.496  0.00  0.00    +0.000 A 
ATOM     10  C   UNL     1       6.983   4.804  17.868  0.00  0.00    +0.000 A 
ATOM     11  C   UNL     1       5.747   4.377  18.355  0.00  0.00    +0.000 A 
ATOM     12  C   UNL     1       4.752   3.950  17.470  0.00  0.00    +0.000 A 
ATOM     13  C   UNL     1       5.014   3.942  16.094  0.00  0.00    +0.000 A 
ENDBRANCH   1  12
BRANCH   2  14
ATOM     14  O   UNL     1       3.889   1.143  18.402  0.00  0.00    +0.000 OA
ATOM     15  H   UNL     1       3.787   0.665  17.555  0.00  0.00    +0.000 HD
ENDBRANCH   2  14
TORSDOF 2
ENDMDL
MODEL 5
REMARK VINA RESULT:      -6.5      1.954      2.486
REMARK  Name = 
REMARK  3 active torsions:
REMARK  status: ('A' for Active; 'I' for Inactive)
REMARK    1  A    between atoms: C_1  and  C_2
REMARK    2  A    between atoms: C_6  and  C_7
REMARK    3  A    between atoms: C_8  and  O_9
REMARK                            x       y       z     vdW  Elec       q    Type
REMARK                         _______ _______ _______ _____ _____    ______ ____
ROOT
ATOM      1  C   UNL     1       3.520   3.507  17.916  0.00  0.00    +0.000 C 
ATOM      2  C   UNL     1       3.159   2.261  18.224  0.00  0.00    +0.000 C 
ATOM      3  C   UNL     1       1.719   2.163  18.527  0.00  0.00    +0.000 C 
ATOM      4  O   UNL     1       1.247   3.502  18.374  0.00  0.00    +0.000 OA
ATOM      5  C   UNL     1       2.289   4.312  18.028  0.00  0.00    +0.000 C 
ATOM      6  O   UNL     1       2.205   5.514  17.847  0.00  0.00    +0.000 OA
ENDROOT
BRANCH   1  12
ATOM      7  C   UNL     1       7.795   5.752  19.176  0.00  0.00    +0.000 C 
ATOM      8  C   UNL     1       6.922   5.108  18.137  0.00  0.00    +0.000 A 
ATOM      9  C   UNL     1       7.352   4.989  16.811  0.00  0.00    +0.000 A 
ATOM     10  C   UNL     1       6.533   4.387  15.856  0.00  0.00    +0.000 A 
ATOM     11  C   UNL     1       5.276   3.900  16.215  0.00  0.00    +0.000 A 
ATOM     12  C   UNL     1       4.833   4.004  17.537  0.00  0.00    +0.000 A 
ATOM     13  C   UNL     1       5.658   4.613  18.492  0.00  0.00    +0.000 A 
ENDBRANCH   1  12
BRANCH   2  14
ATOM     14  O   UNL     1       3.948   1.146  18.271  0.00  0.00    +0.000 OA
ATOM     15  H   UNL     1       4.520   1.135  17.478  0.00  0.00    +0.000 HD
ENDBRANCH   2  14
TORSDOF 2
ENDMDL
MODEL 6
REMARK VINA RESULT:      -6.5      2.796      4.624
REMARK  Name = 
REMARK  3 active torsions:
REMARK  status: ('A' for Active; 'I' for Inactive)
REMARK    1  A    between atoms: C_1  and  C_2
REMARK    2  A    between atoms: C_6  and  C_7
REMARK    3  A    between atoms: C_8  and  O_9
REMARK                            x       y       z     vdW  Elec       q    Type
REMARK                         _______ _______ _______ _____ _____    ______ ____
ROOT
ATOM      1  C   UNL     1       5.680   5.827  17.757  0.00  0.00    +0.000 C 
ATOM      2  C   UNL     1       6.690   5.934  18.621  0.00  0.00    +0.000 C 
ATOM      3  C   UNL     1       7.760   6.811  18.112  0.00  0.00    +0.000 C 
ATOM      4  O   UNL     1       7.283   7.222  16.831  0.00  0.00    +0.000 OA
ATOM      5  C   UNL     1       6.069   6.646  16.594  0.00  0.00    +0.000 C 
ATOM      6  O   UNL     1       5.418   6.790  15.575  0.00  0.00    +0.000 OA
ENDROOT
BRANCH   1  12
ATOM      7  C   UNL     1       3.329   1.459  18.298  0.00  0.00    +0.000 C 
ATOM      8  C   UNL     1       3.278   2.953  18.154  0.00  0.00    +0.000 A 
ATOM      9  C   UNL     1       2.055   3.633  18.146  0.00  0.00    +0.000 A 
ATOM     10  C   UNL     1       2.021   5.021  18.014  0.00  0.00    +0.000 A 
ATOM     11  C   UNL     1       3.208   5.744  17.887  0.00  0.00    +0.000 A 
ATOM     12  C   UNL     1       4.439   5.081  17.900  0.00  0.00    +0.000 A 
ATOM     13  C   UNL     1       4.468   3.686  18.029  0.00  0.00    +0.000 A 
ENDBRANCH   1  12
BRANCH   2  14
ATOM     14  O   UNL     1       6.808   5.349  19.852  0.00  0.00    +0.000 OA
ATOM     15  H   UNL     1       7.117   6.024  20.488  0.00  0.00    +0.000 HD
ENDBRANCH   2  14
TORSDOF 2
ENDMDL
MODEL 7
REMARK VINA RESULT:      -6.5      1.403      1.496
REMARK  Name = 
REMARK  3 active torsions:
REMARK  status: ('A' for Active; 'I' for Inactive)
REMARK    1  A    between atoms: C_1  and  C_2
REMARK    2  A    between atoms: C_6  and  C_7
REMARK    3  A    between atoms: C_8  and  O_9
REMARK                            x       y       z     vdW  Elec       q    Type
REMARK                         _______ _______ _______ _____ _____    ______ ____
ROOT
ATOM      1  C   UNL     1       4.040   3.752  18.621  0.00  0.00    +0.000 C 
ATOM      2  C   UNL     1       4.027   2.787  19.540  0.00  0.00    +0.000 C 
ATOM      3  C   UNL     1       2.732   2.713  20.243  0.00  0.00    +0.000 C 
ATOM      4  O   UNL     1       1.960   3.754  19.645  0.00  0.00    +0.000 OA
ATOM      5  C   UNL     1       2.712   4.388  18.698  0.00  0.00    +0.000 C 
ATOM      6  O   UNL     1       2.335   5.334  18.030  0.00  0.00    +0.000 OA
ENDROOT
BRANCH   1  12
ATOM      7  C   UNL     1       5.839   4.001  13.973  0.00  0.00    +0.000 C 
ATOM      8  C   UNL     1       6.007   4.241  15.446  0.00  0.00    +0.000 A 
ATOM      9  C   UNL     1       7.182   4.806  15.952  0.00  0.00    +0.000 A 
ATOM     10  C   UNL     1       7.326   5.025  17.322  0.00  0.00    +0.000 A 
ATOM     11  C   UNL     1       6.297   4.682  18.200  0.00  0.00    +0.000 A 
ATOM     12  C   UNL     1       5.113   4.123  17.710  0.00  0.00    +0.000 A 
ATOM     13  C   UNL     1       4.975   3.900  16.334  0.00  0.00    +0.000 A 
ENDBRANCH   1  12
BRANCH   2  14
ATOM     14  O   UNL     1       5.033   1.917  19.860  0.00  0.00    +0.000 OA
ATOM     15  H   UNL     1       4.662   1.014  19.899  0.00  0.00    +0.000 HD
ENDBRANCH   2  14
TORSDOF 2
ENDMDL
MODEL 8
REMARK VINA RESULT:      -6.4      2.598      4.818
REMARK  Name = 
REMARK  3 active torsions:
REMARK  status: ('A' for Active; 'I' for Inactive)
REMARK    1  A    between atoms: C_1  and  C_2
REMARK    2  A    between atoms: C_6  and  C_7
REMARK    3  A    between atoms: C_8  and  O_9
REMARK                            x       y       z     vdW  Elec       q    Type
REMARK                         _______ _______ _______ _____ _____    ______ ____
ROOT
ATOM      1  C   UNL     1       5.273   4.741  18.384  0.00  0.00    +0.000 C 
ATOM      2  C   UNL     1       6.538   4.962  18.740  0.00  0.00    +0.000 C 
ATOM      3  C   UNL     1       7.478   4.676  17.640  0.00  0.00    +0.000 C 
ATOM      4  O   UNL     1       6.632   4.247  16.572  0.00  0.00    +0.000 OA
ATOM      5  C   UNL     1       5.333   4.264  16.990  0.00  0.00    +0.000 C 
ATOM      6  O   UNL     1       4.380   3.932  16.309  0.00  0.00    +0.000 OA
ENDROOT
BRANCH   1  12
ATOM      7  C   UNL     1       1.849   2.893  21.509  0.00  0.00    +0.000 C 
ATOM      8  C   UNL     1       2.380   4.034  20.690  0.00  0.00    +0.000 A 
ATOM      9  C   UNL     1       1.721   5.268  20.667  0.00  0.00    +0.000 A 
ATOM     10  C   UNL     1       2.224   6.321  19.903  0.00  0.00    +0.000 A 
ATOM     11  C   UNL     1       3.388   6.153  19.154  0.00  0.00    +0.000 A 
ATOM     12  C   UNL     1       4.064   4.928  19.171  0.00  0.00    +0.000 A 
ATOM     13  C   UNL     1       3.552   3.871  19.936  0.00  0.00    +0.000 A 
ENDBRANCH   1  12
BRANCH   2  14
ATOM     14  O   UNL     1       7.007   5.406  19.945  0.00  0.00    +0.000 OA
ATOM     15  H   UNL     1       7.479   4.673  20.385  0.00  0.00    +0.000 HD
ENDBRANCH   2  14
TORSDOF 2
ENDMDL
MODEL 9
REMARK VINA RESULT:      -6.4      2.453      4.854
REMARK  Name = 
REMARK  3 active torsions:
REMARK  status: ('A' for Active; 'I' for Inactive)
REMARK    1  A    between atoms: C_1  and  C_2
REMARK    2  A    between atoms: C_6  and  C_7
REMARK    3  A    between atoms: C_8  and  O_9
REMARK                            x       y       z     vdW  Elec       q    Type
REMARK                         _______ _______ _______ _____ _____    ______ ____
ROOT
ATOM      1  C   UNL     1       5.569   4.595  16.697  0.00  0.00    +0.000 C 
ATOM      2  C   UNL     1       5.860   4.574  15.397  0.00  0.00    +0.000 C 
ATOM      3  C   UNL     1       7.315   4.538  15.159  0.00  0.00    +0.000 C 
ATOM      4  O   UNL     1       7.876   4.547  16.472  0.00  0.00    +0.000 OA
ATOM      5  C   UNL     1       6.869   4.594  17.393  0.00  0.00    +0.000 C 
ATOM      6  O   UNL     1       7.032   4.632  18.599  0.00  0.00    +0.000 OA
ENDROOT
BRANCH   1  12
ATOM      7  C   UNL     1       1.652   2.098  18.522  0.00  0.00    +0.000 C 
ATOM      8  C   UNL     1       2.337   3.400  18.219  0.00  0.00    +0.000 A 
ATOM      9  C   UNL     1       1.729   4.620  18.531  0.00  0.00    +0.000 A 
ATOM     10  C   UNL     1       2.376   5.823  18.246  0.00  0.00    +0.000 A 
ATOM     11  C   UNL     1       3.635   5.819  17.646  0.00  0.00    +0.000 A 
ATOM     12  C   UNL     1       4.260   4.607  17.334  0.00  0.00    +0.000 A 
ATOM     13  C   UNL     1       3.605   3.402  17.617  0.00  0.00    +0.000 A 
ENDBRANCH   1  12
BRANCH   2  14
ATOM     14  O   UNL     1       4.991   4.575  14.341  0.00  0.00    +0.000 OA
ATOM     15  H   UNL     1       4.555   5.448  14.297  0.00  0.00    +0.000 HD
ENDBRANCH   2  14
TORSDOF 2
ENDMDL
