MODEL 1
REMARK VINA RESULT:      -7.5      0.000      0.000
REMARK  Name = 
REMARK  13 active torsions:
REMARK  status: ('A' for Active; 'I' for Inactive)
REMARK    1  A    between atoms: C_2  and  C_3
REMARK    2  A    between atoms: C_2  and  C_24
REMARK    3  A    between atoms: C_3  and  O_5
REMARK    4  A    between atoms: O_5  and  C_6
REMARK    5  A    between atoms: C_6  and  C_7
REMARK    6  A    between atoms: C_7  and  C_8
REMARK    7  A    between atoms: C_8  and  C_9
REMARK    8  A    between atoms: C_9  and  C_10
REMARK    9  A    between atoms: C_10  and  C_11
REMARK   10  A    between atoms: C_11  and  N_12
REMARK   11  A    between atoms: N_15  and  C_16
REMARK   12  A    between atoms: C_27  and  C_28
REMARK   13  A    between atoms: C_33  and  C_34
REMARK                            x       y       z     vdW  Elec       q    Type
REMARK                         _______ _______ _______ _____ _____    ______ ____
ROOT
ATOM      1  O   UNL     1       1.226   7.704  21.379  0.00  0.00    +0.000 OA
ENDROOT
BRANCH   1   2
ATOM      2  C   UNL     1       1.312   8.900  22.009  0.00  0.00    +0.000 C 
ATOM      3  O   UNL     1       2.205   9.238  22.773  0.00  0.00    +0.000 OA
BRANCH   2   5
ATOM      4  C   UNL     1      -0.971   9.143  21.452  0.00  0.00    +0.000 C 
ATOM      5  C   UNL     1       0.210   9.791  21.560  0.00  0.00    +0.000 C 
BRANCH   5   6
ATOM      6  C   UNL     1       0.452  11.287  21.356  0.00  0.00    +0.000 C 
ATOM      7  C   UNL     1      -0.491  12.184  22.190  0.00  0.00    +0.000 C 
ATOM      8  C   UNL     1      -1.976  12.149  21.798  0.00  0.00    +0.000 C 
ATOM      9  C   UNL     1      -2.282  12.972  20.543  0.00  0.00    +0.000 C 
ATOM     10  C   UNL     1      -3.720  13.500  20.608  0.00  0.00    +0.000 C 
ATOM     11  C   UNL     1      -2.002  12.232  19.217  0.00  0.00    +0.000 C 
ATOM     12  C   UNL     1      -3.077  11.248  18.748  0.00  0.00    +0.000 C 
ATOM     13  C   UNL     1      -2.276  10.334  17.872  0.00  0.00    +0.000 C 
ATOM     14  O   UNL     1      -2.746   9.556  17.056  0.00  0.00    +0.000 OA
ATOM     15  C   UNL     1      -0.835  10.420  18.194  0.00  0.00    +0.000 C 
ATOM     16  C   UNL     1       0.163   9.500  17.604  0.00  0.00    +0.000 C 
ATOM     17  C   UNL     1      -0.736  11.413  19.096  0.00  0.00    +0.000 C 
ATOM     18  C   UNL     1       0.493  11.770  19.875  0.00  0.00    +0.000 C 
ENDBRANCH   5   6
ENDBRANCH   2   5
ENDBRANCH   1   2
BRANCH   1  19
ATOM     19  C   UNL     1       1.958   7.634  20.150  0.00  0.00    +0.000 C 
BRANCH  19  20
ATOM     20  C   UNL     1       2.629   6.271  20.116  0.00  0.00    +0.000 C 
BRANCH  20  21
ATOM     21  C   UNL     1       1.692   5.166  20.563  0.00  0.00    +0.000 C 
BRANCH  21  22
ATOM     22  C   UNL     1       2.326   4.359  21.693  0.00  0.00    +0.000 C 
BRANCH  22  23
ATOM     23  C   UNL     1       2.525   2.916  21.247  0.00  0.00    +0.000 C 
BRANCH  23  24
ATOM     24  C   UNL     1       1.832   2.637  19.912  0.00  0.00    +0.000 C 
BRANCH  24  25
ATOM     25  N   UNL     1       2.708   1.943  18.951  0.00  0.00    +0.000 NA
ATOM     26  C   UNL     1       2.467   2.341  17.542  0.00  0.00    +0.000 C 
ATOM     27  C   UNL     1       2.792   3.818  17.245  0.00  0.00    +0.000 C 
ATOM     28  N   UNL     1       4.180   4.131  17.610  0.00  0.00    +0.000 N 
ATOM     29  C   UNL     1       4.614   3.677  18.946  0.00  0.00    +0.000 C 
ATOM     30  C   UNL     1       4.136   2.228  19.247  0.00  0.00    +0.000 C 
BRANCH  28  31
ATOM     31  C   UNL     1       5.127   4.399  16.637  0.00  0.00    +0.000 A 
ATOM     32  C   UNL     1       5.142   3.666  15.440  0.00  0.00    +0.000 A 
ATOM     33  C   UNL     1       6.132   3.863  14.470  0.00  0.00    +0.000 A 
ATOM     34  C   UNL     1       7.127   4.811  14.673  0.00  0.00    +0.000 A 
ATOM     35  C   UNL     1       7.127   5.566  15.840  0.00  0.00    +0.000 A 
ATOM     36  C   UNL     1       6.136   5.359  16.807  0.00  0.00    +0.000 A 
ENDBRANCH  28  31
ENDBRANCH  24  25
ENDBRANCH  23  24
ENDBRANCH  22  23
ENDBRANCH  21  22
ENDBRANCH  20  21
ENDBRANCH  19  20
ENDBRANCH   1  19
TORSDOF 11
ENDMDL
MODEL 2
REMARK VINA RESULT:      -7.4      7.055     10.744
REMARK  Name = 
REMARK  13 active torsions:
REMARK  status: ('A' for Active; 'I' for Inactive)
REMARK    1  A    between atoms: C_2  and  C_3
REMARK    2  A    between atoms: C_2  and  C_24
REMARK    3  A    between atoms: C_3  and  O_5
REMARK    4  A    between atoms: O_5  and  C_6
REMARK    5  A    between atoms: C_6  and  C_7
REMARK    6  A    between atoms: C_7  and  C_8
REMARK    7  A    between atoms: C_8  and  C_9
REMARK    8  A    between atoms: C_9  and  C_10
REMARK    9  A    between atoms: C_10  and  C_11
REMARK   10  A    between atoms: C_11  and  N_12
REMARK   11  A    between atoms: N_15  and  C_16
REMARK   12  A    between atoms: C_27  and  C_28
REMARK   13  A    between atoms: C_33  and  C_34
REMARK                            x       y       z     vdW  Elec       q    Type
REMARK                         _______ _______ _______ _____ _____    ______ ____
ROOT
ATOM      1  O   UNL     1       7.019   6.416  16.759  0.00  0.00    +0.000 OA
ENDROOT
BRANCH   1   2
ATOM      2  C   UNL     1       6.549   5.170  17.012  0.00  0.00    +0.000 C 
ATOM      3  O   UNL     1       7.070   4.127  16.643  0.00  0.00    +0.000 OA
BRANCH   2   5
ATOM      4  C   UNL     1       5.655   5.023  19.193  0.00  0.00    +0.000 C 
ATOM      5  C   UNL     1       5.356   5.247  17.894  0.00  0.00    +0.000 C 
BRANCH   5   6
ATOM      6  C   UNL     1       3.991   5.639  17.326  0.00  0.00    +0.000 C 
ATOM      7  C   UNL     1       3.510   7.036  17.784  0.00  0.00    +0.000 C 
ATOM      8  C   UNL     1       3.174   7.176  19.276  0.00  0.00    +0.000 C 
ATOM      9  C   UNL     1       1.813   6.574  19.641  0.00  0.00    +0.000 C 
ATOM     10  C   UNL     1       1.218   7.326  20.837  0.00  0.00    +0.000 C 
ATOM     11  C   UNL     1       1.840   5.048  19.878  0.00  0.00    +0.000 C 
ATOM     12  C   UNL     1       2.335   4.583  21.251  0.00  0.00    +0.000 C 
ATOM     13  C   UNL     1       2.794   3.191  20.940  0.00  0.00    +0.000 C 
ATOM     14  O   UNL     1       3.013   2.324  21.772  0.00  0.00    +0.000 OA
ATOM     15  C   UNL     1       3.047   3.027  19.493  0.00  0.00    +0.000 C 
ATOM     16  C   UNL     1       3.674   1.809  18.933  0.00  0.00    +0.000 C 
ATOM     17  C   UNL     1       2.640   4.180  18.932  0.00  0.00    +0.000 C 
ATOM     18  C   UNL     1       2.857   4.587  17.507  0.00  0.00    +0.000 C 
ENDBRANCH   5   6
ENDBRANCH   2   5
ENDBRANCH   1   2
BRANCH   1  19
ATOM     19  C   UNL     1       7.693   7.025  17.867  0.00  0.00    +0.000 C 
BRANCH  19  20
ATOM     20  C   UNL     1       7.478   8.524  17.739  0.00  0.00    +0.000 C 
BRANCH  20  21
ATOM     21  C   UNL     1       8.565   9.315  18.439  0.00  0.00    +0.000 C 
BRANCH  21  22
ATOM     22  C   UNL     1       8.759  10.667  17.756  0.00  0.00    +0.000 C 
BRANCH  22  23
ATOM     23  C   UNL     1      10.145  11.211  18.077  0.00  0.00    +0.000 C 
BRANCH  23  24
ATOM     24  C   UNL     1      10.123  12.729  18.276  0.00  0.00    +0.000 C 
BRANCH  24  25
ATOM     25  N   UNL     1      11.186  13.198  19.184  0.00  0.00    +0.000 NA
ATOM     26  C   UNL     1      11.211  14.673  19.345  0.00  0.00    +0.000 C 
ATOM     27  C   UNL     1       9.952  15.251  20.018  0.00  0.00    +0.000 C 
ATOM     28  N   UNL     1       9.724  14.621  21.325  0.00  0.00    +0.000 N 
ATOM     29  C   UNL     1       9.798  13.147  21.354  0.00  0.00    +0.000 C 
ATOM     30  C   UNL     1      11.009  12.614  20.538  0.00  0.00    +0.000 C 
BRANCH  28  31
ATOM     31  C   UNL     1       9.891  15.337  22.498  0.00  0.00    +0.000 A 
ATOM     32  C   UNL     1      10.967  16.228  22.637  0.00  0.00    +0.000 A 
ATOM     33  C   UNL     1      11.205  16.910  23.836  0.00  0.00    +0.000 A 
ATOM     34  C   UNL     1      10.362  16.723  24.925  0.00  0.00    +0.000 A 
ATOM     35  C   UNL     1       9.277  15.861  24.809  0.00  0.00    +0.000 A 
ATOM     36  C   UNL     1       9.049  15.180  23.609  0.00  0.00    +0.000 A 
ENDBRANCH  28  31
ENDBRANCH  24  25
ENDBRANCH  23  24
ENDBRANCH  22  23
ENDBRANCH  21  22
ENDBRANCH  20  21
ENDBRANCH  19  20
ENDBRANCH   1  19
TORSDOF 11
ENDMDL
MODEL 3
REMARK VINA RESULT:      -7.2      6.568      9.999
REMARK  Name = 
REMARK  13 active torsions:
REMARK  status: ('A' for Active; 'I' for Inactive)
REMARK    1  A    between atoms: C_2  and  C_3
REMARK    2  A    between atoms: C_2  and  C_24
REMARK    3  A    between atoms: C_3  and  O_5
REMARK    4  A    between atoms: O_5  and  C_6
REMARK    5  A    between atoms: C_6  and  C_7
REMARK    6  A    between atoms: C_7  and  C_8
REMARK    7  A    between atoms: C_8  and  C_9
REMARK    8  A    between atoms: C_9  and  C_10
REMARK    9  A    between atoms: C_10  and  C_11
REMARK   10  A    between atoms: C_11  and  N_12
REMARK   11  A    between atoms: N_15  and  C_16
REMARK   12  A    between atoms: C_27  and  C_28
REMARK   13  A    between atoms: C_33  and  C_34
REMARK                            x       y       z     vdW  Elec       q    Type
REMARK                         _______ _______ _______ _____ _____    ______ ____
ROOT
ATOM      1  O   UNL     1       5.306   6.409  18.251  0.00  0.00    +0.000 OA
ENDROOT
BRANCH   1   2
ATOM      2  C   UNL     1       4.969   5.115  18.464  0.00  0.00    +0.000 C 
ATOM      3  O   UNL     1       5.290   4.448  19.439  0.00  0.00    +0.000 OA
BRANCH   2   5
ATOM      4  C   UNL     1       4.616   3.675  16.624  0.00  0.00    +0.000 C 
ATOM      5  C   UNL     1       4.061   4.643  17.386  0.00  0.00    +0.000 C 
BRANCH   5   6
ATOM      6  C   UNL     1       2.632   5.180  17.281  0.00  0.00    +0.000 C 
ATOM      7  C   UNL     1       2.483   6.639  17.772  0.00  0.00    +0.000 C 
ATOM      8  C   UNL     1       2.691   6.868  19.276  0.00  0.00    +0.000 C 
ATOM      9  C   UNL     1       1.481   6.448  20.117  0.00  0.00    +0.000 C 
ATOM     10  C   UNL     1       1.410   7.306  21.386  0.00  0.00    +0.000 C 
ATOM     11  C   UNL     1       1.428   4.939  20.440  0.00  0.00    +0.000 C 
ATOM     12  C   UNL     1       2.311   4.462  21.598  0.00  0.00    +0.000 C 
ATOM     13  C   UNL     1       2.489   3.015  21.253  0.00  0.00    +0.000 C 
ATOM     14  O   UNL     1       2.887   2.155  22.024  0.00  0.00    +0.000 OA
ATOM     15  C   UNL     1       2.217   2.775  19.820  0.00  0.00    +0.000 C 
ATOM     16  C   UNL     1       2.485   1.471  19.171  0.00  0.00    +0.000 C 
ATOM     17  C   UNL     1       1.764   3.950  19.346  0.00  0.00    +0.000 C 
ATOM     18  C   UNL     1       1.524   4.281  17.905  0.00  0.00    +0.000 C 
ENDBRANCH   5   6
ENDBRANCH   2   5
ENDBRANCH   1   2
BRANCH   1  19
ATOM     19  C   UNL     1       6.103   6.623  17.080  0.00  0.00    +0.000 C 
BRANCH  19  20
ATOM     20  C   UNL     1       7.534   6.275  17.454  0.00  0.00    +0.000 C 
BRANCH  20  21
ATOM     21  C   UNL     1       8.122   7.268  18.436  0.00  0.00    +0.000 C 
BRANCH  21  22
ATOM     22  C   UNL     1       8.174   8.661  17.814  0.00  0.00    +0.000 C 
BRANCH  22  23
ATOM     23  C   UNL     1       8.890   9.620  18.755  0.00  0.00    +0.000 C 
BRANCH  23  24
ATOM     24  C   UNL     1       9.059  11.006  18.129  0.00  0.00    +0.000 C 
BRANCH  24  25
ATOM     25  N   UNL     1      10.386  11.591  18.394  0.00  0.00    +0.000 NA
ATOM     26  C   UNL     1      10.616  12.873  17.684  0.00  0.00    +0.000 C 
ATOM     27  C   UNL     1       9.681  14.013  18.132  0.00  0.00    +0.000 C 
ATOM     28  N   UNL     1       9.784  14.232  19.581  0.00  0.00    +0.000 N 
ATOM     29  C   UNL     1       9.705  13.023  20.424  0.00  0.00    +0.000 C 
ATOM     30  C   UNL     1      10.558  11.859  19.845  0.00  0.00    +0.000 C 
BRANCH  28  31
ATOM     31  C   UNL     1      10.366  15.382  20.086  0.00  0.00    +0.000 A 
ATOM     32  C   UNL     1      10.682  15.478  21.450  0.00  0.00    +0.000 A 
ATOM     33  C   UNL     1      11.202  16.653  22.004  0.00  0.00    +0.000 A 
ATOM     34  C   UNL     1      11.429  17.762  21.197  0.00  0.00    +0.000 A 
ATOM     35  C   UNL     1      11.144  17.690  19.838  0.00  0.00    +0.000 A 
ATOM     36  C   UNL     1      10.620  16.512  19.295  0.00  0.00    +0.000 A 
ENDBRANCH  28  31
ENDBRANCH  24  25
ENDBRANCH  23  24
ENDBRANCH  22  23
ENDBRANCH  21  22
ENDBRANCH  20  21
ENDBRANCH  19  20
ENDBRANCH   1  19
TORSDOF 11
ENDMDL
MODEL 4
REMARK VINA RESULT:      -7.2      1.650      2.160
REMARK  Name = 
REMARK  13 active torsions:
REMARK  status: ('A' for Active; 'I' for Inactive)
REMARK    1  A    between atoms: C_2  and  C_3
REMARK    2  A    between atoms: C_2  and  C_24
REMARK    3  A    between atoms: C_3  and  O_5
REMARK    4  A    between atoms: O_5  and  C_6
REMARK    5  A    between atoms: C_6  and  C_7
REMARK    6  A    between atoms: C_7  and  C_8
REMARK    7  A    between atoms: C_8  and  C_9
REMARK    8  A    between atoms: C_9  and  C_10
REMARK    9  A    between atoms: C_10  and  C_11
REMARK   10  A    between atoms: C_11  and  N_12
REMARK   11  A    between atoms: N_15  and  C_16
REMARK   12  A    between atoms: C_27  and  C_28
REMARK   13  A    between atoms: C_33  and  C_34
REMARK                            x       y       z     vdW  Elec       q    Type
REMARK                         _______ _______ _______ _____ _____    ______ ____
ROOT
ATOM      1  O   UNL     1       1.465   7.683  20.955  0.00  0.00    +0.000 OA
ENDROOT
BRANCH   1   2
ATOM      2  C   UNL     1       1.437   8.571  19.932  0.00  0.00    +0.000 C 
ATOM      3  O   UNL     1       1.874   8.372  18.807  0.00  0.00    +0.000 OA
BRANCH   2   5
ATOM      4  C   UNL     1      -0.334   9.530  21.167  0.00  0.00    +0.000 C 
ATOM      5  C   UNL     1       0.704   9.796  20.344  0.00  0.00    +0.000 C 
BRANCH   5   6
ATOM      6  C   UNL     1       1.197  11.180  19.915  0.00  0.00    +0.000 C 
ATOM      7  C   UNL     1       1.156  12.229  21.051  0.00  0.00    +0.000 C 
ATOM      8  C   UNL     1      -0.241  12.637  21.540  0.00  0.00    +0.000 C 
ATOM      9  C   UNL     1      -0.943  13.616  20.594  0.00  0.00    +0.000 C 
ATOM     10  C   UNL     1      -1.898  14.512  21.392  0.00  0.00    +0.000 C 
ATOM     11  C   UNL     1      -1.653  12.942  19.399  0.00  0.00    +0.000 C 
ATOM     12  C   UNL     1      -3.030  12.336  19.682  0.00  0.00    +0.000 C 
ATOM     13  C   UNL     1      -3.130  11.314  18.591  0.00  0.00    +0.000 C 
ATOM     14  O   UNL     1      -4.163  10.767  18.236  0.00  0.00    +0.000 OA
ATOM     15  C   UNL     1      -1.792  10.971  18.063  0.00  0.00    +0.000 C 
ATOM     16  C   UNL     1      -1.581   9.865  17.102  0.00  0.00    +0.000 C 
ATOM     17  C   UNL     1      -0.945  11.819  18.675  0.00  0.00    +0.000 C 
ATOM     18  C   UNL     1       0.550  11.756  18.620  0.00  0.00    +0.000 C 
ENDBRANCH   5   6
ENDBRANCH   2   5
ENDBRANCH   1   2
BRANCH   1  19
ATOM     19  C   UNL     1       1.934   6.380  20.589  0.00  0.00    +0.000 C 
BRANCH  19  20
ATOM     20  C   UNL     1       0.708   5.488  20.483  0.00  0.00    +0.000 C 
BRANCH  20  21
ATOM     21  C   UNL     1       1.079   4.020  20.409  0.00  0.00    +0.000 C 
BRANCH  21  22
ATOM     22  C   UNL     1       0.202   3.304  19.385  0.00  0.00    +0.000 C 
BRANCH  22  23
ATOM     23  C   UNL     1       1.020   2.244  18.659  0.00  0.00    +0.000 C 
BRANCH  23  24
ATOM     24  C   UNL     1       2.295   1.889  19.427  0.00  0.00    +0.000 C 
BRANCH  24  25
ATOM     25  N   UNL     1       3.494   1.890  18.569  0.00  0.00    +0.000 NA
ATOM     26  C   UNL     1       3.447   2.912  17.495  0.00  0.00    +0.000 C 
ATOM     27  C   UNL     1       3.438   4.363  18.013  0.00  0.00    +0.000 C 
ATOM     28  N   UNL     1       4.597   4.617  18.879  0.00  0.00    +0.000 N 
ATOM     29  C   UNL     1       4.855   3.607  19.924  0.00  0.00    +0.000 C 
ATOM     30  C   UNL     1       4.712   2.159  19.376  0.00  0.00    +0.000 C 
BRANCH  28  31
ATOM     31  C   UNL     1       5.620   5.454  18.468  0.00  0.00    +0.000 A 
ATOM     32  C   UNL     1       6.852   5.450  19.139  0.00  0.00    +0.000 A 
ATOM     33  C   UNL     1       7.879   6.337  18.796  0.00  0.00    +0.000 A 
ATOM     34  C   UNL     1       7.698   7.245  17.759  0.00  0.00    +0.000 A 
ATOM     35  C   UNL     1       6.494   7.259  17.064  0.00  0.00    +0.000 A 
ATOM     36  C   UNL     1       5.472   6.372  17.417  0.00  0.00    +0.000 A 
ENDBRANCH  28  31
ENDBRANCH  24  25
ENDBRANCH  23  24
ENDBRANCH  22  23
ENDBRANCH  21  22
ENDBRANCH  20  21
ENDBRANCH  19  20
ENDBRANCH   1  19
TORSDOF 11
ENDMDL
MODEL 5
REMARK VINA RESULT:      -7.2      1.744      3.083
REMARK  Name = 
REMARK  13 active torsions:
REMARK  status: ('A' for Active; 'I' for Inactive)
REMARK    1  A    between atoms: C_2  and  C_3
REMARK    2  A    between atoms: C_2  and  C_24
REMARK    3  A    between atoms: C_3  and  O_5
REMARK    4  A    between atoms: O_5  and  C_6
REMARK    5  A    between atoms: C_6  and  C_7
REMARK    6  A    between atoms: C_7  and  C_8
REMARK    7  A    between atoms: C_8  and  C_9
REMARK    8  A    between atoms: C_9  and  C_10
REMARK    9  A    between atoms: C_10  and  C_11
REMARK   10  A    between atoms: C_11  and  N_12
REMARK   11  A    between atoms: N_15  and  C_16
REMARK   12  A    between atoms: C_27  and  C_28
REMARK   13  A    between atoms: C_33  and  C_34
REMARK                            x       y       z     vdW  Elec       q    Type
REMARK                         _______ _______ _______ _____ _____    ______ ____
ROOT
ATOM      1  O   UNL     1       1.122   8.519  20.805  0.00  0.00    +0.000 OA
ENDROOT
BRANCH   1   2
ATOM      2  C   UNL     1       0.206   9.385  21.303  0.00  0.00    +0.000 C 
ATOM      3  O   UNL     1      -0.554   9.157  22.234  0.00  0.00    +0.000 OA
BRANCH   2   5
ATOM      4  C   UNL     1       1.505  11.310  20.865  0.00  0.00    +0.000 C 
ATOM      5  C   UNL     1       0.325  10.698  20.618  0.00  0.00    +0.000 C 
BRANCH   5   6
ATOM      6  C   UNL     1      -0.775  11.187  19.674  0.00  0.00    +0.000 C 
ATOM      7  C   UNL     1      -0.244  12.026  18.488  0.00  0.00    +0.000 C 
ATOM      8  C   UNL     1       0.358  13.392  18.847  0.00  0.00    +0.000 C 
ATOM      9  C   UNL     1      -0.705  14.456  19.139  0.00  0.00    +0.000 C 
ATOM     10  C   UNL     1      -0.163  15.843  18.773  0.00  0.00    +0.000 C 
ATOM     11  C   UNL     1      -1.259  14.418  20.580  0.00  0.00    +0.000 C 
ATOM     12  C   UNL     1      -0.397  15.084  21.656  0.00  0.00    +0.000 C 
ATOM     13  C   UNL     1      -0.865  14.372  22.888  0.00  0.00    +0.000 C 
ATOM     14  O   UNL     1      -0.668  14.751  24.033  0.00  0.00    +0.000 OA
ATOM     15  C   UNL     1      -1.514  13.089  22.545  0.00  0.00    +0.000 C 
ATOM     16  C   UNL     1      -1.914  12.104  23.575  0.00  0.00    +0.000 C 
ATOM     17  C   UNL     1      -1.574  13.075  21.201  0.00  0.00    +0.000 C 
ATOM     18  C   UNL     1      -1.978  11.907  20.354  0.00  0.00    +0.000 C 
ENDBRANCH   5   6
ENDBRANCH   2   5
ENDBRANCH   1   2
BRANCH   1  19
ATOM     19  C   UNL     1       0.950   7.167  21.245  0.00  0.00    +0.000 C 
BRANCH  19  20
ATOM     20  C   UNL     1       1.858   6.307  20.380  0.00  0.00    +0.000 C 
BRANCH  20  21
ATOM     21  C   UNL     1       1.437   4.851  20.388  0.00  0.00    +0.000 C 
BRANCH  21  22
ATOM     22  C   UNL     1       2.009   4.141  21.613  0.00  0.00    +0.000 C 
BRANCH  22  23
ATOM     23  C   UNL     1       2.407   2.718  21.244  0.00  0.00    +0.000 C 
BRANCH  23  24
ATOM     24  C   UNL     1       1.849   2.311  19.878  0.00  0.00    +0.000 C 
BRANCH  24  25
ATOM     25  N   UNL     1       2.865   1.683  19.014  0.00  0.00    +0.000 NA
ATOM     26  C   UNL     1       2.704   2.019  17.578  0.00  0.00    +0.000 C 
ATOM     27  C   UNL     1       2.907   3.512  17.257  0.00  0.00    +0.000 C 
ATOM     28  N   UNL     1       4.224   3.970  17.721  0.00  0.00    +0.000 N 
ATOM     29  C   UNL     1       4.588   3.596  19.102  0.00  0.00    +0.000 C 
ATOM     30  C   UNL     1       4.229   2.116  19.413  0.00  0.00    +0.000 C 
BRANCH  28  31
ATOM     31  C   UNL     1       5.218   4.306  16.817  0.00  0.00    +0.000 A 
ATOM     32  C   UNL     1       4.915   4.466  15.457  0.00  0.00    +0.000 A 
ATOM     33  C   UNL     1       5.909   4.731  14.508  0.00  0.00    +0.000 A 
ATOM     34  C   UNL     1       7.236   4.854  14.905  0.00  0.00    +0.000 A 
ATOM     35  C   UNL     1       7.563   4.720  16.250  0.00  0.00    +0.000 A 
ATOM     36  C   UNL     1       6.562   4.450  17.190  0.00  0.00    +0.000 A 
ENDBRANCH  28  31
ENDBRANCH  24  25
ENDBRANCH  23  24
ENDBRANCH  22  23
ENDBRANCH  21  22
ENDBRANCH  20  21
ENDBRANCH  19  20
ENDBRANCH   1  19
TORSDOF 11
ENDMDL
MODEL 6
REMARK VINA RESULT:      -7.2      6.197      9.657
REMARK  Name = 
REMARK  13 active torsions:
REMARK  status: ('A' for Active; 'I' for Inactive)
REMARK    1  A    between atoms: C_2  and  C_3
REMARK    2  A    between atoms: C_2  and  C_24
REMARK    3  A    between atoms: C_3  and  O_5
REMARK    4  A    between atoms: O_5  and  C_6
REMARK    5  A    between atoms: C_6  and  C_7
REMARK    6  A    between atoms: C_7  and  C_8
REMARK    7  A    between atoms: C_8  and  C_9
REMARK    8  A    between atoms: C_9  and  C_10
REMARK    9  A    between atoms: C_10  and  C_11
REMARK   10  A    between atoms: C_11  and  N_12
REMARK   11  A    between atoms: N_15  and  C_16
REMARK   12  A    between atoms: C_27  and  C_28
REMARK   13  A    between atoms: C_33  and  C_34
REMARK                            x       y       z     vdW  Elec       q    Type
REMARK                         _______ _______ _______ _____ _____    ______ ____
ROOT
ATOM      1  O   UNL     1       5.918   5.554  17.798  0.00  0.00    +0.000 OA
ENDROOT
BRANCH   1   2
ATOM      2  C   UNL     1       5.270   4.524  18.394  0.00  0.00    +0.000 C 
ATOM      3  O   UNL     1       5.503   4.092  19.515  0.00  0.00    +0.000 OA
BRANCH   2   5
ATOM      4  C   UNL     1       4.310   2.772  17.133  0.00  0.00    +0.000 C 
ATOM      5  C   UNL     1       4.157   4.056  17.528  0.00  0.00    +0.000 C 
BRANCH   5   6
ATOM      6  C   UNL     1       2.958   4.962  17.241  0.00  0.00    +0.000 C 
ATOM      7  C   UNL     1       3.175   6.429  17.679  0.00  0.00    +0.000 C 
ATOM      8  C   UNL     1       3.275   6.673  19.192  0.00  0.00    +0.000 C 
ATOM      9  C   UNL     1       1.913   6.652  19.892  0.00  0.00    +0.000 C 
ATOM     10  C   UNL     1       1.950   7.564  21.124  0.00  0.00    +0.000 C 
ATOM     11  C   UNL     1       1.402   5.237  20.240  0.00  0.00    +0.000 C 
ATOM     12  C   UNL     1       1.983   4.598  21.505  0.00  0.00    +0.000 C 
ATOM     13  C   UNL     1       1.782   3.142  21.215  0.00  0.00    +0.000 C 
ATOM     14  O   UNL     1       1.836   2.249  22.047  0.00  0.00    +0.000 OA
ATOM     15  C   UNL     1       1.610   2.909  19.766  0.00  0.00    +0.000 C 
ATOM     16  C   UNL     1       1.567   1.549  19.183  0.00  0.00    +0.000 C 
ATOM     17  C   UNL     1       1.561   4.136  19.216  0.00  0.00    +0.000 C 
ATOM     18  C   UNL     1       1.581   4.441  17.750  0.00  0.00    +0.000 C 
ENDBRANCH   5   6
ENDBRANCH   2   5
ENDBRANCH   1   2
BRANCH   1  19
ATOM     19  C   UNL     1       7.346   5.439  17.821  0.00  0.00    +0.000 C 
BRANCH  19  20
ATOM     20  C   UNL     1       7.823   6.153  19.075  0.00  0.00    +0.000 C 
BRANCH  20  21
ATOM     21  C   UNL     1       8.508   7.466  18.756  0.00  0.00    +0.000 C 
BRANCH  21  22
ATOM     22  C   UNL     1       7.745   8.209  17.663  0.00  0.00    +0.000 C 
BRANCH  22  23
ATOM     23  C   UNL     1       8.131   9.682  17.675  0.00  0.00    +0.000 C 
BRANCH  23  24
ATOM     24  C   UNL     1       8.981  10.033  18.898  0.00  0.00    +0.000 C 
BRANCH  24  25
ATOM     25  N   UNL     1      10.101  10.936  18.572  0.00  0.00    +0.000 NA
ATOM     26  C   UNL     1       9.681  12.146  17.824  0.00  0.00    +0.000 C 
ATOM     27  C   UNL     1       8.752  13.082  18.620  0.00  0.00    +0.000 C 
ATOM     28  N   UNL     1       9.377  13.483  19.888  0.00  0.00    +0.000 N 
ATOM     29  C   UNL     1       9.964  12.394  20.691  0.00  0.00    +0.000 C 
ATOM     30  C   UNL     1      10.774  11.400  19.811  0.00  0.00    +0.000 C 
BRANCH  28  31
ATOM     31  C   UNL     1       9.796  14.787  20.091  0.00  0.00    +0.000 A 
ATOM     32  C   UNL     1       9.267  15.831  19.318  0.00  0.00    +0.000 A 
ATOM     33  C   UNL     1       9.724  17.148  19.449  0.00  0.00    +0.000 A 
ATOM     34  C   UNL     1      10.720  17.451  20.370  0.00  0.00    +0.000 A 
ATOM     35  C   UNL     1      11.249  16.440  21.164  0.00  0.00    +0.000 A 
ATOM     36  C   UNL     1      10.789  15.126  21.022  0.00  0.00    +0.000 A 
ENDBRANCH  28  31
ENDBRANCH  24  25
ENDBRANCH  23  24
ENDBRANCH  22  23
ENDBRANCH  21  22
ENDBRANCH  20  21
ENDBRANCH  19  20
ENDBRANCH   1  19
TORSDOF 11
ENDMDL
MODEL 7
REMARK VINA RESULT:      -7.1      7.337     11.010
REMARK  Name = 
REMARK  13 active torsions:
REMARK  status: ('A' for Active; 'I' for Inactive)
REMARK    1  A    between atoms: C_2  and  C_3
REMARK    2  A    between atoms: C_2  and  C_24
REMARK    3  A    between atoms: C_3  and  O_5
REMARK    4  A    between atoms: O_5  and  C_6
REMARK    5  A    between atoms: C_6  and  C_7
REMARK    6  A    between atoms: C_7  and  C_8
REMARK    7  A    between atoms: C_8  and  C_9
REMARK    8  A    between atoms: C_9  and  C_10
REMARK    9  A    between atoms: C_10  and  C_11
REMARK   10  A    between atoms: C_11  and  N_12
REMARK   11  A    between atoms: N_15  and  C_16
REMARK   12  A    between atoms: C_27  and  C_28
REMARK   13  A    between atoms: C_33  and  C_34
REMARK                            x       y       z     vdW  Elec       q    Type
REMARK                         _______ _______ _______ _____ _____    ______ ____
ROOT
ATOM      1  O   UNL     1       8.081   6.266  17.279  0.00  0.00    +0.000 OA
ENDROOT
BRANCH   1   2
ATOM      2  C   UNL     1       7.611   5.040  17.612  0.00  0.00    +0.000 C 
ATOM      3  O   UNL     1       8.284   4.023  17.705  0.00  0.00    +0.000 OA
BRANCH   2   5
ATOM      4  C   UNL     1       5.949   5.245  19.278  0.00  0.00    +0.000 C 
ATOM      5  C   UNL     1       6.167   5.125  17.950  0.00  0.00    +0.000 C 
BRANCH   5   6
ATOM      6  C   UNL     1       5.109   5.163  16.846  0.00  0.00    +0.000 C 
ATOM      7  C   UNL     1       4.653   6.594  16.476  0.00  0.00    +0.000 C 
ATOM      8  C   UNL     1       3.866   7.350  17.557  0.00  0.00    +0.000 C 
ATOM      9  C   UNL     1       2.406   6.898  17.659  0.00  0.00    +0.000 C 
ATOM     10  C   UNL     1       1.536   8.064  18.145  0.00  0.00    +0.000 C 
ATOM     11  C   UNL     1       2.195   5.629  18.514  0.00  0.00    +0.000 C 
ATOM     12  C   UNL     1       2.167   5.831  20.032  0.00  0.00    +0.000 C 
ATOM     13  C   UNL     1       2.553   4.467  20.516  0.00  0.00    +0.000 C 
ATOM     14  O   UNL     1       2.399   4.058  21.657  0.00  0.00    +0.000 OA
ATOM     15  C   UNL     1       3.245   3.705  19.455  0.00  0.00    +0.000 C 
ATOM     16  C   UNL     1       3.889   2.397  19.712  0.00  0.00    +0.000 C 
ATOM     17  C   UNL     1       3.165   4.479  18.357  0.00  0.00    +0.000 C 
ATOM     18  C   UNL     1       3.874   4.238  17.060  0.00  0.00    +0.000 C 
ENDBRANCH   5   6
ENDBRANCH   2   5
ENDBRANCH   1   2
BRANCH   1  19
ATOM     19  C   UNL     1       7.635   7.320  18.140  0.00  0.00    +0.000 C 
BRANCH  19  20
ATOM     20  C   UNL     1       8.110   8.624  17.520  0.00  0.00    +0.000 C 
BRANCH  20  21
ATOM     21  C   UNL     1       8.837   9.497  18.523  0.00  0.00    +0.000 C 
BRANCH  21  22
ATOM     22  C   UNL     1       8.876  10.943  18.035  0.00  0.00    +0.000 C 
BRANCH  22  23
ATOM     23  C   UNL     1      10.319  11.427  17.970  0.00  0.00    +0.000 C 
BRANCH  23  24
ATOM     24  C   UNL     1      10.398  12.937  17.737  0.00  0.00    +0.000 C 
BRANCH  24  25
ATOM     25  N   UNL     1      11.450  13.582  18.545  0.00  0.00    +0.000 NA
ATOM     26  C   UNL     1      11.466  15.060  18.416  0.00  0.00    +0.000 C 
ATOM     27  C   UNL     1      10.198  15.749  18.955  0.00  0.00    +0.000 C 
ATOM     28  N   UNL     1       9.961  15.383  20.358  0.00  0.00    +0.000 N 
ATOM     29  C   UNL     1      10.043  13.943  20.673  0.00  0.00    +0.000 C 
ATOM     30  C   UNL     1      11.265  13.271  19.985  0.00  0.00    +0.000 C 
BRANCH  28  31
ATOM     31  C   UNL     1      10.114  16.315  21.370  0.00  0.00    +0.000 A 
ATOM     32  C   UNL     1       9.633  17.623  21.209  0.00  0.00    +0.000 A 
ATOM     33  C   UNL     1       9.838  18.607  22.183  0.00  0.00    +0.000 A 
ATOM     34  C   UNL     1      10.524  18.298  23.352  0.00  0.00    +0.000 A 
ATOM     35  C   UNL     1      10.995  17.005  23.547  0.00  0.00    +0.000 A 
ATOM     36  C   UNL     1      10.789  16.029  22.566  0.00  0.00    +0.000 A 
ENDBRANCH  28  31
ENDBRANCH  24  25
ENDBRANCH  23  24
ENDBRANCH  22  23
ENDBRANCH  21  22
ENDBRANCH  20  21
ENDBRANCH  19  20
ENDBRANCH   1  19
TORSDOF 11
ENDMDL
MODEL 8
REMARK VINA RESULT:      -6.9      6.805     10.237
REMARK  Name = 
REMARK  13 active torsions:
REMARK  status: ('A' for Active; 'I' for Inactive)
REMARK    1  A    between atoms: C_2  and  C_3
REMARK    2  A    between atoms: C_2  and  C_24
REMARK    3  A    between atoms: C_3  and  O_5
REMARK    4  A    between atoms: O_5  and  C_6
REMARK    5  A    between atoms: C_6  and  C_7
REMARK    6  A    between atoms: C_7  and  C_8
REMARK    7  A    between atoms: C_8  and  C_9
REMARK    8  A    between atoms: C_9  and  C_10
REMARK    9  A    between atoms: C_10  and  C_11
REMARK   10  A    between atoms: C_11  and  N_12
REMARK   11  A    between atoms: N_15  and  C_16
REMARK   12  A    between atoms: C_27  and  C_28
REMARK   13  A    between atoms: C_33  and  C_34
REMARK                            x       y       z     vdW  Elec       q    Type
REMARK                         _______ _______ _______ _____ _____    ______ ____
ROOT
ATOM      1  O   UNL     1       7.218   4.835  19.189  0.00  0.00    +0.000 OA
ENDROOT
BRANCH   1   2
ATOM      2  C   UNL     1       6.910   4.463  17.923  0.00  0.00    +0.000 C 
ATOM      3  O   UNL     1       7.695   4.416  16.986  0.00  0.00    +0.000 OA
BRANCH   2   5
ATOM      4  C   UNL     1       5.158   3.190  18.868  0.00  0.00    +0.000 C 
ATOM      5  C   UNL     1       5.493   4.019  17.855  0.00  0.00    +0.000 C 
BRANCH   5   6
ATOM      6  C   UNL     1       4.556   4.566  16.776  0.00  0.00    +0.000 C 
ATOM      7  C   UNL     1       4.630   6.103  16.616  0.00  0.00    +0.000 C 
ATOM      8  C   UNL     1       4.105   6.929  17.799  0.00  0.00    +0.000 C 
ATOM      9  C   UNL     1       2.576   6.995  17.850  0.00  0.00    +0.000 C 
ATOM     10  C   UNL     1       2.136   8.311  18.502  0.00  0.00    +0.000 C 
ATOM     11  C   UNL     1       1.912   5.772  18.520  0.00  0.00    +0.000 C 
ATOM     12  C   UNL     1       1.893   5.765  20.052  0.00  0.00    +0.000 C 
ATOM     13  C   UNL     1       1.773   4.298  20.335  0.00  0.00    +0.000 C 
ATOM     14  O   UNL     1       1.443   3.818  21.409  0.00  0.00    +0.000 OA
ATOM     15  C   UNL     1       2.206   3.496  19.171  0.00  0.00    +0.000 C 
ATOM     16  C   UNL     1       2.355   2.025  19.236  0.00  0.00    +0.000 C 
ATOM     17  C   UNL     1       2.437   4.392  18.194  0.00  0.00    +0.000 C 
ATOM     18  C   UNL     1       3.073   4.100  16.870  0.00  0.00    +0.000 C 
ENDBRANCH   5   6
ENDBRANCH   2   5
ENDBRANCH   1   2
BRANCH   1  19
ATOM     19  C   UNL     1       8.174   5.898  19.272  0.00  0.00    +0.000 C 
BRANCH  19  20
ATOM     20  C   UNL     1       7.710   6.980  18.310  0.00  0.00    +0.000 C 
BRANCH  20  21
ATOM     21  C   UNL     1       8.504   8.261  18.470  0.00  0.00    +0.000 C 
BRANCH  21  22
ATOM     22  C   UNL     1       7.938   9.352  17.566  0.00  0.00    +0.000 C 
BRANCH  22  23
ATOM     23  C   UNL     1       8.366  10.720  18.079  0.00  0.00    +0.000 C 
BRANCH  23  24
ATOM     24  C   UNL     1       9.888  10.876  18.069  0.00  0.00    +0.000 C 
BRANCH  24  25
ATOM     25  N   UNL     1      10.318  12.241  17.711  0.00  0.00    +0.000 NA
ATOM     26  C   UNL     1       9.373  13.291  18.162  0.00  0.00    +0.000 C 
ATOM     27  C   UNL     1       9.243  13.401  19.693  0.00  0.00    +0.000 C 
ATOM     28  N   UNL     1      10.556  13.626  20.313  0.00  0.00    +0.000 N 
ATOM     29  C   UNL     1      11.643  12.735  19.864  0.00  0.00    +0.000 C 
ATOM     30  C   UNL     1      11.636  12.549  18.321  0.00  0.00    +0.000 C 
BRANCH  28  31
ATOM     31  C   UNL     1      10.865  14.841  20.901  0.00  0.00    +0.000 A 
ATOM     32  C   UNL     1      10.261  15.218  22.110  0.00  0.00    +0.000 A 
ATOM     33  C   UNL     1      10.496  16.470  22.690  0.00  0.00    +0.000 A 
ATOM     34  C   UNL     1      11.354  17.373  22.074  0.00  0.00    +0.000 A 
ATOM     35  C   UNL     1      11.981  17.019  20.885  0.00  0.00    +0.000 A 
ATOM     36  C   UNL     1      11.737  15.767  20.310  0.00  0.00    +0.000 A 
ENDBRANCH  28  31
ENDBRANCH  24  25
ENDBRANCH  23  24
ENDBRANCH  22  23
ENDBRANCH  21  22
ENDBRANCH  20  21
ENDBRANCH  19  20
ENDBRANCH   1  19
TORSDOF 11
ENDMDL
MODEL 9
REMARK VINA RESULT:      -6.9      6.173      9.451
REMARK  Name = 
REMARK  13 active torsions:
REMARK  status: ('A' for Active; 'I' for Inactive)
REMARK    1  A    between atoms: C_2  and  C_3
REMARK    2  A    between atoms: C_2  and  C_24
REMARK    3  A    between atoms: C_3  and  O_5
REMARK    4  A    between atoms: O_5  and  C_6
REMARK    5  A    between atoms: C_6  and  C_7
REMARK    6  A    between atoms: C_7  and  C_8
REMARK    7  A    between atoms: C_8  and  C_9
REMARK    8  A    between atoms: C_9  and  C_10
REMARK    9  A    between atoms: C_10  and  C_11
REMARK   10  A    between atoms: C_11  and  N_12
REMARK   11  A    between atoms: N_15  and  C_16
REMARK   12  A    between atoms: C_27  and  C_28
REMARK   13  A    between atoms: C_33  and  C_34
REMARK                            x       y       z     vdW  Elec       q    Type
REMARK                         _______ _______ _______ _____ _____    ______ ____
ROOT
ATOM      1  O   UNL     1       5.416   4.807  15.765  0.00  0.00    +0.000 OA
ENDROOT
BRANCH   1   2
ATOM      2  C   UNL     1       5.084   3.771  16.572  0.00  0.00    +0.000 C 
ATOM      3  O   UNL     1       5.502   2.626  16.467  0.00  0.00    +0.000 OA
BRANCH   2   5
ATOM      4  C   UNL     1       4.651   3.860  18.893  0.00  0.00    +0.000 C 
ATOM      5  C   UNL     1       4.210   4.247  17.676  0.00  0.00    +0.000 C 
BRANCH   5   6
ATOM      6  C   UNL     1       3.013   5.154  17.385  0.00  0.00    +0.000 C 
ATOM      7  C   UNL     1       3.211   6.611  17.866  0.00  0.00    +0.000 C 
ATOM      8  C   UNL     1       3.275   6.815  19.386  0.00  0.00    +0.000 C 
ATOM      9  C   UNL     1       1.896   6.769  20.054  0.00  0.00    +0.000 C 
ATOM     10  C   UNL     1       1.900   7.649  21.310  0.00  0.00    +0.000 C 
ATOM     11  C   UNL     1       1.385   5.343  20.353  0.00  0.00    +0.000 C 
ATOM     12  C   UNL     1       1.941   4.674  21.613  0.00  0.00    +0.000 C 
ATOM     13  C   UNL     1       1.754   3.225  21.281  0.00  0.00    +0.000 C 
ATOM     14  O   UNL     1       1.794   2.310  22.090  0.00  0.00    +0.000 OA
ATOM     15  C   UNL     1       1.617   3.029  19.822  0.00  0.00    +0.000 C 
ATOM     16  C   UNL     1       1.596   1.685  19.203  0.00  0.00    +0.000 C 
ATOM     17  C   UNL     1       1.574   4.270  19.304  0.00  0.00    +0.000 C 
ATOM     18  C   UNL     1       1.627   4.614  17.847  0.00  0.00    +0.000 C 
ENDBRANCH   5   6
ENDBRANCH   2   5
ENDBRANCH   1   2
BRANCH   1  19
ATOM     19  C   UNL     1       6.826   5.032  15.649  0.00  0.00    +0.000 C 
BRANCH  19  20
ATOM     20  C   UNL     1       7.124   6.333  16.378  0.00  0.00    +0.000 C 
BRANCH  20  21
ATOM     21  C   UNL     1       7.248   6.130  17.874  0.00  0.00    +0.000 C 
BRANCH  21  22
ATOM     22  C   UNL     1       7.928   7.336  18.517  0.00  0.00    +0.000 C 
BRANCH  22  23
ATOM     23  C   UNL     1       7.868   8.527  17.570  0.00  0.00    +0.000 C 
BRANCH  23  24
ATOM     24  C   UNL     1       8.992   9.528  17.850  0.00  0.00    +0.000 C 
BRANCH  24  25
ATOM     25  N   UNL     1       8.576  10.609  18.763  0.00  0.00    +0.000 NA
ATOM     26  C   UNL     1       9.561  10.879  19.839  0.00  0.00    +0.000 C 
ATOM     27  C   UNL     1      10.915  11.409  19.330  0.00  0.00    +0.000 C 
ATOM     28  N   UNL     1      10.730  12.621  18.522  0.00  0.00    +0.000 N 
ATOM     29  C   UNL     1       9.683  12.552  17.484  0.00  0.00    +0.000 C 
ATOM     30  C   UNL     1       8.386  11.878  18.016  0.00  0.00    +0.000 C 
BRANCH  28  31
ATOM     31  C   UNL     1      11.154  13.855  18.985  0.00  0.00    +0.000 A 
ATOM     32  C   UNL     1      11.826  14.741  18.129  0.00  0.00    +0.000 A 
ATOM     33  C   UNL     1      12.333  15.963  18.586  0.00  0.00    +0.000 A 
ATOM     34  C   UNL     1      12.166  16.333  19.916  0.00  0.00    +0.000 A 
ATOM     35  C   UNL     1      11.487  15.483  20.782  0.00  0.00    +0.000 A 
ATOM     36  C   UNL     1      10.989  14.262  20.317  0.00  0.00    +0.000 A 
ENDBRANCH  28  31
ENDBRANCH  24  25
ENDBRANCH  23  24
ENDBRANCH  22  23
ENDBRANCH  21  22
ENDBRANCH  20  21
ENDBRANCH  19  20
ENDBRANCH   1  19
TORSDOF 11
ENDMDL
