MODEL 1
REMARK VINA RESULT:      -7.7      0.000      0.000
REMARK  Name = 
REMARK  9 active torsions:
REMARK  status: ('A' for Active; 'I' for Inactive)
REMARK    1  A    between atoms: C_1  and  O_2
REMARK    2  A    between atoms: O_2  and  C_3
REMARK    3  A    between atoms: C_3  and  C_4
REMARK    4  A    between atoms: C_4  and  N_5
REMARK    5  A    between atoms: C_6  and  C_8
REMARK    6  A    between atoms: C_11  and  C_12
REMARK    7  A    between atoms: C_14  and  C_15
REMARK    8  A    between atoms: C_15  and  N_16
REMARK    9  A    between atoms: C_25  and  C_26
REMARK                            x       y       z     vdW  Elec       q    Type
REMARK                         _______ _______ _______ _____ _____    ______ ____
ROOT
ATOM      1  C   UNL     1       7.841   8.534  17.949  0.00  0.00    +0.000 A 
ATOM      2  N   UNL     1       6.824   8.192  17.153  0.00  0.00    +0.000 NA
ATOM      3  C   UNL     1       6.695   6.781  17.267  0.00  0.00    +0.000 A 
ATOM      4  C   UNL     1       7.629   6.370  18.215  0.00  0.00    +0.000 A 
ATOM      5  C   UNL     1       8.040   5.125  18.896  0.00  0.00    +0.000 C 
ATOM      6  O   UNL     1       8.353   7.460  18.621  0.00  0.00    +0.000 OA
ENDROOT
BRANCH   1  10
ATOM      7  C   UNL     1       9.845  12.345  18.895  0.00  0.00    +0.000 A 
ATOM      8  C   UNL     1      10.031  11.183  19.661  0.00  0.00    +0.000 A 
ATOM      9  C   UNL     1       9.389   9.952  19.356  0.00  0.00    +0.000 A 
ATOM     10  C   UNL     1       8.518   9.829  18.268  0.00  0.00    +0.000 A 
ATOM     11  C   UNL     1       8.318  11.009  17.509  0.00  0.00    +0.000 A 
ATOM     12  C   UNL     1       8.961  12.248  17.818  0.00  0.00    +0.000 A 
BRANCH   7  14
ATOM     13  N   UNL     1       9.770  14.736  19.661  0.00  0.00    +0.000 N 
ATOM     14  C   UNL     1      10.535  13.614  19.338  0.00  0.00    +0.000 C 
ATOM     15  O   UNL     1      11.759  13.638  19.372  0.00  0.00    +0.000 OA
ATOM     16  H   UNL     1       8.767  14.669  19.746  0.00  0.00    +0.000 HD
BRANCH  13  17
ATOM     17  C   UNL     1      10.413  15.947  20.188  0.00  0.00    +0.000 C 
BRANCH  17  18
ATOM     18  C   UNL     1      10.475  17.113  19.192  0.00  0.00    +0.000 C 
BRANCH  18  20
ATOM     19  C   UNL     1      11.148  16.670  16.965  0.00  0.00    +0.000 C 
ATOM     20  O   UNL     1      11.581  16.940  18.296  0.00  0.00    +0.000 OA
ENDBRANCH  18  20
ENDBRANCH  17  18
ENDBRANCH  13  17
ENDBRANCH   7  14
ENDBRANCH   1  10
BRANCH   3  21
ATOM     21  C   UNL     1       5.621   5.884  16.488  0.00  0.00    +0.000 C 
BRANCH  21  22
ATOM     22  N   UNL     1       4.240   5.538  17.026  0.00  0.00    +0.000 N 
ATOM     23  C   UNL     1       3.856   6.312  18.223  0.00  0.00    +0.000 C 
ATOM     24  C   UNL     1       4.357   5.540  19.448  0.00  0.00    +0.000 C 
ATOM     25  C   UNL     1       3.932   4.193  18.973  0.00  0.00    +0.000 A 
ATOM     26  C   UNL     1       3.279   3.233  19.750  0.00  0.00    +0.000 A 
ATOM     27  C   UNL     1       2.467   2.313  19.118  0.00  0.00    +0.000 A 
ATOM     28  C   UNL     1       2.381   2.330  17.717  0.00  0.00    +0.000 A 
ATOM     29  C   UNL     1       3.133   3.255  16.940  0.00  0.00    +0.000 A 
ATOM     30  C   UNL     1       3.923   4.215  17.563  0.00  0.00    +0.000 A 
ENDBRANCH  21  22
ENDBRANCH   3  21
TORSDOF 7
ENDMDL
MODEL 2
REMARK VINA RESULT:      -7.7      1.039      1.474
REMARK  Name = 
REMARK  9 active torsions:
REMARK  status: ('A' for Active; 'I' for Inactive)
REMARK    1  A    between atoms: C_1  and  O_2
REMARK    2  A    between atoms: O_2  and  C_3
REMARK    3  A    between atoms: C_3  and  C_4
REMARK    4  A    between atoms: C_4  and  N_5
REMARK    5  A    between atoms: C_6  and  C_8
REMARK    6  A    between atoms: C_11  and  C_12
REMARK    7  A    between atoms: C_14  and  C_15
REMARK    8  A    between atoms: C_15  and  N_16
REMARK    9  A    between atoms: C_25  and  C_26
REMARK                            x       y       z     vdW  Elec       q    Type
REMARK                         _______ _______ _______ _____ _____    ______ ____
ROOT
ATOM      1  C   UNL     1       8.226   8.623  18.127  0.00  0.00    +0.000 A 
ATOM      2  N   UNL     1       7.597   8.090  17.076  0.00  0.00    +0.000 NA
ATOM      3  C   UNL     1       7.408   6.716  17.388  0.00  0.00    +0.000 A 
ATOM      4  C   UNL     1       7.887   6.531  18.683  0.00  0.00    +0.000 A 
ATOM      5  C   UNL     1       7.976   5.451  19.686  0.00  0.00    +0.000 C 
ATOM      6  O   UNL     1       8.414   7.714  19.131  0.00  0.00    +0.000 OA
ENDROOT
BRANCH   1  10
ATOM      7  C   UNL     1       9.751  12.656  19.046  0.00  0.00    +0.000 A 
ATOM      8  C   UNL     1       9.013  12.374  17.886  0.00  0.00    +0.000 A 
ATOM      9  C   UNL     1       8.516  11.075  17.590  0.00  0.00    +0.000 A 
ATOM     10  C   UNL     1       8.747   9.989  18.441  0.00  0.00    +0.000 A 
ATOM     11  C   UNL     1       9.509  10.274  19.602  0.00  0.00    +0.000 A 
ATOM     12  C   UNL     1      10.011  11.580  19.899  0.00  0.00    +0.000 A 
BRANCH   7  14
ATOM     13  N   UNL     1       9.502  15.146  18.831  0.00  0.00    +0.000 N 
ATOM     14  C   UNL     1      10.276  14.059  19.239  0.00  0.00    +0.000 C 
ATOM     15  O   UNL     1      11.391  14.210  19.723  0.00  0.00    +0.000 OA
ATOM     16  H   UNL     1       8.542  15.018  18.547  0.00  0.00    +0.000 HD
BRANCH  13  17
ATOM     17  C   UNL     1       9.949  16.520  19.098  0.00  0.00    +0.000 C 
BRANCH  17  18
ATOM     18  C   UNL     1       9.971  17.428  17.861  0.00  0.00    +0.000 C 
BRANCH  18  20
ATOM     19  C   UNL     1      12.333  17.548  17.748  0.00  0.00    +0.000 C 
ATOM     20  O   UNL     1      11.139  17.162  17.073  0.00  0.00    +0.000 OA
ENDBRANCH  18  20
ENDBRANCH  17  18
ENDBRANCH  13  17
ENDBRANCH   7  14
ENDBRANCH   1  10
BRANCH   3  21
ATOM     21  C   UNL     1       6.710   5.638  16.432  0.00  0.00    +0.000 C 
BRANCH  21  22
ATOM     22  N   UNL     1       5.208   5.531  16.212  0.00  0.00    +0.000 N 
ATOM     23  C   UNL     1       4.497   6.821  16.319  0.00  0.00    +0.000 C 
ATOM     24  C   UNL     1       4.112   7.011  17.790  0.00  0.00    +0.000 C 
ATOM     25  C   UNL     1       3.648   5.614  18.017  0.00  0.00    +0.000 A 
ATOM     26  C   UNL     1       2.476   5.252  18.686  0.00  0.00    +0.000 A 
ATOM     27  C   UNL     1       1.877   4.051  18.365  0.00  0.00    +0.000 A 
ATOM     28  C   UNL     1       2.500   3.206  17.432  0.00  0.00    +0.000 A 
ATOM     29  C   UNL     1       3.744   3.552  16.836  0.00  0.00    +0.000 A 
ATOM     30  C   UNL     1       4.341   4.777  17.117  0.00  0.00    +0.000 A 
ENDBRANCH  21  22
ENDBRANCH   3  21
TORSDOF 7
ENDMDL
MODEL 3
REMARK VINA RESULT:      -7.6      6.732     10.104
REMARK  Name = 
REMARK  9 active torsions:
REMARK  status: ('A' for Active; 'I' for Inactive)
REMARK    1  A    between atoms: C_1  and  O_2
REMARK    2  A    between atoms: O_2  and  C_3
REMARK    3  A    between atoms: C_3  and  C_4
REMARK    4  A    between atoms: C_4  and  N_5
REMARK    5  A    between atoms: C_6  and  C_8
REMARK    6  A    between atoms: C_11  and  C_12
REMARK    7  A    between atoms: C_14  and  C_15
REMARK    8  A    between atoms: C_15  and  N_16
REMARK    9  A    between atoms: C_25  and  C_26
REMARK                            x       y       z     vdW  Elec       q    Type
REMARK                         _______ _______ _______ _____ _____    ______ ____
ROOT
ATOM      1  C   UNL     1       1.217   8.980  20.073  0.00  0.00    +0.000 A 
ATOM      2  N   UNL     1       0.666  10.144  19.719  0.00  0.00    +0.000 NA
ATOM      3  C   UNL     1      -0.065  10.593  20.853  0.00  0.00    +0.000 A 
ATOM      4  C   UNL     1       0.169   9.669  21.869  0.00  0.00    +0.000 A 
ATOM      5  C   UNL     1      -0.170   9.484  23.294  0.00  0.00    +0.000 C 
ATOM      6  O   UNL     1       0.949   8.658  21.374  0.00  0.00    +0.000 OA
ENDROOT
BRANCH   1  10
ATOM      7  C   UNL     1       3.732   6.032  17.971  0.00  0.00    +0.000 A 
ATOM      8  C   UNL     1       3.428   7.289  17.427  0.00  0.00    +0.000 A 
ATOM      9  C   UNL     1       2.621   8.244  18.104  0.00  0.00    +0.000 A 
ATOM     10  C   UNL     1       2.068   7.977  19.362  0.00  0.00    +0.000 A 
ATOM     11  C   UNL     1       2.360   6.698  19.899  0.00  0.00    +0.000 A 
ATOM     12  C   UNL     1       3.170   5.737  19.216  0.00  0.00    +0.000 A 
BRANCH   7  14
ATOM     13  N   UNL     1       5.856   5.420  16.778  0.00  0.00    +0.000 N 
ATOM     14  C   UNL     1       4.555   5.073  17.145  0.00  0.00    +0.000 C 
ATOM     15  O   UNL     1       4.047   4.018  16.785  0.00  0.00    +0.000 OA
ATOM     16  H   UNL     1       6.305   6.231  17.178  0.00  0.00    +0.000 HD
BRANCH  13  17
ATOM     17  C   UNL     1       6.708   4.463  16.060  0.00  0.00    +0.000 C 
BRANCH  17  18
ATOM     18  C   UNL     1       6.719   4.647  14.537  0.00  0.00    +0.000 C 
BRANCH  18  20
ATOM     19  C   UNL     1       8.018   5.455  12.729  0.00  0.00    +0.000 C 
ATOM     20  O   UNL     1       7.838   5.453  14.143  0.00  0.00    +0.000 OA
ENDBRANCH  18  20
ENDBRANCH  17  18
ENDBRANCH  13  17
ENDBRANCH   7  14
ENDBRANCH   1  10
BRANCH   3  21
ATOM     21  C   UNL     1      -0.924  11.942  20.925  0.00  0.00    +0.000 C 
BRANCH  21  22
ATOM     22  N   UNL     1      -1.644  12.566  19.738  0.00  0.00    +0.000 N 
ATOM     23  C   UNL     1      -2.686  13.540  20.118  0.00  0.00    +0.000 C 
ATOM     24  C   UNL     1      -3.994  12.763  20.305  0.00  0.00    +0.000 C 
ATOM     25  C   UNL     1      -3.846  11.907  19.095  0.00  0.00    +0.000 A 
ATOM     26  C   UNL     1      -4.859  11.632  18.174  0.00  0.00    +0.000 A 
ATOM     27  C   UNL     1      -4.505  11.329  16.874  0.00  0.00    +0.000 A 
ATOM     28  C   UNL     1      -3.144  11.240  16.542  0.00  0.00    +0.000 A 
ATOM     29  C   UNL     1      -2.129  11.428  17.521  0.00  0.00    +0.000 A 
ATOM     30  C   UNL     1      -2.468  11.774  18.825  0.00  0.00    +0.000 A 
ENDBRANCH  21  22
ENDBRANCH   3  21
TORSDOF 7
ENDMDL
MODEL 4
REMARK VINA RESULT:      -7.6      6.668     10.150
REMARK  Name = 
REMARK  9 active torsions:
REMARK  status: ('A' for Active; 'I' for Inactive)
REMARK    1  A    between atoms: C_1  and  O_2
REMARK    2  A    between atoms: O_2  and  C_3
REMARK    3  A    between atoms: C_3  and  C_4
REMARK    4  A    between atoms: C_4  and  N_5
REMARK    5  A    between atoms: C_6  and  C_8
REMARK    6  A    between atoms: C_11  and  C_12
REMARK    7  A    between atoms: C_14  and  C_15
REMARK    8  A    between atoms: C_15  and  N_16
REMARK    9  A    between atoms: C_25  and  C_26
REMARK                            x       y       z     vdW  Elec       q    Type
REMARK                         _______ _______ _______ _____ _____    ______ ____
ROOT
ATOM      1  C   UNL     1       2.351   7.985  18.618  0.00  0.00    +0.000 A 
ATOM      2  N   UNL     1       1.758   9.154  18.359  0.00  0.00    +0.000 NA
ATOM      3  C   UNL     1       1.046   9.502  19.540  0.00  0.00    +0.000 A 
ATOM      4  C   UNL     1       1.333   8.519  20.483  0.00  0.00    +0.000 A 
ATOM      5  C   UNL     1       1.038   8.226  21.901  0.00  0.00    +0.000 C 
ATOM      6  O   UNL     1       2.127   7.567  19.901  0.00  0.00    +0.000 OA
ENDROOT
BRANCH   1  10
ATOM      7  C   UNL     1       4.891   5.261  16.261  0.00  0.00    +0.000 A 
ATOM      8  C   UNL     1       4.967   6.657  16.141  0.00  0.00    +0.000 A 
ATOM      9  C   UNL     1       4.153   7.538  16.903  0.00  0.00    +0.000 A 
ATOM     10  C   UNL     1       3.209   7.058  17.819  0.00  0.00    +0.000 A 
ATOM     11  C   UNL     1       3.122   5.647  17.922  0.00  0.00    +0.000 A 
ATOM     12  C   UNL     1       3.939   4.761  17.153  0.00  0.00    +0.000 A 
BRANCH   7  14
ATOM     13  N   UNL     1       5.443   4.280  14.015  0.00  0.00    +0.000 N 
ATOM     14  C   UNL     1       5.766   4.415  15.366  0.00  0.00    +0.000 C 
ATOM     15  O   UNL     1       6.728   3.838  15.857  0.00  0.00    +0.000 OA
ATOM     16  H   UNL     1       4.725   4.853  13.597  0.00  0.00    +0.000 HD
BRANCH  13  17
ATOM     17  C   UNL     1       6.334   3.545  13.106  0.00  0.00    +0.000 C 
BRANCH  17  18
ATOM     18  C   UNL     1       5.614   2.856  11.939  0.00  0.00    +0.000 C 
BRANCH  18  20
ATOM     19  C   UNL     1       3.810   3.537  10.566  0.00  0.00    +0.000 C 
ATOM     20  O   UNL     1       4.240   3.261  11.897  0.00  0.00    +0.000 OA
ENDBRANCH  18  20
ENDBRANCH  17  18
ENDBRANCH  13  17
ENDBRANCH   7  14
ENDBRANCH   1  10
BRANCH   3  21
ATOM     21  C   UNL     1       0.153  10.818  19.727  0.00  0.00    +0.000 C 
BRANCH  21  22
ATOM     22  N   UNL     1      -0.638  11.483  18.610  0.00  0.00    +0.000 N 
ATOM     23  C   UNL     1      -1.170  12.814  18.967  0.00  0.00    +0.000 C 
ATOM     24  C   UNL     1      -2.547  12.601  19.605  0.00  0.00    +0.000 C 
ATOM     25  C   UNL     1      -3.023  11.586  18.624  0.00  0.00    +0.000 A 
ATOM     26  C   UNL     1      -4.287  11.569  18.031  0.00  0.00    +0.000 A 
ATOM     27  C   UNL     1      -4.428  10.976  16.793  0.00  0.00    +0.000 A 
ATOM     28  C   UNL     1      -3.316  10.351  16.206  0.00  0.00    +0.000 A 
ATOM     29  C   UNL     1      -2.060  10.295  16.874  0.00  0.00    +0.000 A 
ATOM     30  C   UNL     1      -1.891  10.924  18.103  0.00  0.00    +0.000 A 
ENDBRANCH  21  22
ENDBRANCH   3  21
TORSDOF 7
ENDMDL
MODEL 5
REMARK VINA RESULT:      -7.6      1.045      1.466
REMARK  Name = 
REMARK  9 active torsions:
REMARK  status: ('A' for Active; 'I' for Inactive)
REMARK    1  A    between atoms: C_1  and  O_2
REMARK    2  A    between atoms: O_2  and  C_3
REMARK    3  A    between atoms: C_3  and  C_4
REMARK    4  A    between atoms: C_4  and  N_5
REMARK    5  A    between atoms: C_6  and  C_8
REMARK    6  A    between atoms: C_11  and  C_12
REMARK    7  A    between atoms: C_14  and  C_15
REMARK    8  A    between atoms: C_15  and  N_16
REMARK    9  A    between atoms: C_25  and  C_26
REMARK                            x       y       z     vdW  Elec       q    Type
REMARK                         _______ _______ _______ _____ _____    ______ ____
ROOT
ATOM      1  C   UNL     1       7.955   8.588  17.961  0.00  0.00    +0.000 A 
ATOM      2  N   UNL     1       7.018   8.151  17.115  0.00  0.00    +0.000 NA
ATOM      3  C   UNL     1       6.889   6.756  17.360  0.00  0.00    +0.000 A 
ATOM      4  C   UNL     1       7.734   6.459  18.427  0.00  0.00    +0.000 A 
ATOM      5  C   UNL     1       8.089   5.297  19.266  0.00  0.00    +0.000 C 
ATOM      6  O   UNL     1       8.410   7.596  18.784  0.00  0.00    +0.000 OA
ENDROOT
BRANCH   1  10
ATOM      7  C   UNL     1       9.815  12.519  18.685  0.00  0.00    +0.000 A 
ATOM      8  C   UNL     1       8.811  12.324  17.724  0.00  0.00    +0.000 A 
ATOM      9  C   UNL     1       8.206  11.059  17.491  0.00  0.00    +0.000 A 
ATOM     10  C   UNL     1       8.589   9.920  18.208  0.00  0.00    +0.000 A 
ATOM     11  C   UNL     1       9.617  10.116  19.164  0.00  0.00    +0.000 A 
ATOM     12  C   UNL     1      10.228  11.389  19.396  0.00  0.00    +0.000 A 
BRANCH   7  14
ATOM     13  N   UNL     1      11.370  14.136  19.814  0.00  0.00    +0.000 N 
ATOM     14  C   UNL     1      10.427  13.894  18.815  0.00  0.00    +0.000 C 
ATOM     15  O   UNL     1      10.053  14.779  18.055  0.00  0.00    +0.000 OA
ATOM     16  H   UNL     1      11.758  13.376  20.352  0.00  0.00    +0.000 HD
BRANCH  13  17
ATOM     17  C   UNL     1      12.051  15.437  19.896  0.00  0.00    +0.000 C 
BRANCH  17  18
ATOM     18  C   UNL     1      11.451  16.397  20.931  0.00  0.00    +0.000 C 
BRANCH  18  20
ATOM     19  C   UNL     1       9.233  17.149  20.584  0.00  0.00    +0.000 C 
ATOM     20  O   UNL     1      10.610  17.361  20.284  0.00  0.00    +0.000 OA
ENDBRANCH  18  20
ENDBRANCH  17  18
ENDBRANCH  13  17
ENDBRANCH   7  14
ENDBRANCH   1  10
BRANCH   3  21
ATOM     21  C   UNL     1       5.899   5.768  16.581  0.00  0.00    +0.000 C 
BRANCH  21  22
ATOM     22  N   UNL     1       4.464   5.485  17.000  0.00  0.00    +0.000 N 
ATOM     23  C   UNL     1       3.989   6.335  18.111  0.00  0.00    +0.000 C 
ATOM     24  C   UNL     1       4.349   5.623  19.419  0.00  0.00    +0.000 C 
ATOM     25  C   UNL     1       3.934   4.262  18.980  0.00  0.00    +0.000 A 
ATOM     26  C   UNL     1       3.183   3.363  19.742  0.00  0.00    +0.000 A 
ATOM     27  C   UNL     1       2.410   2.427  19.086  0.00  0.00    +0.000 A 
ATOM     28  C   UNL     1       2.458   2.365  17.684  0.00  0.00    +0.000 A 
ATOM     29  C   UNL     1       3.306   3.226  16.933  0.00  0.00    +0.000 A 
ATOM     30  C   UNL     1       4.060   4.202  17.576  0.00  0.00    +0.000 A 
ENDBRANCH  21  22
ENDBRANCH   3  21
TORSDOF 7
ENDMDL
MODEL 6
REMARK VINA RESULT:      -7.5      7.471      9.969
REMARK  Name = 
REMARK  9 active torsions:
REMARK  status: ('A' for Active; 'I' for Inactive)
REMARK    1  A    between atoms: C_1  and  O_2
REMARK    2  A    between atoms: O_2  and  C_3
REMARK    3  A    between atoms: C_3  and  C_4
REMARK    4  A    between atoms: C_4  and  N_5
REMARK    5  A    between atoms: C_6  and  C_8
REMARK    6  A    between atoms: C_11  and  C_12
REMARK    7  A    between atoms: C_14  and  C_15
REMARK    8  A    between atoms: C_15  and  N_16
REMARK    9  A    between atoms: C_25  and  C_26
REMARK                            x       y       z     vdW  Elec       q    Type
REMARK                         _______ _______ _______ _____ _____    ______ ____
ROOT
ATOM      1  C   UNL     1       1.222   7.978  20.774  0.00  0.00    +0.000 A 
ATOM      2  N   UNL     1       2.265   7.943  19.939  0.00  0.00    +0.000 NA
ATOM      3  C   UNL     1       2.613   6.571  19.803  0.00  0.00    +0.000 A 
ATOM      4  C   UNL     1       1.673   5.848  20.534  0.00  0.00    +0.000 A 
ATOM      5  C   UNL     1       1.337   4.437  20.813  0.00  0.00    +0.000 C 
ATOM      6  O   UNL     1       0.823   6.726  21.152  0.00  0.00    +0.000 OA
ENDROOT
BRANCH   1  10
ATOM      7  C   UNL     1      -1.197  11.226  22.514  0.00  0.00    +0.000 A 
ATOM      8  C   UNL     1      -0.817  10.092  23.248  0.00  0.00    +0.000 A 
ATOM      9  C   UNL     1      -0.033   9.045  22.691  0.00  0.00    +0.000 A 
ATOM     10  C   UNL     1       0.400   9.081  21.360  0.00  0.00    +0.000 A 
ATOM     11  C   UNL     1      -0.003  10.219  20.617  0.00  0.00    +0.000 A 
ATOM     12  C   UNL     1      -0.794  11.270  21.177  0.00  0.00    +0.000 A 
BRANCH   7  14
ATOM     13  N   UNL     1      -3.351  11.894  23.621  0.00  0.00    +0.000 N 
ATOM     14  C   UNL     1      -2.074  12.255  23.188  0.00  0.00    +0.000 C 
ATOM     15  O   UNL     1      -1.654  13.399  23.310  0.00  0.00    +0.000 OA
ATOM     16  H   UNL     1      -3.639  10.926  23.626  0.00  0.00    +0.000 HD
BRANCH  13  17
ATOM     17  C   UNL     1      -4.182  12.850  24.367  0.00  0.00    +0.000 C 
BRANCH  17  18
ATOM     18  C   UNL     1      -5.117  13.691  23.487  0.00  0.00    +0.000 C 
BRANCH  18  20
ATOM     19  C   UNL     1      -7.180  12.576  23.811  0.00  0.00    +0.000 C 
ATOM     20  O   UNL     1      -6.424  13.755  24.074  0.00  0.00    +0.000 OA
ENDBRANCH  18  20
ENDBRANCH  17  18
ENDBRANCH  13  17
ENDBRANCH   7  14
ENDBRANCH   1  10
BRANCH   3  21
ATOM     21  C   UNL     1       3.820   6.006  18.915  0.00  0.00    +0.000 C 
BRANCH  21  22
ATOM     22  N   UNL     1       3.675   5.523  17.480  0.00  0.00    +0.000 N 
ATOM     23  C   UNL     1       3.025   4.203  17.357  0.00  0.00    +0.000 C 
ATOM     24  C   UNL     1       4.126   3.140  17.440  0.00  0.00    +0.000 C 
ATOM     25  C   UNL     1       5.094   3.843  16.552  0.00  0.00    +0.000 A 
ATOM     26  C   UNL     1       5.832   3.242  15.530  0.00  0.00    +0.000 A 
ATOM     27  C   UNL     1       6.235   4.019  14.462  0.00  0.00    +0.000 A 
ATOM     28  C   UNL     1       5.952   5.394  14.475  0.00  0.00    +0.000 A 
ATOM     29  C   UNL     1       5.284   6.002  15.574  0.00  0.00    +0.000 A 
ATOM     30  C   UNL     1       4.834   5.227  16.638  0.00  0.00    +0.000 A 
ENDBRANCH  21  22
ENDBRANCH   3  21
TORSDOF 7
ENDMDL
MODEL 7
REMARK VINA RESULT:      -7.4      1.121      1.552
REMARK  Name = 
REMARK  9 active torsions:
REMARK  status: ('A' for Active; 'I' for Inactive)
REMARK    1  A    between atoms: C_1  and  O_2
REMARK    2  A    between atoms: O_2  and  C_3
REMARK    3  A    between atoms: C_3  and  C_4
REMARK    4  A    between atoms: C_4  and  N_5
REMARK    5  A    between atoms: C_6  and  C_8
REMARK    6  A    between atoms: C_11  and  C_12
REMARK    7  A    between atoms: C_14  and  C_15
REMARK    8  A    between atoms: C_15  and  N_16
REMARK    9  A    between atoms: C_25  and  C_26
REMARK                            x       y       z     vdW  Elec       q    Type
REMARK                         _______ _______ _______ _____ _____    ______ ____
ROOT
ATOM      1  C   UNL     1       8.042   8.571  18.010  0.00  0.00    +0.000 A 
ATOM      2  N   UNL     1       7.187   8.161  17.069  0.00  0.00    +0.000 NA
ATOM      3  C   UNL     1       7.034   6.761  17.262  0.00  0.00    +0.000 A 
ATOM      4  C   UNL     1       7.777   6.431  18.394  0.00  0.00    +0.000 A 
ATOM      5  C   UNL     1       8.051   5.245  19.229  0.00  0.00    +0.000 C 
ATOM      6  O   UNL     1       8.418   7.555  18.844  0.00  0.00    +0.000 OA
ENDROOT
BRANCH   1  10
ATOM      7  C   UNL     1       9.833  12.474  19.009  0.00  0.00    +0.000 A 
ATOM      8  C   UNL     1       9.043  12.276  17.866  0.00  0.00    +0.000 A 
ATOM      9  C   UNL     1       8.460  11.020  17.544  0.00  0.00    +0.000 A 
ATOM     10  C   UNL     1       8.653   9.893  18.351  0.00  0.00    +0.000 A 
ATOM     11  C   UNL     1       9.468  10.092  19.493  0.00  0.00    +0.000 A 
ATOM     12  C   UNL     1      10.056  11.355  19.816  0.00  0.00    +0.000 A 
BRANCH   7  14
ATOM     13  N   UNL     1       9.723  14.981  18.892  0.00  0.00    +0.000 N 
ATOM     14  C   UNL     1      10.447  13.836  19.230  0.00  0.00    +0.000 C 
ATOM     15  O   UNL     1      11.586  13.904  19.674  0.00  0.00    +0.000 OA
ATOM     16  H   UNL     1       8.747  14.918  18.643  0.00  0.00    +0.000 HD
BRANCH  13  17
ATOM     17  C   UNL     1      10.260  16.316  19.190  0.00  0.00    +0.000 C 
BRANCH  17  18
ATOM     18  C   UNL     1       9.198  17.420  19.264  0.00  0.00    +0.000 C 
BRANCH  18  20
ATOM     19  C   UNL     1       6.846  17.179  19.136  0.00  0.00    +0.000 C 
ATOM     20  O   UNL     1       8.016  16.928  19.910  0.00  0.00    +0.000 OA
ENDBRANCH  18  20
ENDBRANCH  17  18
ENDBRANCH  13  17
ENDBRANCH   7  14
ENDBRANCH   1  10
BRANCH   3  21
ATOM     21  C   UNL     1       6.119   5.798  16.368  0.00  0.00    +0.000 C 
BRANCH  21  22
ATOM     22  N   UNL     1       4.703   5.378  16.734  0.00  0.00    +0.000 N 
ATOM     23  C   UNL     1       3.983   6.366  17.562  0.00  0.00    +0.000 C 
ATOM     24  C   UNL     1       4.291   6.046  19.029  0.00  0.00    +0.000 C 
ATOM     25  C   UNL     1       4.135   4.570  18.906  0.00  0.00    +0.000 A 
ATOM     26  C   UNL     1       3.443   3.755  19.805  0.00  0.00    +0.000 A 
ATOM     27  C   UNL     1       2.896   2.575  19.342  0.00  0.00    +0.000 A 
ATOM     28  C   UNL     1       3.115   2.202  18.006  0.00  0.00    +0.000 A 
ATOM     29  C   UNL     1       3.907   3.000  17.134  0.00  0.00    +0.000 A 
ATOM     30  C   UNL     1       4.429   4.212  17.574  0.00  0.00    +0.000 A 
ENDBRANCH  21  22
ENDBRANCH   3  21
TORSDOF 7
ENDMDL
MODEL 8
REMARK VINA RESULT:      -7.4      5.774      8.933
REMARK  Name = 
REMARK  9 active torsions:
REMARK  status: ('A' for Active; 'I' for Inactive)
REMARK    1  A    between atoms: C_1  and  O_2
REMARK    2  A    between atoms: O_2  and  C_3
REMARK    3  A    between atoms: C_3  and  C_4
REMARK    4  A    between atoms: C_4  and  N_5
REMARK    5  A    between atoms: C_6  and  C_8
REMARK    6  A    between atoms: C_11  and  C_12
REMARK    7  A    between atoms: C_14  and  C_15
REMARK    8  A    between atoms: C_15  and  N_16
REMARK    9  A    between atoms: C_25  and  C_26
REMARK                            x       y       z     vdW  Elec       q    Type
REMARK                         _______ _______ _______ _____ _____    ______ ____
ROOT
ATOM      1  C   UNL     1       2.448   6.862  18.745  0.00  0.00    +0.000 A 
ATOM      2  N   UNL     1       3.438   6.924  17.850  0.00  0.00    +0.000 NA
ATOM      3  C   UNL     1       3.690   5.584  17.450  0.00  0.00    +0.000 A 
ATOM      4  C   UNL     1       2.749   4.789  18.102  0.00  0.00    +0.000 A 
ATOM      5  C   UNL     1       2.342   3.371  18.148  0.00  0.00    +0.000 C 
ATOM      6  O   UNL     1       1.993   5.585  18.921  0.00  0.00    +0.000 OA
ENDROOT
BRANCH   1  10
ATOM      7  C   UNL     1       0.328   9.870  21.171  0.00  0.00    +0.000 A 
ATOM      8  C   UNL     1       0.658  10.083  19.824  0.00  0.00    +0.000 A 
ATOM      9  C   UNL     1       1.338   9.113  19.038  0.00  0.00    +0.000 A 
ATOM     10  C   UNL     1       1.731   7.881  19.572  0.00  0.00    +0.000 A 
ATOM     11  C   UNL     1       1.413   7.678  20.938  0.00  0.00    +0.000 A 
ATOM     12  C   UNL     1       0.732   8.655  21.730  0.00  0.00    +0.000 A 
BRANCH   7  14
ATOM     13  N   UNL     1      -1.082  11.949  21.231  0.00  0.00    +0.000 N 
ATOM     14  C   UNL     1      -0.349  10.988  21.929  0.00  0.00    +0.000 C 
ATOM     15  O   UNL     1      -0.210  11.044  23.145  0.00  0.00    +0.000 OA
ATOM     16  H   UNL     1      -1.290  11.826  20.251  0.00  0.00    +0.000 HD
BRANCH  13  17
ATOM     17  C   UNL     1      -1.829  12.986  21.956  0.00  0.00    +0.000 C 
BRANCH  17  18
ATOM     18  C   UNL     1      -3.294  12.626  22.238  0.00  0.00    +0.000 C 
BRANCH  18  20
ATOM     19  C   UNL     1      -4.172  12.628  24.437  0.00  0.00    +0.000 C 
ATOM     20  O   UNL     1      -3.398  11.913  23.478  0.00  0.00    +0.000 OA
ENDBRANCH  18  20
ENDBRANCH  17  18
ENDBRANCH  13  17
ENDBRANCH   7  14
ENDBRANCH   1  10
BRANCH   3  21
ATOM     21  C   UNL     1       4.807   5.127  16.398  0.00  0.00    +0.000 C 
BRANCH  21  22
ATOM     22  N   UNL     1       6.210   5.712  16.328  0.00  0.00    +0.000 N 
ATOM     23  C   UNL     1       7.282   4.716  16.528  0.00  0.00    +0.000 C 
ATOM     24  C   UNL     1       7.558   4.635  18.034  0.00  0.00    +0.000 C 
ATOM     25  C   UNL     1       7.525   6.104  18.281  0.00  0.00    +0.000 A 
ATOM     26  C   UNL     1       8.445   6.811  19.059  0.00  0.00    +0.000 A 
ATOM     27  C   UNL     1       8.658   8.146  18.779  0.00  0.00    +0.000 A 
ATOM     28  C   UNL     1       7.895   8.761  17.774  0.00  0.00    +0.000 A 
ATOM     29  C   UNL     1       6.893   8.045  17.062  0.00  0.00    +0.000 A 
ATOM     30  C   UNL     1       6.695   6.689  17.303  0.00  0.00    +0.000 A 
ENDBRANCH  21  22
ENDBRANCH   3  21
TORSDOF 7
ENDMDL
MODEL 9
REMARK VINA RESULT:      -7.4      6.571     10.146
REMARK  Name = 
REMARK  9 active torsions:
REMARK  status: ('A' for Active; 'I' for Inactive)
REMARK    1  A    between atoms: C_1  and  O_2
REMARK    2  A    between atoms: O_2  and  C_3
REMARK    3  A    between atoms: C_3  and  C_4
REMARK    4  A    between atoms: C_4  and  N_5
REMARK    5  A    between atoms: C_6  and  C_8
REMARK    6  A    between atoms: C_11  and  C_12
REMARK    7  A    between atoms: C_14  and  C_15
REMARK    8  A    between atoms: C_15  and  N_16
REMARK    9  A    between atoms: C_25  and  C_26
REMARK                            x       y       z     vdW  Elec       q    Type
REMARK                         _______ _______ _______ _____ _____    ______ ____
ROOT
ATOM      1  C   UNL     1       0.947   9.024  20.286  0.00  0.00    +0.000 A 
ATOM      2  N   UNL     1       0.303  10.132  19.911  0.00  0.00    +0.000 NA
ATOM      3  C   UNL     1      -0.366  10.609  21.071  0.00  0.00    +0.000 A 
ATOM      4  C   UNL     1      -0.002   9.763  22.116  0.00  0.00    +0.000 A 
ATOM      5  C   UNL     1      -0.220   9.647  23.573  0.00  0.00    +0.000 C 
ATOM      6  O   UNL     1       0.798   8.768  21.620  0.00  0.00    +0.000 OA
ENDROOT
BRANCH   1  10
ATOM      7  C   UNL     1       3.456   6.076  18.176  0.00  0.00    +0.000 A 
ATOM      8  C   UNL     1       2.940   5.847  19.461  0.00  0.00    +0.000 A 
ATOM      9  C   UNL     1       2.127   6.794  20.142  0.00  0.00    +0.000 A 
ATOM     10  C   UNL     1       1.801   8.027  19.568  0.00  0.00    +0.000 A 
ATOM     11  C   UNL     1       2.340   8.263  18.279  0.00  0.00    +0.000 A 
ATOM     12  C   UNL     1       3.160   7.312  17.595  0.00  0.00    +0.000 A 
BRANCH   7  14
ATOM     13  N   UNL     1       4.836   5.202  16.268  0.00  0.00    +0.000 N 
ATOM     14  C   UNL     1       4.352   5.025  17.565  0.00  0.00    +0.000 C 
ATOM     15  O   UNL     1       4.608   4.019  18.215  0.00  0.00    +0.000 OA
ATOM     16  H   UNL     1       4.719   6.083  15.790  0.00  0.00    +0.000 HD
BRANCH  13  17
ATOM     17  C   UNL     1       5.787   4.242  15.691  0.00  0.00    +0.000 C 
BRANCH  17  18
ATOM     18  C   UNL     1       7.261   4.583  15.948  0.00  0.00    +0.000 C 
BRANCH  18  20
ATOM     19  C   UNL     1       7.554   6.521  17.276  0.00  0.00    +0.000 C 
ATOM     20  O   UNL     1       7.446   6.005  15.952  0.00  0.00    +0.000 OA
ENDBRANCH  18  20
ENDBRANCH  17  18
ENDBRANCH  13  17
ENDBRANCH   7  14
ENDBRANCH   1  10
BRANCH   3  21
ATOM     21  C   UNL     1      -1.296  11.911  21.134  0.00  0.00    +0.000 C 
BRANCH  21  22
ATOM     22  N   UNL     1      -1.944  12.561  19.921  0.00  0.00    +0.000 N 
ATOM     23  C   UNL     1      -2.977  13.561  20.261  0.00  0.00    +0.000 C 
ATOM     24  C   UNL     1      -4.312  12.817  20.382  0.00  0.00    +0.000 C 
ATOM     25  C   UNL     1      -4.131  11.966  19.173  0.00  0.00    +0.000 A 
ATOM     26  C   UNL     1      -5.108  11.724  18.205  0.00  0.00    +0.000 A 
ATOM     27  C   UNL     1      -4.704  11.421  16.920  0.00  0.00    +0.000 A 
ATOM     28  C   UNL     1      -3.332  11.298  16.649  0.00  0.00    +0.000 A 
ATOM     29  C   UNL     1      -2.358  11.452  17.675  0.00  0.00    +0.000 A 
ATOM     30  C   UNL     1      -2.746  11.798  18.965  0.00  0.00    +0.000 A 
ENDBRANCH  21  22
ENDBRANCH   3  21
TORSDOF 7
ENDMDL
