MODEL 1
REMARK VINA RESULT:      -6.5      0.000      0.000
REMARK  Name = 
REMARK  7 active torsions:
REMARK  status: ('A' for Active; 'I' for Inactive)
REMARK    1  A    between atoms: C_1  and  C_2
REMARK    2  A    between atoms: C_2  and  C_3
REMARK    3  A    between atoms: C_6  and  C_7
REMARK    4  A    between atoms: C_11  and  C_12
REMARK    5  A    between atoms: N_14  and  C_15
REMARK    6  A    between atoms: C_21  and  C_22
REMARK    7  A    between atoms: C_29  and  C_30
REMARK                            x       y       z     vdW  Elec       q    Type
REMARK                         _______ _______ _______ _____ _____    ______ ____
ROOT
ATOM      1  C   UNL     1      -2.396  13.616  20.752  0.00  0.00    +0.000 A 
ATOM      2  N   UNL     1      -2.658  12.832  19.676  0.00  0.00    +0.000 NA
ATOM      3  C   UNL     1      -3.917  12.340  19.594  0.00  0.00    +0.000 A 
ATOM      4  C   UNL     1      -4.960  12.594  20.492  0.00  0.00    +0.000 A 
ATOM      5  C   UNL     1      -6.076  11.911  19.914  0.00  0.00    +0.000 A 
ATOM      6  C   UNL     1      -7.498  11.806  20.333  0.00  0.00    +0.000 C 
ATOM      7  N   UNL     1      -5.743  11.236  18.816  0.00  0.00    +0.000 NA
ATOM      8  N   UNL     1      -4.429  11.495  18.605  0.00  0.00    +0.000 N 
ATOM      9  C   UNL     1      -4.675  13.400  21.636  0.00  0.00    +0.000 A 
ATOM     10  C   UNL     1      -3.337  13.869  21.761  0.00  0.00    +0.000 A 
ENDROOT
BRANCH   9  11
ATOM     11  C   UNL     1      -5.747  13.730  22.608  0.00  0.00    +0.000 A 
ATOM     12  C   UNL     1      -6.110  12.843  23.635  0.00  0.00    +0.000 A 
ATOM     13  C   UNL     1      -7.221  13.087  24.452  0.00  0.00    +0.000 A 
ATOM     14  C   UNL     1      -7.916  14.288  24.352  0.00  0.00    +0.000 A 
ATOM     15  C   UNL     1      -7.511  15.235  23.419  0.00  0.00    +0.000 A 
ATOM     16  C   UNL     1      -6.472  14.936  22.538  0.00  0.00    +0.000 A 
ATOM     17  F   UNL     1      -6.191  15.837  21.584  0.00  0.00    +0.000 F 
ENDBRANCH   9  11
BRANCH   1  21
ATOM     18  C   UNL     1       1.649  15.204  20.658  0.00  0.00    +0.000 A 
ATOM     19  C   UNL     1       1.391  13.948  21.209  0.00  0.00    +0.000 A 
ATOM     20  C   UNL     1       0.082  13.458  21.285  0.00  0.00    +0.000 A 
ATOM     21  C   UNL     1      -1.010  14.173  20.754  0.00  0.00    +0.000 A 
ATOM     22  C   UNL     1      -0.735  15.446  20.223  0.00  0.00    +0.000 A 
ATOM     23  C   UNL     1       0.572  15.954  20.174  0.00  0.00    +0.000 A 
BRANCH  18  25
ATOM     24  C   UNL     1       3.988  14.814  19.806  0.00  0.00    +0.000 C 
ATOM     25  C   UNL     1       3.062  15.729  20.592  0.00  0.00    +0.000 C 
ENDBRANCH  18  25
ENDBRANCH   1  21
BRANCH   8  26
ATOM     26  C   UNL     1      -3.800  10.896  17.468  0.00  0.00    +0.000 A 
ATOM     27  C   UNL     1      -4.240  11.250  16.177  0.00  0.00    +0.000 A 
ATOM     28  C   UNL     1      -3.645  10.709  15.038  0.00  0.00    +0.000 A 
ATOM     29  C   UNL     1      -2.613   9.787  15.173  0.00  0.00    +0.000 A 
ATOM     30  C   UNL     1      -2.172   9.420  16.442  0.00  0.00    +0.000 A 
ATOM     31  C   UNL     1      -2.760   9.975  17.585  0.00  0.00    +0.000 A 
ENDBRANCH   8  26
BRANCH  10  32
ATOM     32  C   UNL     1      -2.923  14.554  22.959  0.00  0.00    +0.000 C 
ATOM     33  N   UNL     1      -2.585  15.119  23.915  0.00  0.00    +0.000 NA
ENDBRANCH  10  32
TORSDOF 5
ENDMDL
MODEL 2
REMARK VINA RESULT:      -6.4      2.104      3.115
REMARK  Name = 
REMARK  7 active torsions:
REMARK  status: ('A' for Active; 'I' for Inactive)
REMARK    1  A    between atoms: C_1  and  C_2
REMARK    2  A    between atoms: C_2  and  C_3
REMARK    3  A    between atoms: C_6  and  C_7
REMARK    4  A    between atoms: C_11  and  C_12
REMARK    5  A    between atoms: N_14  and  C_15
REMARK    6  A    between atoms: C_21  and  C_22
REMARK    7  A    between atoms: C_29  and  C_30
REMARK                            x       y       z     vdW  Elec       q    Type
REMARK                         _______ _______ _______ _____ _____    ______ ____
ROOT
ATOM      1  C   UNL     1      -0.242  13.910  19.812  0.00  0.00    +0.000 A 
ATOM      2  N   UNL     1      -0.994  13.105  19.019  0.00  0.00    +0.000 NA
ATOM      3  C   UNL     1      -2.245  12.837  19.463  0.00  0.00    +0.000 A 
ATOM      4  C   UNL     1      -2.827  13.334  20.634  0.00  0.00    +0.000 A 
ATOM      5  C   UNL     1      -4.160  12.816  20.595  0.00  0.00    +0.000 A 
ATOM      6  C   UNL     1      -5.319  12.992  21.507  0.00  0.00    +0.000 C 
ATOM      7  N   UNL     1      -4.359  12.014  19.551  0.00  0.00    +0.000 NA
ATOM      8  N   UNL     1      -3.201  12.023  18.847  0.00  0.00    +0.000 N 
ATOM      9  C   UNL     1      -2.026  14.161  21.479  0.00  0.00    +0.000 A 
ATOM     10  C   UNL     1      -0.690  14.397  21.050  0.00  0.00    +0.000 A 
ENDROOT
BRANCH   9  11
ATOM     11  C   UNL     1      -2.597  14.745  22.719  0.00  0.00    +0.000 A 
ATOM     12  C   UNL     1      -3.055  16.071  22.765  0.00  0.00    +0.000 A 
ATOM     13  C   UNL     1      -3.448  16.667  23.971  0.00  0.00    +0.000 A 
ATOM     14  C   UNL     1      -3.520  15.910  25.137  0.00  0.00    +0.000 A 
ATOM     15  C   UNL     1      -3.178  14.564  25.099  0.00  0.00    +0.000 A 
ATOM     16  C   UNL     1      -2.685  14.010  23.917  0.00  0.00    +0.000 A 
ATOM     17  F   UNL     1      -2.266  12.736  23.960  0.00  0.00    +0.000 F 
ENDBRANCH   9  11
BRANCH   1  21
ATOM     18  C   UNL     1       3.711  14.809  18.246  0.00  0.00    +0.000 A 
ATOM     19  C   UNL     1       2.722  15.793  18.287  0.00  0.00    +0.000 A 
ATOM     20  C   UNL     1       1.434  15.490  18.744  0.00  0.00    +0.000 A 
ATOM     21  C   UNL     1       1.103  14.214  19.240  0.00  0.00    +0.000 A 
ATOM     22  C   UNL     1       2.105  13.229  19.170  0.00  0.00    +0.000 A 
ATOM     23  C   UNL     1       3.389  13.520  18.683  0.00  0.00    +0.000 A 
BRANCH  18  25
ATOM     24  C   UNL     1       6.138  15.127  18.843  0.00  0.00    +0.000 C 
ATOM     25  C   UNL     1       5.092  15.141  17.739  0.00  0.00    +0.000 C 
ENDBRANCH  18  25
ENDBRANCH   1  21
BRANCH   8  26
ATOM     26  C   UNL     1      -3.134  11.240  17.652  0.00  0.00    +0.000 A 
ATOM     27  C   UNL     1      -4.021  11.528  16.595  0.00  0.00    +0.000 A 
ATOM     28  C   UNL     1      -3.981  10.807  15.403  0.00  0.00    +0.000 A 
ATOM     29  C   UNL     1      -3.066   9.770  15.255  0.00  0.00    +0.000 A 
ATOM     30  C   UNL     1      -2.188   9.467  16.293  0.00  0.00    +0.000 A 
ATOM     31  C   UNL     1      -2.218  10.202  17.485  0.00  0.00    +0.000 A 
ENDBRANCH   8  26
BRANCH  10  32
ATOM     32  C   UNL     1       0.234  15.086  21.914  0.00  0.00    +0.000 C 
ATOM     33  N   UNL     1       0.978  15.630  22.620  0.00  0.00    +0.000 NA
ENDBRANCH  10  32
TORSDOF 5
ENDMDL
MODEL 3
REMARK VINA RESULT:      -6.4      3.054      5.799
REMARK  Name = 
REMARK  7 active torsions:
REMARK  status: ('A' for Active; 'I' for Inactive)
REMARK    1  A    between atoms: C_1  and  C_2
REMARK    2  A    between atoms: C_2  and  C_3
REMARK    3  A    between atoms: C_6  and  C_7
REMARK    4  A    between atoms: C_11  and  C_12
REMARK    5  A    between atoms: N_14  and  C_15
REMARK    6  A    between atoms: C_21  and  C_22
REMARK    7  A    between atoms: C_29  and  C_30
REMARK                            x       y       z     vdW  Elec       q    Type
REMARK                         _______ _______ _______ _____ _____    ______ ____
ROOT
ATOM      1  C   UNL     1      -0.651  12.204  20.284  0.00  0.00    +0.000 A 
ATOM      2  N   UNL     1      -1.996  12.103  20.141  0.00  0.00    +0.000 NA
ATOM      3  C   UNL     1      -2.707  13.221  20.422  0.00  0.00    +0.000 A 
ATOM      4  C   UNL     1      -2.179  14.457  20.809  0.00  0.00    +0.000 A 
ATOM      5  C   UNL     1      -3.330  15.301  20.904  0.00  0.00    +0.000 A 
ATOM      6  C   UNL     1      -3.477  16.744  21.228  0.00  0.00    +0.000 C 
ATOM      7  N   UNL     1      -4.462  14.639  20.679  0.00  0.00    +0.000 NA
ATOM      8  N   UNL     1      -4.097  13.369  20.375  0.00  0.00    +0.000 N 
ATOM      9  C   UNL     1      -0.765  14.554  20.983  0.00  0.00    +0.000 A 
ATOM     10  C   UNL     1      -0.017  13.366  20.750  0.00  0.00    +0.000 A 
ENDROOT
BRANCH   9  11
ATOM     11  C   UNL     1      -0.141  15.847  21.363  0.00  0.00    +0.000 A 
ATOM     12  C   UNL     1      -0.004  16.232  22.706  0.00  0.00    +0.000 A 
ATOM     13  C   UNL     1       0.441  17.513  23.057  0.00  0.00    +0.000 A 
ATOM     14  C   UNL     1       0.887  18.394  22.077  0.00  0.00    +0.000 A 
ATOM     15  C   UNL     1       0.867  18.000  20.744  0.00  0.00    +0.000 A 
ATOM     16  C   UNL     1       0.321  16.764  20.399  0.00  0.00    +0.000 A 
ATOM     17  F   UNL     1       0.224  16.475  19.092  0.00  0.00    +0.000 F 
ENDBRANCH   9  11
BRANCH   1  21
ATOM     18  C   UNL     1       1.564   8.621  19.216  0.00  0.00    +0.000 A 
ATOM     19  C   UNL     1       1.258   9.581  18.251  0.00  0.00    +0.000 A 
ATOM     20  C   UNL     1       0.502  10.710  18.584  0.00  0.00    +0.000 A 
ATOM     21  C   UNL     1       0.079  10.958  19.905  0.00  0.00    +0.000 A 
ATOM     22  C   UNL     1       0.377   9.969  20.860  0.00  0.00    +0.000 A 
ATOM     23  C   UNL     1       1.109   8.819  20.523  0.00  0.00    +0.000 A 
BRANCH  18  25
ATOM     24  C   UNL     1       3.295   7.649  17.663  0.00  0.00    +0.000 C 
ATOM     25  C   UNL     1       2.369   7.400  18.844  0.00  0.00    +0.000 C 
ENDBRANCH  18  25
ENDBRANCH   1  21
BRANCH   8  26
ATOM     26  C   UNL     1      -5.130  12.426  20.075  0.00  0.00    +0.000 A 
ATOM     27  C   UNL     1      -5.119  11.773  18.826  0.00  0.00    +0.000 A 
ATOM     28  C   UNL     1      -6.091  10.832  18.495  0.00  0.00    +0.000 A 
ATOM     29  C   UNL     1      -7.106  10.542  19.401  0.00  0.00    +0.000 A 
ATOM     30  C   UNL     1      -7.137  11.184  20.637  0.00  0.00    +0.000 A 
ATOM     31  C   UNL     1      -6.150  12.119  20.974  0.00  0.00    +0.000 A 
ENDBRANCH   8  26
BRANCH  10  32
ATOM     32  C   UNL     1       1.391  13.331  21.052  0.00  0.00    +0.000 C 
ATOM     33  N   UNL     1       2.525  13.316  21.303  0.00  0.00    +0.000 NA
ENDBRANCH  10  32
TORSDOF 5
ENDMDL
MODEL 4
REMARK VINA RESULT:      -6.4      0.128      1.189
REMARK  Name = 
REMARK  7 active torsions:
REMARK  status: ('A' for Active; 'I' for Inactive)
REMARK    1  A    between atoms: C_1  and  C_2
REMARK    2  A    between atoms: C_2  and  C_3
REMARK    3  A    between atoms: C_6  and  C_7
REMARK    4  A    between atoms: C_11  and  C_12
REMARK    5  A    between atoms: N_14  and  C_15
REMARK    6  A    between atoms: C_21  and  C_22
REMARK    7  A    between atoms: C_29  and  C_30
REMARK                            x       y       z     vdW  Elec       q    Type
REMARK                         _______ _______ _______ _____ _____    ______ ____
ROOT
ATOM      1  C   UNL     1      -2.402  13.641  20.750  0.00  0.00    +0.000 A 
ATOM      2  N   UNL     1      -2.670  12.870  19.666  0.00  0.00    +0.000 NA
ATOM      3  C   UNL     1      -3.933  12.389  19.580  0.00  0.00    +0.000 A 
ATOM      4  C   UNL     1      -4.974  12.641  20.480  0.00  0.00    +0.000 A 
ATOM      5  C   UNL     1      -6.095  11.973  19.896  0.00  0.00    +0.000 A 
ATOM      6  C   UNL     1      -7.518  11.874  20.314  0.00  0.00    +0.000 C 
ATOM      7  N   UNL     1      -5.767  11.307  18.791  0.00  0.00    +0.000 NA
ATOM      8  N   UNL     1      -4.452  11.558  18.581  0.00  0.00    +0.000 N 
ATOM      9  C   UNL     1      -4.682  13.432  21.633  0.00  0.00    +0.000 A 
ATOM     10  C   UNL     1      -3.340  13.889  21.763  0.00  0.00    +0.000 A 
ENDROOT
BRANCH   9  11
ATOM     11  C   UNL     1      -5.751  13.761  22.609  0.00  0.00    +0.000 A 
ATOM     12  C   UNL     1      -6.143  12.853  23.606  0.00  0.00    +0.000 A 
ATOM     13  C   UNL     1      -7.252  13.101  24.425  0.00  0.00    +0.000 A 
ATOM     14  C   UNL     1      -7.916  14.322  24.357  0.00  0.00    +0.000 A 
ATOM     15  C   UNL     1      -7.481  15.286  23.456  0.00  0.00    +0.000 A 
ATOM     16  C   UNL     1      -6.445  14.986  22.571  0.00  0.00    +0.000 A 
ATOM     17  F   UNL     1      -6.135  15.909  21.648  0.00  0.00    +0.000 F 
ENDBRANCH   9  11
BRANCH   1  21
ATOM     18  C   UNL     1       1.630  15.258  20.874  0.00  0.00    +0.000 A 
ATOM     19  C   UNL     1       0.584  15.999  20.323  0.00  0.00    +0.000 A 
ATOM     20  C   UNL     1      -0.704  15.459  20.238  0.00  0.00    +0.000 A 
ATOM     21  C   UNL     1      -1.012  14.186  20.758  0.00  0.00    +0.000 A 
ATOM     22  C   UNL     1       0.060  13.444  21.288  0.00  0.00    +0.000 A 
ATOM     23  C   UNL     1       1.359  13.970  21.347  0.00  0.00    +0.000 A 
BRANCH  18  25
ATOM     24  C   UNL     1       4.024  15.072  20.109  0.00  0.00    +0.000 C 
ATOM     25  C   UNL     1       3.018  15.844  20.950  0.00  0.00    +0.000 C 
ENDBRANCH  18  25
ENDBRANCH   1  21
BRANCH   8  26
ATOM     26  C   UNL     1      -3.828  10.966  17.438  0.00  0.00    +0.000 A 
ATOM     27  C   UNL     1      -2.727  10.108  17.626  0.00  0.00    +0.000 A 
ATOM     28  C   UNL     1      -2.099   9.492  16.546  0.00  0.00    +0.000 A 
ATOM     29  C   UNL     1      -2.550   9.740  15.254  0.00  0.00    +0.000 A 
ATOM     30  C   UNL     1      -3.633  10.592  15.049  0.00  0.00    +0.000 A 
ATOM     31  C   UNL     1      -4.273  11.199  16.137  0.00  0.00    +0.000 A 
ENDBRANCH   8  26
BRANCH  10  32
ATOM     32  C   UNL     1      -2.921  14.559  22.967  0.00  0.00    +0.000 C 
ATOM     33  N   UNL     1      -2.585  15.112  23.931  0.00  0.00    +0.000 NA
ENDBRANCH  10  32
TORSDOF 5
ENDMDL
MODEL 5
REMARK VINA RESULT:      -6.3      3.048      5.854
REMARK  Name = 
REMARK  7 active torsions:
REMARK  status: ('A' for Active; 'I' for Inactive)
REMARK    1  A    between atoms: C_1  and  C_2
REMARK    2  A    between atoms: C_2  and  C_3
REMARK    3  A    between atoms: C_6  and  C_7
REMARK    4  A    between atoms: C_11  and  C_12
REMARK    5  A    between atoms: N_14  and  C_15
REMARK    6  A    between atoms: C_21  and  C_22
REMARK    7  A    between atoms: C_29  and  C_30
REMARK                            x       y       z     vdW  Elec       q    Type
REMARK                         _______ _______ _______ _____ _____    ______ ____
ROOT
ATOM      1  C   UNL     1      -0.605  12.220  20.235  0.00  0.00    +0.000 A 
ATOM      2  N   UNL     1      -1.948  12.108  20.078  0.00  0.00    +0.000 NA
ATOM      3  C   UNL     1      -2.676  13.201  20.411  0.00  0.00    +0.000 A 
ATOM      4  C   UNL     1      -2.167  14.423  20.865  0.00  0.00    +0.000 A 
ATOM      5  C   UNL     1      -3.329  15.245  20.995  0.00  0.00    +0.000 A 
ATOM      6  C   UNL     1      -3.498  16.667  21.392  0.00  0.00    +0.000 C 
ATOM      7  N   UNL     1      -4.452  14.580  20.728  0.00  0.00    +0.000 NA
ATOM      8  N   UNL     1      -4.067  13.333  20.363  0.00  0.00    +0.000 N 
ATOM      9  C   UNL     1      -0.755  14.529  21.053  0.00  0.00    +0.000 A 
ATOM     10  C   UNL     1       0.011  13.364  20.765  0.00  0.00    +0.000 A 
ENDROOT
BRANCH   9  11
ATOM     11  C   UNL     1      -0.151  15.809  21.503  0.00  0.00    +0.000 A 
ATOM     12  C   UNL     1       0.354  16.747  20.588  0.00  0.00    +0.000 A 
ATOM     13  C   UNL     1       1.060  17.878  21.017  0.00  0.00    +0.000 A 
ATOM     14  C   UNL     1       1.163  18.169  22.374  0.00  0.00    +0.000 A 
ATOM     15  C   UNL     1       0.576  17.316  23.301  0.00  0.00    +0.000 A 
ATOM     16  C   UNL     1      -0.030  16.137  22.867  0.00  0.00    +0.000 A 
ATOM     17  F   UNL     1      -0.485  15.294  23.807  0.00  0.00    +0.000 F 
ENDBRANCH   9  11
BRANCH   1  21
ATOM     18  C   UNL     1       1.664   8.724  19.006  0.00  0.00    +0.000 A 
ATOM     19  C   UNL     1       1.410   9.758  18.104  0.00  0.00    +0.000 A 
ATOM     20  C   UNL     1       0.637  10.861  18.486  0.00  0.00    +0.000 A 
ATOM     21  C   UNL     1       0.145  11.004  19.798  0.00  0.00    +0.000 A 
ATOM     22  C   UNL     1       0.391   9.941  20.686  0.00  0.00    +0.000 A 
ATOM     23  C   UNL     1       1.140   8.819  20.298  0.00  0.00    +0.000 A 
BRANCH  18  25
ATOM     24  C   UNL     1       2.466   6.412  19.610  0.00  0.00    +0.000 C 
ATOM     25  C   UNL     1       2.488   7.533  18.581  0.00  0.00    +0.000 C 
ENDBRANCH  18  25
ENDBRANCH   1  21
BRANCH   8  26
ATOM     26  C   UNL     1      -5.085  12.393  20.007  0.00  0.00    +0.000 A 
ATOM     27  C   UNL     1      -6.113  12.115  20.930  0.00  0.00    +0.000 A 
ATOM     28  C   UNL     1      -7.138  11.222  20.622  0.00  0.00    +0.000 A 
ATOM     29  C   UNL     1      -7.141  10.576  19.391  0.00  0.00    +0.000 A 
ATOM     30  C   UNL     1      -6.128  10.833  18.470  0.00  0.00    +0.000 A 
ATOM     31  C   UNL     1      -5.107  11.741  18.774  0.00  0.00    +0.000 A 
ENDBRANCH   8  26
BRANCH  10  32
ATOM     32  C   UNL     1       1.417  13.332  21.074  0.00  0.00    +0.000 C 
ATOM     33  N   UNL     1       2.554  13.304  21.308  0.00  0.00    +0.000 NA
ENDBRANCH  10  32
TORSDOF 5
ENDMDL
MODEL 6
REMARK VINA RESULT:      -6.3      1.970      2.915
REMARK  Name = 
REMARK  7 active torsions:
REMARK  status: ('A' for Active; 'I' for Inactive)
REMARK    1  A    between atoms: C_1  and  C_2
REMARK    2  A    between atoms: C_2  and  C_3
REMARK    3  A    between atoms: C_6  and  C_7
REMARK    4  A    between atoms: C_11  and  C_12
REMARK    5  A    between atoms: N_14  and  C_15
REMARK    6  A    between atoms: C_21  and  C_22
REMARK    7  A    between atoms: C_29  and  C_30
REMARK                            x       y       z     vdW  Elec       q    Type
REMARK                         _______ _______ _______ _____ _____    ______ ____
ROOT
ATOM      1  C   UNL     1      -0.128  14.184  20.032  0.00  0.00    +0.000 A 
ATOM      2  N   UNL     1      -0.876  13.339  19.279  0.00  0.00    +0.000 NA
ATOM      3  C   UNL     1      -2.107  13.048  19.761  0.00  0.00    +0.000 A 
ATOM      4  C   UNL     1      -2.675  13.560  20.932  0.00  0.00    +0.000 A 
ATOM      5  C   UNL     1      -3.993  13.005  20.940  0.00  0.00    +0.000 A 
ATOM      6  C   UNL     1      -5.134  13.172  21.877  0.00  0.00    +0.000 C 
ATOM      7  N   UNL     1      -4.195  12.169  19.923  0.00  0.00    +0.000 NA
ATOM      8  N   UNL     1      -3.055  12.192  19.190  0.00  0.00    +0.000 N 
ATOM      9  C   UNL     1      -1.877  14.430  21.736  0.00  0.00    +0.000 A 
ATOM     10  C   UNL     1      -0.558  14.691  21.267  0.00  0.00    +0.000 A 
ENDROOT
BRANCH   9  11
ATOM     11  C   UNL     1      -2.434  15.030  22.974  0.00  0.00    +0.000 A 
ATOM     12  C   UNL     1      -2.312  14.395  24.221  0.00  0.00    +0.000 A 
ATOM     13  C   UNL     1      -2.968  14.884  25.357  0.00  0.00    +0.000 A 
ATOM     14  C   UNL     1      -3.654  16.093  25.306  0.00  0.00    +0.000 A 
ATOM     15  C   UNL     1      -3.699  16.802  24.112  0.00  0.00    +0.000 A 
ATOM     16  C   UNL     1      -3.134  16.252  22.961  0.00  0.00    +0.000 A 
ATOM     17  F   UNL     1      -3.298  16.923  21.810  0.00  0.00    +0.000 F 
ENDBRANCH   9  11
BRANCH   1  21
ATOM     18  C   UNL     1       3.681  15.105  18.152  0.00  0.00    +0.000 A 
ATOM     19  C   UNL     1       3.481  13.879  18.790  0.00  0.00    +0.000 A 
ATOM     20  C   UNL     1       2.272  13.603  19.438  0.00  0.00    +0.000 A 
ATOM     21  C   UNL     1       1.194  14.510  19.419  0.00  0.00    +0.000 A 
ATOM     22  C   UNL     1       1.422  15.749  18.792  0.00  0.00    +0.000 A 
ATOM     23  C   UNL     1       2.644  16.042  18.168  0.00  0.00    +0.000 A 
BRANCH  18  25
ATOM     24  C   UNL     1       6.092  14.429  17.871  0.00  0.00    +0.000 C 
ATOM     25  C   UNL     1       4.992  15.399  17.467  0.00  0.00    +0.000 C 
ENDBRANCH  18  25
ENDBRANCH   1  21
BRANCH   8  26
ATOM     26  C   UNL     1      -2.995  11.380  18.013  0.00  0.00    +0.000 A 
ATOM     27  C   UNL     1      -3.977  11.547  17.016  0.00  0.00    +0.000 A 
ATOM     28  C   UNL     1      -3.950  10.795  15.844  0.00  0.00    +0.000 A 
ATOM     29  C   UNL     1      -2.951   9.846  15.657  0.00  0.00    +0.000 A 
ATOM     30  C   UNL     1      -1.977   9.662  16.637  0.00  0.00    +0.000 A 
ATOM     31  C   UNL     1      -1.997  10.429  17.808  0.00  0.00    +0.000 A 
ENDBRANCH   8  26
BRANCH  10  32
ATOM     32  C   UNL     1       0.366  15.428  22.090  0.00  0.00    +0.000 C 
ATOM     33  N   UNL     1       1.115  16.031  22.741  0.00  0.00    +0.000 NA
ENDBRANCH  10  32
TORSDOF 5
ENDMDL
MODEL 7
REMARK VINA RESULT:      -6.2      3.835      5.690
REMARK  Name = 
REMARK  7 active torsions:
REMARK  status: ('A' for Active; 'I' for Inactive)
REMARK    1  A    between atoms: C_1  and  C_2
REMARK    2  A    between atoms: C_2  and  C_3
REMARK    3  A    between atoms: C_6  and  C_7
REMARK    4  A    between atoms: C_11  and  C_12
REMARK    5  A    between atoms: N_14  and  C_15
REMARK    6  A    between atoms: C_21  and  C_22
REMARK    7  A    between atoms: C_29  and  C_30
REMARK                            x       y       z     vdW  Elec       q    Type
REMARK                         _______ _______ _______ _____ _____    ______ ____
ROOT
ATOM      1  C   UNL     1       2.563  14.286  19.640  0.00  0.00    +0.000 A 
ATOM      2  N   UNL     1       2.267  12.968  19.503  0.00  0.00    +0.000 NA
ATOM      3  C   UNL     1       0.966  12.633  19.668  0.00  0.00    +0.000 A 
ATOM      4  C   UNL     1      -0.086  13.518  19.931  0.00  0.00    +0.000 A 
ATOM      5  C   UNL     1      -1.242  12.676  19.937  0.00  0.00    +0.000 A 
ATOM      6  C   UNL     1      -2.686  12.977  20.115  0.00  0.00    +0.000 C 
ATOM      7  N   UNL     1      -0.932  11.391  19.776  0.00  0.00    +0.000 NA
ATOM      8  N   UNL     1       0.411  11.351  19.603  0.00  0.00    +0.000 N 
ATOM      9  C   UNL     1       0.231  14.900  20.099  0.00  0.00    +0.000 A 
ATOM     10  C   UNL     1       1.606  15.251  19.989  0.00  0.00    +0.000 A 
ENDROOT
BRANCH   9  11
ATOM     11  C   UNL     1      -0.844  15.893  20.349  0.00  0.00    +0.000 A 
ATOM     12  C   UNL     1      -1.436  16.035  21.615  0.00  0.00    +0.000 A 
ATOM     13  C   UNL     1      -2.551  16.859  21.811  0.00  0.00    +0.000 A 
ATOM     14  C   UNL     1      -3.020  17.664  20.778  0.00  0.00    +0.000 A 
ATOM     15  C   UNL     1      -2.385  17.627  19.542  0.00  0.00    +0.000 A 
ATOM     16  C   UNL     1      -1.345  16.723  19.328  0.00  0.00    +0.000 A 
ATOM     17  F   UNL     1      -0.837  16.649  18.088  0.00  0.00    +0.000 F 
ENDBRANCH   9  11
BRANCH   1  21
ATOM     18  C   UNL     1       6.769  15.091  18.904  0.00  0.00    +0.000 A 
ATOM     19  C   UNL     1       6.267  15.069  20.206  0.00  0.00    +0.000 A 
ATOM     20  C   UNL     1       4.904  14.859  20.440  0.00  0.00    +0.000 A 
ATOM     21  C   UNL     1       4.001  14.598  19.390  0.00  0.00    +0.000 A 
ATOM     22  C   UNL     1       4.520  14.647  18.083  0.00  0.00    +0.000 A 
ATOM     23  C   UNL     1       5.882  14.888  17.843  0.00  0.00    +0.000 A 
BRANCH  18  25
ATOM     24  C   UNL     1       8.953  14.093  18.139  0.00  0.00    +0.000 C 
ATOM     25  C   UNL     1       8.239  15.330  18.661  0.00  0.00    +0.000 C 
ENDBRANCH  18  25
ENDBRANCH   1  21
BRANCH   8  26
ATOM     26  C   UNL     1       1.024  10.075  19.395  0.00  0.00    +0.000 A 
ATOM     27  C   UNL     1       1.533   9.759  18.119  0.00  0.00    +0.000 A 
ATOM     28  C   UNL     1       2.157   8.538  17.873  0.00  0.00    +0.000 A 
ATOM     29  C   UNL     1       2.264   7.601  18.895  0.00  0.00    +0.000 A 
ATOM     30  C   UNL     1       1.760   7.893  20.160  0.00  0.00    +0.000 A 
ATOM     31  C   UNL     1       1.147   9.127  20.411  0.00  0.00    +0.000 A 
ENDBRANCH   8  26
BRANCH  10  32
ATOM     32  C   UNL     1       2.034  16.591  20.297  0.00  0.00    +0.000 C 
ATOM     33  N   UNL     1       2.371  17.672  20.558  0.00  0.00    +0.000 NA
ENDBRANCH  10  32
TORSDOF 5
ENDMDL
MODEL 8
REMARK VINA RESULT:      -6.2      3.082      5.513
REMARK  Name = 
REMARK  7 active torsions:
REMARK  status: ('A' for Active; 'I' for Inactive)
REMARK    1  A    between atoms: C_1  and  C_2
REMARK    2  A    between atoms: C_2  and  C_3
REMARK    3  A    between atoms: C_6  and  C_7
REMARK    4  A    between atoms: C_11  and  C_12
REMARK    5  A    between atoms: N_14  and  C_15
REMARK    6  A    between atoms: C_21  and  C_22
REMARK    7  A    between atoms: C_29  and  C_30
REMARK                            x       y       z     vdW  Elec       q    Type
REMARK                         _______ _______ _______ _____ _____    ______ ____
ROOT
ATOM      1  C   UNL     1      -0.755  12.400  20.315  0.00  0.00    +0.000 A 
ATOM      2  N   UNL     1      -2.084  12.223  20.107  0.00  0.00    +0.000 NA
ATOM      3  C   UNL     1      -2.878  13.272  20.428  0.00  0.00    +0.000 A 
ATOM      4  C   UNL     1      -2.450  14.510  20.917  0.00  0.00    +0.000 A 
ATOM      5  C   UNL     1      -3.657  15.271  21.015  0.00  0.00    +0.000 A 
ATOM      6  C   UNL     1      -3.913  16.676  21.426  0.00  0.00    +0.000 C 
ATOM      7  N   UNL     1      -4.733  14.554  20.698  0.00  0.00    +0.000 NA
ATOM      8  N   UNL     1      -4.272  13.333  20.329  0.00  0.00    +0.000 N 
ATOM      9  C   UNL     1      -1.053  14.685  21.159  0.00  0.00    +0.000 A 
ATOM     10  C   UNL     1      -0.219  13.566  20.883  0.00  0.00    +0.000 A 
ENDROOT
BRANCH   9  11
ATOM     11  C   UNL     1      -0.533  15.987  21.649  0.00  0.00    +0.000 A 
ATOM     12  C   UNL     1      -0.502  16.300  23.017  0.00  0.00    +0.000 A 
ATOM     13  C   UNL     1      -0.157  17.581  23.466  0.00  0.00    +0.000 A 
ATOM     14  C   UNL     1       0.295  18.542  22.567  0.00  0.00    +0.000 A 
ATOM     15  C   UNL     1       0.381  18.225  21.216  0.00  0.00    +0.000 A 
ATOM     16  C   UNL     1      -0.068  16.983  20.769  0.00  0.00    +0.000 A 
ATOM     17  F   UNL     1      -0.066  16.766  19.444  0.00  0.00    +0.000 F 
ENDBRANCH   9  11
BRANCH   1  21
ATOM     18  C   UNL     1       1.564   8.958  19.026  0.00  0.00    +0.000 A 
ATOM     19  C   UNL     1       1.025   9.010  20.313  0.00  0.00    +0.000 A 
ATOM     20  C   UNL     1       0.321  10.140  20.744  0.00  0.00    +0.000 A 
ATOM     21  C   UNL     1       0.071  11.231  19.889  0.00  0.00    +0.000 A 
ATOM     22  C   UNL     1       0.642  11.172  18.605  0.00  0.00    +0.000 A 
ATOM     23  C   UNL     1       1.375  10.054  18.178  0.00  0.00    +0.000 A 
BRANCH  18  25
ATOM     24  C   UNL     1       2.404   6.665  19.646  0.00  0.00    +0.000 C 
ATOM     25  C   UNL     1       2.333   7.741  18.574  0.00  0.00    +0.000 C 
ENDBRANCH  18  25
ENDBRANCH   1  21
BRANCH   8  26
ATOM     26  C   UNL     1      -5.227  12.349  19.923  0.00  0.00    +0.000 A 
ATOM     27  C   UNL     1      -5.129  11.791  18.633  0.00  0.00    +0.000 A 
ATOM     28  C   UNL     1      -6.022  10.814  18.199  0.00  0.00    +0.000 A 
ATOM     29  C   UNL     1      -7.045  10.392  19.042  0.00  0.00    +0.000 A 
ATOM     30  C   UNL     1      -7.162  10.940  20.318  0.00  0.00    +0.000 A 
ATOM     31  C   UNL     1      -6.254  11.910  20.758  0.00  0.00    +0.000 A 
ENDBRANCH   8  26
BRANCH  10  32
ATOM     32  C   UNL     1       1.175  13.600  21.244  0.00  0.00    +0.000 C 
ATOM     33  N   UNL     1       2.300  13.613  21.532  0.00  0.00    +0.000 NA
ENDBRANCH  10  32
TORSDOF 5
ENDMDL
MODEL 9
REMARK VINA RESULT:      -6.1      3.084      6.153
REMARK  Name = 
REMARK  7 active torsions:
REMARK  status: ('A' for Active; 'I' for Inactive)
REMARK    1  A    between atoms: C_1  and  C_2
REMARK    2  A    between atoms: C_2  and  C_3
REMARK    3  A    between atoms: C_6  and  C_7
REMARK    4  A    between atoms: C_11  and  C_12
REMARK    5  A    between atoms: N_14  and  C_15
REMARK    6  A    between atoms: C_21  and  C_22
REMARK    7  A    between atoms: C_29  and  C_30
REMARK                            x       y       z     vdW  Elec       q    Type
REMARK                         _______ _______ _______ _____ _____    ______ ____
ROOT
ATOM      1  C   UNL     1      -1.061  12.334  20.900  0.00  0.00    +0.000 A 
ATOM      2  N   UNL     1      -2.418  12.309  20.888  0.00  0.00    +0.000 NA
ATOM      3  C   UNL     1      -3.032  13.516  20.864  0.00  0.00    +0.000 A 
ATOM      4  C   UNL     1      -2.397  14.762  20.820  0.00  0.00    +0.000 A 
ATOM      5  C   UNL     1      -3.481  15.691  20.733  0.00  0.00    +0.000 A 
ATOM      6  C   UNL     1      -3.511  17.172  20.613  0.00  0.00    +0.000 C 
ATOM      7  N   UNL     1      -4.668  15.090  20.799  0.00  0.00    +0.000 NA
ATOM      8  N   UNL     1      -4.409  13.762  20.872  0.00  0.00    +0.000 N 
ATOM      9  C   UNL     1      -0.970  14.786  20.857  0.00  0.00    +0.000 A 
ATOM     10  C   UNL     1      -0.319  13.523  20.945  0.00  0.00    +0.000 A 
ENDROOT
BRANCH   9  11
ATOM     11  C   UNL     1      -0.237  16.075  20.782  0.00  0.00    +0.000 A 
ATOM     12  C   UNL     1       0.143  16.775  21.938  0.00  0.00    +0.000 A 
ATOM     13  C   UNL     1       0.694  18.061  21.865  0.00  0.00    +0.000 A 
ATOM     14  C   UNL     1       1.003  18.624  20.631  0.00  0.00    +0.000 A 
ATOM     15  C   UNL     1       0.740  17.907  19.469  0.00  0.00    +0.000 A 
ATOM     16  C   UNL     1       0.092  16.675  19.551  0.00  0.00    +0.000 A 
ATOM     17  F   UNL     1      -0.238  16.073  18.397  0.00  0.00    +0.000 F 
ENDBRANCH   9  11
BRANCH   1  21
ATOM     18  C   UNL     1       0.819   8.416  20.850  0.00  0.00    +0.000 A 
ATOM     19  C   UNL     1       0.801   9.210  19.702  0.00  0.00    +0.000 A 
ATOM     20  C   UNL     1       0.152  10.450  19.704  0.00  0.00    +0.000 A 
ATOM     21  C   UNL     1      -0.446  10.974  20.868  0.00  0.00    +0.000 A 
ATOM     22  C   UNL     1      -0.438  10.150  22.008  0.00  0.00    +0.000 A 
ATOM     23  C   UNL     1       0.185   8.892  22.001  0.00  0.00    +0.000 A 
BRANCH  18  25
ATOM     24  C   UNL     1       2.452   6.917  19.650  0.00  0.00    +0.000 C 
ATOM     25  C   UNL     1       1.510   7.075  20.834  0.00  0.00    +0.000 C 
ENDBRANCH  18  25
ENDBRANCH   1  21
BRANCH   8  26
ATOM     26  C   UNL     1      -5.520  12.863  20.945  0.00  0.00    +0.000 A 
ATOM     27  C   UNL     1      -5.772  11.997  19.863  0.00  0.00    +0.000 A 
ATOM     28  C   UNL     1      -6.829  11.090  19.895  0.00  0.00    +0.000 A 
ATOM     29  C   UNL     1      -7.667  11.048  21.005  0.00  0.00    +0.000 A 
ATOM     30  C   UNL     1      -7.437  11.904  22.080  0.00  0.00    +0.000 A 
ATOM     31  C   UNL     1      -6.365  12.804  22.052  0.00  0.00    +0.000 A 
ENDBRANCH   8  26
BRANCH  10  32
ATOM     32  C   UNL     1       1.106  13.460  21.144  0.00  0.00    +0.000 C 
ATOM     33  N   UNL     1       2.257  13.402  21.291  0.00  0.00    +0.000 NA
ENDBRANCH  10  32
TORSDOF 5
ENDMDL
