MODEL 1
REMARK VINA RESULT:      -8.6      0.000      0.000
REMARK  Name = 
REMARK  8 active torsions:
REMARK  status: ('A' for Active; 'I' for Inactive)
REMARK    1  A    between atoms: C_1  and  C_2
REMARK    2  A    between atoms: C_2  and  C_3
REMARK    3  A    between atoms: C_7  and  C_8
REMARK    4  A    between atoms: C_8  and  N_9
REMARK    5  A    between atoms: C_12  and  N_13
REMARK    6  A    between atoms: N_16  and  C_17
REMARK    7  A    between atoms: C_21  and  C_22
REMARK    8  A    between atoms: C_22  and  N_23
REMARK                            x       y       z     vdW  Elec       q    Type
REMARK                         _______ _______ _______ _____ _____    ______ ____
ROOT
ATOM      1  N   UNL     1       7.912   7.471  18.021  0.00  0.00    +0.000 N 
ATOM      2  C   UNL     1       8.150   8.825  18.167  0.00  0.00    +0.000 C 
ATOM      3  O   UNL     1       7.540   9.648  17.474  0.00  0.00    +0.000 OA
ATOM      4  N   UNL     1       9.079   9.137  19.143  0.00  0.00    +0.000 N 
ATOM      5  H   UNL     1       8.533   6.804  18.451  0.00  0.00    +0.000 HD
ATOM      6  H   UNL     1       9.520   8.356  19.607  0.00  0.00    +0.000 HD
ENDROOT
BRANCH   1  10
ATOM      7  N   UNL     1       5.597   4.552  17.963  0.00  0.00    +0.000 NA
ATOM      8  C   UNL     1       5.128   5.891  18.323  0.00  0.00    +0.000 C 
ATOM      9  C   UNL     1       5.504   6.996  17.347  0.00  0.00    +0.000 C 
ATOM     10  C   UNL     1       6.986   6.984  16.968  0.00  0.00    +0.000 C 
ATOM     11  C   UNL     1       7.329   5.591  16.442  0.00  0.00    +0.000 C 
ATOM     12  C   UNL     1       6.953   4.473  17.414  0.00  0.00    +0.000 C 
BRANCH   7  13
ATOM     13  C   UNL     1       5.390   3.569  19.048  0.00  0.00    +0.000 C 
BRANCH  13  20
ATOM     14  C   UNL     1       0.785   5.224  20.402  0.00  0.00    +0.000 C 
ATOM     15  C   UNL     1       1.636   4.240  19.577  0.00  0.00    +0.000 C 
ATOM     16  C   UNL     1       1.628   4.720  18.120  0.00  0.00    +0.000 C 
ATOM     17  C   UNL     1       1.332   2.712  19.889  0.00  0.00    +0.000 C 
ATOM     18  C   UNL     1       1.927   1.707  18.884  0.00  0.00    +0.000 C 
ATOM     19  C   UNL     1       3.374   2.067  18.619  0.00  0.00    +0.000 C 
ATOM     20  C   UNL     1       3.961   3.112  19.243  0.00  0.00    +0.000 C 
ATOM     21  C   UNL     1       3.061   3.885  20.186  0.00  0.00    +0.000 C 
ATOM     22  C   UNL     1       2.290   2.880  21.117  0.00  0.00    +0.000 C 
ENDBRANCH  13  20
ENDBRANCH   7  13
ENDBRANCH   1  10
BRANCH   4  23
ATOM     23  C   UNL     1       9.537  10.440  19.510  0.00  0.00    +0.000 A 
ATOM     24  C   UNL     1      10.334  11.247  18.690  0.00  0.00    +0.000 A 
ATOM     25  C   UNL     1      10.770  12.509  19.132  0.00  0.00    +0.000 A 
ATOM     26  C   UNL     1      10.432  12.973  20.406  0.00  0.00    +0.000 A 
ATOM     27  C   UNL     1       9.648  12.189  21.260  0.00  0.00    +0.000 A 
ATOM     28  C   UNL     1       9.172  10.946  20.774  0.00  0.00    +0.000 A 
BRANCH  27  29
ATOM     29  C   UNL     1       9.254  12.711  22.635  0.00  0.00    +0.000 C 
BRANCH  29  30
ATOM     30  N   UNL     1       7.907  13.239  22.882  0.00  0.00    +0.000 NA
ATOM     31  C   UNL     1       7.768  14.321  23.860  0.00  0.00    +0.000 C 
ATOM     32  C   UNL     1       7.634  13.838  25.310  0.00  0.00    +0.000 C 
ATOM     33  O   UNL     1       6.593  12.865  25.471  0.00  0.00    +0.000 OA
ATOM     34  C   UNL     1       6.663  11.790  24.530  0.00  0.00    +0.000 C 
ATOM     35  C   UNL     1       6.831  12.268  23.081  0.00  0.00    +0.000 C 
ENDBRANCH  29  30
ENDBRANCH  27  29
ENDBRANCH   4  23
TORSDOF 6
ENDMDL
MODEL 2
REMARK VINA RESULT:      -8.6      1.270      1.841
REMARK  Name = 
REMARK  8 active torsions:
REMARK  status: ('A' for Active; 'I' for Inactive)
REMARK    1  A    between atoms: C_1  and  C_2
REMARK    2  A    between atoms: C_2  and  C_3
REMARK    3  A    between atoms: C_7  and  C_8
REMARK    4  A    between atoms: C_8  and  N_9
REMARK    5  A    between atoms: C_12  and  N_13
REMARK    6  A    between atoms: N_16  and  C_17
REMARK    7  A    between atoms: C_21  and  C_22
REMARK    8  A    between atoms: C_22  and  N_23
REMARK                            x       y       z     vdW  Elec       q    Type
REMARK                         _______ _______ _______ _____ _____    ______ ____
ROOT
ATOM      1  N   UNL     1       7.914   7.572  18.027  0.00  0.00    +0.000 N 
ATOM      2  C   UNL     1       8.276   8.899  18.163  0.00  0.00    +0.000 C 
ATOM      3  O   UNL     1       7.892   9.742  17.344  0.00  0.00    +0.000 OA
ATOM      4  N   UNL     1       9.051   9.166  19.277  0.00  0.00    +0.000 N 
ATOM      5  H   UNL     1       8.372   6.869  18.584  0.00  0.00    +0.000 HD
ATOM      6  H   UNL     1       9.314   8.369  19.840  0.00  0.00    +0.000 HD
ENDROOT
BRANCH   1  10
ATOM      7  N   UNL     1       5.470   4.790  17.617  0.00  0.00    +0.000 NA
ATOM      8  C   UNL     1       5.030   6.158  17.898  0.00  0.00    +0.000 C 
ATOM      9  C   UNL     1       5.616   7.228  16.989  0.00  0.00    +0.000 C 
ATOM     10  C   UNL     1       7.135   7.127  16.844  0.00  0.00    +0.000 C 
ATOM     11  C   UNL     1       7.473   5.711  16.380  0.00  0.00    +0.000 C 
ATOM     12  C   UNL     1       6.887   4.628  17.284  0.00  0.00    +0.000 C 
BRANCH   7  13
ATOM     13  C   UNL     1       5.041   3.833  18.659  0.00  0.00    +0.000 C 
BRANCH  13  20
ATOM     14  C   UNL     1       1.260   2.735  21.864  0.00  0.00    +0.000 C 
ATOM     15  C   UNL     1       1.715   3.394  20.547  0.00  0.00    +0.000 C 
ATOM     16  C   UNL     1       1.771   4.910  20.777  0.00  0.00    +0.000 C 
ATOM     17  C   UNL     1       0.973   2.833  19.260  0.00  0.00    +0.000 C 
ATOM     18  C   UNL     1       1.170   3.665  17.977  0.00  0.00    +0.000 C 
ATOM     19  C   UNL     1       2.639   3.995  17.819  0.00  0.00    +0.000 C 
ATOM     20  C   UNL     1       3.555   3.556  18.710  0.00  0.00    +0.000 C 
ATOM     21  C   UNL     1       2.994   2.745  19.861  0.00  0.00    +0.000 C 
ATOM     22  C   UNL     1       2.006   1.657  19.305  0.00  0.00    +0.000 C 
ENDBRANCH  13  20
ENDBRANCH   7  13
ENDBRANCH   1  10
BRANCH   4  23
ATOM     23  C   UNL     1       9.584  10.432  19.672  0.00  0.00    +0.000 A 
ATOM     24  C   UNL     1      10.599  11.102  18.979  0.00  0.00    +0.000 A 
ATOM     25  C   UNL     1      11.092  12.334  19.446  0.00  0.00    +0.000 A 
ATOM     26  C   UNL     1      10.593  12.902  20.621  0.00  0.00    +0.000 A 
ATOM     27  C   UNL     1       9.588  12.254  21.349  0.00  0.00    +0.000 A 
ATOM     28  C   UNL     1       9.065  11.044  20.832  0.00  0.00    +0.000 A 
BRANCH  27  29
ATOM     29  C   UNL     1       9.023  12.892  22.612  0.00  0.00    +0.000 C 
BRANCH  29  30
ATOM     30  N   UNL     1       7.760  13.638  22.577  0.00  0.00    +0.000 NA
ATOM     31  C   UNL     1       7.448  14.395  21.363  0.00  0.00    +0.000 C 
ATOM     32  C   UNL     1       8.056  15.803  21.332  0.00  0.00    +0.000 C 
ATOM     33  O   UNL     1       7.739  16.564  22.505  0.00  0.00    +0.000 OA
ATOM     34  C   UNL     1       8.003  15.869  23.728  0.00  0.00    +0.000 C 
ATOM     35  C   UNL     1       7.425  14.447  23.749  0.00  0.00    +0.000 C 
ENDBRANCH  29  30
ENDBRANCH  27  29
ENDBRANCH   4  23
TORSDOF 6
ENDMDL
MODEL 3
REMARK VINA RESULT:      -8.5      6.593     10.850
REMARK  Name = 
REMARK  8 active torsions:
REMARK  status: ('A' for Active; 'I' for Inactive)
REMARK    1  A    between atoms: C_1  and  C_2
REMARK    2  A    between atoms: C_2  and  C_3
REMARK    3  A    between atoms: C_7  and  C_8
REMARK    4  A    between atoms: C_8  and  N_9
REMARK    5  A    between atoms: C_12  and  N_13
REMARK    6  A    between atoms: N_16  and  C_17
REMARK    7  A    between atoms: C_21  and  C_22
REMARK    8  A    between atoms: C_22  and  N_23
REMARK                            x       y       z     vdW  Elec       q    Type
REMARK                         _______ _______ _______ _____ _____    ______ ____
ROOT
ATOM      1  N   UNL     1       1.445   9.577  19.236  0.00  0.00    +0.000 N 
ATOM      2  C   UNL     1       2.064   8.741  18.326  0.00  0.00    +0.000 C 
ATOM      3  O   UNL     1       2.163   9.069  17.138  0.00  0.00    +0.000 OA
ATOM      4  N   UNL     1       2.560   7.572  18.873  0.00  0.00    +0.000 N 
ATOM      5  H   UNL     1       1.207   9.231  20.152  0.00  0.00    +0.000 HD
ATOM      6  H   UNL     1       2.377   7.425  19.856  0.00  0.00    +0.000 HD
ENDROOT
BRANCH   1  10
ATOM      7  N   UNL     1      -0.632  12.067  21.071  0.00  0.00    +0.000 NA
ATOM      8  C   UNL     1       0.809  12.256  20.894  0.00  0.00    +0.000 C 
ATOM      9  C   UNL     1       1.314  12.108  19.467  0.00  0.00    +0.000 C 
ATOM     10  C   UNL     1       0.809  10.838  18.780  0.00  0.00    +0.000 C 
ATOM     11  C   UNL     1      -0.717  10.827  18.869  0.00  0.00    +0.000 C 
ATOM     12  C   UNL     1      -1.235  10.979  20.299  0.00  0.00    +0.000 C 
BRANCH   7  13
ATOM     13  C   UNL     1      -1.025  12.009  22.495  0.00  0.00    +0.000 C 
BRANCH  13  20
ATOM     14  C   UNL     1      -5.975  13.021  22.997  0.00  0.00    +0.000 C 
ATOM     15  C   UNL     1      -4.532  13.249  23.488  0.00  0.00    +0.000 C 
ATOM     16  C   UNL     1      -4.339  12.430  24.771  0.00  0.00    +0.000 C 
ATOM     17  C   UNL     1      -4.080  14.771  23.466  0.00  0.00    +0.000 C 
ATOM     18  C   UNL     1      -2.776  15.078  24.227  0.00  0.00    +0.000 C 
ATOM     19  C   UNL     1      -1.725  14.058  23.844  0.00  0.00    +0.000 C 
ATOM     20  C   UNL     1      -1.989  13.085  22.943  0.00  0.00    +0.000 C 
ATOM     21  C   UNL     1      -3.398  13.093  22.384  0.00  0.00    +0.000 C 
ATOM     22  C   UNL     1      -3.780  14.553  21.944  0.00  0.00    +0.000 C 
ENDBRANCH  13  20
ENDBRANCH   7  13
ENDBRANCH   1  10
BRANCH   4  23
ATOM     23  C   UNL     1       3.233   6.516  18.184  0.00  0.00    +0.000 A 
ATOM     24  C   UNL     1       4.499   6.646  17.601  0.00  0.00    +0.000 A 
ATOM     25  C   UNL     1       5.086   5.568  16.914  0.00  0.00    +0.000 A 
ATOM     26  C   UNL     1       4.408   4.353  16.784  0.00  0.00    +0.000 A 
ATOM     27  C   UNL     1       3.135   4.189  17.342  0.00  0.00    +0.000 A 
ATOM     28  C   UNL     1       2.586   5.267  18.078  0.00  0.00    +0.000 A 
BRANCH  27  29
ATOM     29  C   UNL     1       2.414   2.853  17.227  0.00  0.00    +0.000 C 
BRANCH  29  30
ATOM     30  N   UNL     1       2.487   1.862  18.307  0.00  0.00    +0.000 NA
ATOM     31  C   UNL     1       1.494   1.950  19.380  0.00  0.00    +0.000 C 
ATOM     32  C   UNL     1       1.877   2.921  20.506  0.00  0.00    +0.000 C 
ATOM     33  O   UNL     1       3.182   2.659  21.037  0.00  0.00    +0.000 OA
ATOM     34  C   UNL     1       4.196   2.541  20.033  0.00  0.00    +0.000 C 
ATOM     35  C   UNL     1       3.803   1.597  18.888  0.00  0.00    +0.000 C 
ENDBRANCH  29  30
ENDBRANCH  27  29
ENDBRANCH   4  23
TORSDOF 6
ENDMDL
MODEL 4
REMARK VINA RESULT:      -8.5      6.692     10.817
REMARK  Name = 
REMARK  8 active torsions:
REMARK  status: ('A' for Active; 'I' for Inactive)
REMARK    1  A    between atoms: C_1  and  C_2
REMARK    2  A    between atoms: C_2  and  C_3
REMARK    3  A    between atoms: C_7  and  C_8
REMARK    4  A    between atoms: C_8  and  N_9
REMARK    5  A    between atoms: C_12  and  N_13
REMARK    6  A    between atoms: N_16  and  C_17
REMARK    7  A    between atoms: C_21  and  C_22
REMARK    8  A    between atoms: C_22  and  N_23
REMARK                            x       y       z     vdW  Elec       q    Type
REMARK                         _______ _______ _______ _____ _____    ______ ____
ROOT
ATOM      1  N   UNL     1       1.221   9.728  19.268  0.00  0.00    +0.000 N 
ATOM      2  C   UNL     1       1.911   8.925  18.379  0.00  0.00    +0.000 C 
ATOM      3  O   UNL     1       2.129   9.310  17.224  0.00  0.00    +0.000 OA
ATOM      4  N   UNL     1       2.330   7.719  18.910  0.00  0.00    +0.000 N 
ATOM      5  H   UNL     1       0.890   9.343  20.138  0.00  0.00    +0.000 HD
ATOM      6  H   UNL     1       2.050   7.527  19.862  0.00  0.00    +0.000 HD
ENDROOT
BRANCH   1  10
ATOM      7  N   UNL     1      -0.636  12.361  21.140  0.00  0.00    +0.000 NA
ATOM      8  C   UNL     1       0.809  12.455  20.921  0.00  0.00    +0.000 C 
ATOM      9  C   UNL     1       1.262  12.264  19.481  0.00  0.00    +0.000 C 
ATOM     10  C   UNL     1       0.655  11.025  18.819  0.00  0.00    +0.000 C 
ATOM     11  C   UNL     1      -0.865  11.114  18.952  0.00  0.00    +0.000 C 
ATOM     12  C   UNL     1      -1.330  11.308  20.395  0.00  0.00    +0.000 C 
BRANCH   7  13
ATOM     13  C   UNL     1      -0.990  12.338  22.575  0.00  0.00    +0.000 C 
BRANCH  13  20
ATOM     14  C   UNL     1      -4.736  15.246  20.761  0.00  0.00    +0.000 C 
ATOM     15  C   UNL     1      -4.307  14.052  21.637  0.00  0.00    +0.000 C 
ATOM     16  C   UNL     1      -4.628  12.766  20.865  0.00  0.00    +0.000 C 
ATOM     17  C   UNL     1      -4.757  14.177  23.155  0.00  0.00    +0.000 C 
ATOM     18  C   UNL     1      -4.623  12.885  23.985  0.00  0.00    +0.000 C 
ATOM     19  C   UNL     1      -3.261  12.272  23.733  0.00  0.00    +0.000 C 
ATOM     20  C   UNL     1      -2.369  12.863  22.908  0.00  0.00    +0.000 C 
ATOM     21  C   UNL     1      -2.847  14.146  22.259  0.00  0.00    +0.000 C 
ATOM     22  C   UNL     1      -3.491  15.078  23.348  0.00  0.00    +0.000 C 
ENDBRANCH  13  20
ENDBRANCH   7  13
ENDBRANCH   1  10
BRANCH   4  23
ATOM     23  C   UNL     1       3.047   6.684  18.234  0.00  0.00    +0.000 A 
ATOM     24  C   UNL     1       4.327   6.846  17.691  0.00  0.00    +0.000 A 
ATOM     25  C   UNL     1       4.959   5.787  17.015  0.00  0.00    +0.000 A 
ATOM     26  C   UNL     1       4.313   4.559  16.855  0.00  0.00    +0.000 A 
ATOM     27  C   UNL     1       3.027   4.362  17.372  0.00  0.00    +0.000 A 
ATOM     28  C   UNL     1       2.432   5.422  18.099  0.00  0.00    +0.000 A 
BRANCH  27  29
ATOM     29  C   UNL     1       2.339   3.011  17.225  0.00  0.00    +0.000 C 
BRANCH  29  30
ATOM     30  N   UNL     1       2.455   1.989  18.271  0.00  0.00    +0.000 NA
ATOM     31  C   UNL     1       1.452   1.989  19.338  0.00  0.00    +0.000 C 
ATOM     32  C   UNL     1       1.776   2.939  20.500  0.00  0.00    +0.000 C 
ATOM     33  O   UNL     1       3.090   2.725  21.032  0.00  0.00    +0.000 OA
ATOM     34  C   UNL     1       4.115   2.694  20.035  0.00  0.00    +0.000 C 
ATOM     35  C   UNL     1       3.779   1.771  18.855  0.00  0.00    +0.000 C 
ENDBRANCH  29  30
ENDBRANCH  27  29
ENDBRANCH   4  23
TORSDOF 6
ENDMDL
MODEL 5
REMARK VINA RESULT:      -8.4      5.293      8.676
REMARK  Name = 
REMARK  8 active torsions:
REMARK  status: ('A' for Active; 'I' for Inactive)
REMARK    1  A    between atoms: C_1  and  C_2
REMARK    2  A    between atoms: C_2  and  C_3
REMARK    3  A    between atoms: C_7  and  C_8
REMARK    4  A    between atoms: C_8  and  N_9
REMARK    5  A    between atoms: C_12  and  N_13
REMARK    6  A    between atoms: N_16  and  C_17
REMARK    7  A    between atoms: C_21  and  C_22
REMARK    8  A    between atoms: C_22  and  N_23
REMARK                            x       y       z     vdW  Elec       q    Type
REMARK                         _______ _______ _______ _____ _____    ______ ____
ROOT
ATOM      1  N   UNL     1       2.248   5.479  20.758  0.00  0.00    +0.000 N 
ATOM      2  C   UNL     1       1.307   6.492  20.784  0.00  0.00    +0.000 C 
ATOM      3  O   UNL     1       0.107   6.231  20.926  0.00  0.00    +0.000 OA
ATOM      4  N   UNL     1       1.838   7.764  20.667  0.00  0.00    +0.000 N 
ATOM      5  H   UNL     1       3.191   5.679  20.463  0.00  0.00    +0.000 HD
ATOM      6  H   UNL     1       2.836   7.821  20.525  0.00  0.00    +0.000 HD
ENDROOT
BRANCH   1  10
ATOM      7  N   UNL     1       3.239   2.552  18.678  0.00  0.00    +0.000 NA
ATOM      8  C   UNL     1       3.880   2.826  19.965  0.00  0.00    +0.000 C 
ATOM      9  C   UNL     1       2.928   3.056  21.129  0.00  0.00    +0.000 C 
ATOM     10  C   UNL     1       1.819   4.059  20.809  0.00  0.00    +0.000 C 
ATOM     11  C   UNL     1       1.102   3.586  19.546  0.00  0.00    +0.000 C 
ATOM     12  C   UNL     1       2.050   3.349  18.371  0.00  0.00    +0.000 C 
BRANCH   7  13
ATOM     13  C   UNL     1       4.201   2.554  17.555  0.00  0.00    +0.000 C 
BRANCH  13  20
ATOM     14  C   UNL     1       7.569   6.113  18.886  0.00  0.00    +0.000 C 
ATOM     15  C   UNL     1       6.768   5.416  17.770  0.00  0.00    +0.000 C 
ATOM     16  C   UNL     1       7.722   4.470  17.030  0.00  0.00    +0.000 C 
ATOM     17  C   UNL     1       5.849   6.401  16.928  0.00  0.00    +0.000 C 
ATOM     18  C   UNL     1       5.277   5.810  15.626  0.00  0.00    +0.000 C 
ATOM     19  C   UNL     1       4.708   4.436  15.910  0.00  0.00    +0.000 C 
ATOM     20  C   UNL     1       4.728   3.915  17.157  0.00  0.00    +0.000 C 
ATOM     21  C   UNL     1       5.372   4.794  18.210  0.00  0.00    +0.000 C 
ATOM     22  C   UNL     1       4.809   6.256  18.090  0.00  0.00    +0.000 C 
ENDBRANCH  13  20
ENDBRANCH   7  13
ENDBRANCH   1  10
BRANCH   4  23
ATOM     23  C   UNL     1       1.118   8.999  20.648  0.00  0.00    +0.000 A 
ATOM     24  C   UNL     1       1.044   9.877  21.735  0.00  0.00    +0.000 A 
ATOM     25  C   UNL     1       0.292  11.062  21.648  0.00  0.00    +0.000 A 
ATOM     26  C   UNL     1      -0.412  11.376  20.483  0.00  0.00    +0.000 A 
ATOM     27  C   UNL     1      -0.374  10.515  19.379  0.00  0.00    +0.000 A 
ATOM     28  C   UNL     1       0.435   9.356  19.466  0.00  0.00    +0.000 A 
BRANCH  27  29
ATOM     29  C   UNL     1      -1.116  10.876  18.100  0.00  0.00    +0.000 C 
BRANCH  29  30
ATOM     30  N   UNL     1      -2.283  10.102  17.663  0.00  0.00    +0.000 NA
ATOM     31  C   UNL     1      -2.356   9.716  16.252  0.00  0.00    +0.000 C 
ATOM     32  C   UNL     1      -2.970  10.788  15.342  0.00  0.00    +0.000 C 
ATOM     33  O   UNL     1      -4.244  11.244  15.814  0.00  0.00    +0.000 OA
ATOM     34  C   UNL     1      -4.244  11.618  17.195  0.00  0.00    +0.000 C 
ATOM     35  C   UNL     1      -3.600  10.562  18.105  0.00  0.00    +0.000 C 
ENDBRANCH  29  30
ENDBRANCH  27  29
ENDBRANCH   4  23
TORSDOF 6
ENDMDL
MODEL 6
REMARK VINA RESULT:      -8.4      6.370     10.267
REMARK  Name = 
REMARK  8 active torsions:
REMARK  status: ('A' for Active; 'I' for Inactive)
REMARK    1  A    between atoms: C_1  and  C_2
REMARK    2  A    between atoms: C_2  and  C_3
REMARK    3  A    between atoms: C_7  and  C_8
REMARK    4  A    between atoms: C_8  and  N_9
REMARK    5  A    between atoms: C_12  and  N_13
REMARK    6  A    between atoms: N_16  and  C_17
REMARK    7  A    between atoms: C_21  and  C_22
REMARK    8  A    between atoms: C_22  and  N_23
REMARK                            x       y       z     vdW  Elec       q    Type
REMARK                         _______ _______ _______ _____ _____    ______ ____
ROOT
ATOM      1  N   UNL     1       1.282   9.460  19.227  0.00  0.00    +0.000 N 
ATOM      2  C   UNL     1       1.915   8.460  18.514  0.00  0.00    +0.000 C 
ATOM      3  O   UNL     1       2.269   8.650  17.345  0.00  0.00    +0.000 OA
ATOM      4  N   UNL     1       2.123   7.295  19.231  0.00  0.00    +0.000 N 
ATOM      5  H   UNL     1       0.838   9.245  20.106  0.00  0.00    +0.000 HD
ATOM      6  H   UNL     1       1.750   7.275  20.170  0.00  0.00    +0.000 HD
ENDROOT
BRANCH   1  10
ATOM      7  N   UNL     1      -0.255  12.569  20.589  0.00  0.00    +0.000 NA
ATOM      8  C   UNL     1       1.196  12.428  20.459  0.00  0.00    +0.000 C 
ATOM      9  C   UNL     1       1.686  11.969  19.094  0.00  0.00    +0.000 C 
ATOM     10  C   UNL     1       0.936  10.744  18.568  0.00  0.00    +0.000 C 
ATOM     11  C   UNL     1      -0.559  11.062  18.581  0.00  0.00    +0.000 C 
ATOM     12  C   UNL     1      -1.060  11.527  19.949  0.00  0.00    +0.000 C 
BRANCH   7  13
ATOM     13  C   UNL     1      -0.679  12.805  21.985  0.00  0.00    +0.000 C 
BRANCH  13  20
ATOM     14  C   UNL     1      -4.889  12.457  24.801  0.00  0.00    +0.000 C 
ATOM     15  C   UNL     1      -3.951  13.329  23.944  0.00  0.00    +0.000 C 
ATOM     16  C   UNL     1      -3.116  14.194  24.897  0.00  0.00    +0.000 C 
ATOM     17  C   UNL     1      -4.669  14.016  22.705  0.00  0.00    +0.000 C 
ATOM     18  C   UNL     1      -3.857  15.125  22.010  0.00  0.00    +0.000 C 
ATOM     19  C   UNL     1      -2.441  14.637  21.784  0.00  0.00    +0.000 C 
ATOM     20  C   UNL     1      -2.063  13.393  22.151  0.00  0.00    +0.000 C 
ATOM     21  C   UNL     1      -3.144  12.561  22.810  0.00  0.00    +0.000 C 
ATOM     22  C   UNL     1      -4.465  12.651  21.963  0.00  0.00    +0.000 C 
ENDBRANCH  13  20
ENDBRANCH   7  13
ENDBRANCH   1  10
BRANCH   4  23
ATOM     23  C   UNL     1       2.736   6.093  18.761  0.00  0.00    +0.000 A 
ATOM     24  C   UNL     1       2.095   5.157  17.941  0.00  0.00    +0.000 A 
ATOM     25  C   UNL     1       2.756   3.982  17.541  0.00  0.00    +0.000 A 
ATOM     26  C   UNL     1       4.058   3.716  17.971  0.00  0.00    +0.000 A 
ATOM     27  C   UNL     1       4.728   4.621  18.803  0.00  0.00    +0.000 A 
ATOM     28  C   UNL     1       4.066   5.825  19.147  0.00  0.00    +0.000 A 
BRANCH  27  29
ATOM     29  C   UNL     1       6.159   4.344  19.243  0.00  0.00    +0.000 C 
BRANCH  29  30
ATOM     30  N   UNL     1       7.296   4.785  18.427  0.00  0.00    +0.000 NA
ATOM     31  C   UNL     1       7.760   6.164  18.593  0.00  0.00    +0.000 C 
ATOM     32  C   UNL     1       6.998   7.185  17.737  0.00  0.00    +0.000 C 
ATOM     33  O   UNL     1       6.961   6.820  16.351  0.00  0.00    +0.000 OA
ATOM     34  C   UNL     1       6.535   5.473  16.124  0.00  0.00    +0.000 C 
ATOM     35  C   UNL     1       7.271   4.452  17.003  0.00  0.00    +0.000 C 
ENDBRANCH  29  30
ENDBRANCH  27  29
ENDBRANCH   4  23
TORSDOF 6
ENDMDL
MODEL 7
REMARK VINA RESULT:      -8.3      1.368      2.304
REMARK  Name = 
REMARK  8 active torsions:
REMARK  status: ('A' for Active; 'I' for Inactive)
REMARK    1  A    between atoms: C_1  and  C_2
REMARK    2  A    between atoms: C_2  and  C_3
REMARK    3  A    between atoms: C_7  and  C_8
REMARK    4  A    between atoms: C_8  and  N_9
REMARK    5  A    between atoms: C_12  and  N_13
REMARK    6  A    between atoms: N_16  and  C_17
REMARK    7  A    between atoms: C_21  and  C_22
REMARK    8  A    between atoms: C_22  and  N_23
REMARK                            x       y       z     vdW  Elec       q    Type
REMARK                         _______ _______ _______ _____ _____    ______ ____
ROOT
ATOM      1  N   UNL     1       8.156   7.288  18.637  0.00  0.00    +0.000 N 
ATOM      2  C   UNL     1       8.464   8.597  18.319  0.00  0.00    +0.000 C 
ATOM      3  O   UNL     1       8.171   9.060  17.211  0.00  0.00    +0.000 OA
ATOM      4  N   UNL     1       9.080   9.300  19.339  0.00  0.00    +0.000 N 
ATOM      5  H   UNL     1       8.554   6.865  19.461  0.00  0.00    +0.000 HD
ATOM      6  H   UNL     1       9.287   8.780  20.180  0.00  0.00    +0.000 HD
ENDROOT
BRANCH   1  10
ATOM      7  N   UNL     1       4.717   5.881  18.359  0.00  0.00    +0.000 NA
ATOM      8  C   UNL     1       5.104   7.100  17.646  0.00  0.00    +0.000 C 
ATOM      9  C   UNL     1       6.386   6.999  16.832  0.00  0.00    +0.000 C 
ATOM     10  C   UNL     1       7.550   6.394  17.619  0.00  0.00    +0.000 C 
ATOM     11  C   UNL     1       7.097   5.044  18.174  0.00  0.00    +0.000 C 
ATOM     12  C   UNL     1       5.808   5.135  18.991  0.00  0.00    +0.000 C 
BRANCH   7  13
ATOM     13  C   UNL     1       3.595   6.104  19.294  0.00  0.00    +0.000 C 
BRANCH  13  20
ATOM     14  C   UNL     1       3.269   1.119  18.387  0.00  0.00    +0.000 C 
ATOM     15  C   UNL     1       3.034   2.295  19.355  0.00  0.00    +0.000 C 
ATOM     16  C   UNL     1       4.142   2.258  20.415  0.00  0.00    +0.000 C 
ATOM     17  C   UNL     1       1.523   2.451  19.819  0.00  0.00    +0.000 C 
ATOM     18  C   UNL     1       1.299   3.406  21.007  0.00  0.00    +0.000 C 
ATOM     19  C   UNL     1       2.066   4.689  20.766  0.00  0.00    +0.000 C 
ATOM     20  C   UNL     1       2.784   4.874  19.636  0.00  0.00    +0.000 C 
ATOM     21  C   UNL     1       2.771   3.706  18.670  0.00  0.00    +0.000 C 
ATOM     22  C   UNL     1       1.294   3.208  18.467  0.00  0.00    +0.000 C 
ENDBRANCH  13  20
ENDBRANCH   7  13
ENDBRANCH   1  10
BRANCH   4  23
ATOM     23  C   UNL     1       9.526  10.657  19.302  0.00  0.00    +0.000 A 
ATOM     24  C   UNL     1      10.145  11.246  18.193  0.00  0.00    +0.000 A 
ATOM     25  C   UNL     1      10.582  12.582  18.242  0.00  0.00    +0.000 A 
ATOM     26  C   UNL     1      10.426  13.341  19.405  0.00  0.00    +0.000 A 
ATOM     27  C   UNL     1       9.824  12.782  20.539  0.00  0.00    +0.000 A 
ATOM     28  C   UNL     1       9.339  11.454  20.451  0.00  0.00    +0.000 A 
BRANCH  27  29
ATOM     29  C   UNL     1       9.625  13.622  21.794  0.00  0.00    +0.000 C 
BRANCH  29  30
ATOM     30  N   UNL     1       8.342  13.619  22.506  0.00  0.00    +0.000 NA
ATOM     31  C   UNL     1       7.188  14.221  21.833  0.00  0.00    +0.000 C 
ATOM     32  C   UNL     1       7.073  15.738  22.028  0.00  0.00    +0.000 C 
ATOM     33  O   UNL     1       7.115  16.118  23.410  0.00  0.00    +0.000 OA
ATOM     34  C   UNL     1       8.211  15.545  24.129  0.00  0.00    +0.000 C 
ATOM     35  C   UNL     1       8.350  14.032  23.909  0.00  0.00    +0.000 C 
ENDBRANCH  29  30
ENDBRANCH  27  29
ENDBRANCH   4  23
TORSDOF 6
ENDMDL
MODEL 8
REMARK VINA RESULT:      -8.2      6.635     10.845
REMARK  Name = 
REMARK  8 active torsions:
REMARK  status: ('A' for Active; 'I' for Inactive)
REMARK    1  A    between atoms: C_1  and  C_2
REMARK    2  A    between atoms: C_2  and  C_3
REMARK    3  A    between atoms: C_7  and  C_8
REMARK    4  A    between atoms: C_8  and  N_9
REMARK    5  A    between atoms: C_12  and  N_13
REMARK    6  A    between atoms: N_16  and  C_17
REMARK    7  A    between atoms: C_21  and  C_22
REMARK    8  A    between atoms: C_22  and  N_23
REMARK                            x       y       z     vdW  Elec       q    Type
REMARK                         _______ _______ _______ _____ _____    ______ ____
ROOT
ATOM      1  N   UNL     1       1.431   9.576  19.197  0.00  0.00    +0.000 N 
ATOM      2  C   UNL     1       2.076   8.740  18.305  0.00  0.00    +0.000 C 
ATOM      3  O   UNL     1       2.221   9.075  17.124  0.00  0.00    +0.000 OA
ATOM      4  N   UNL     1       2.540   7.563  18.862  0.00  0.00    +0.000 N 
ATOM      5  H   UNL     1       1.157   9.226  20.102  0.00  0.00    +0.000 HD
ATOM      6  H   UNL     1       2.319   7.411  19.836  0.00  0.00    +0.000 HD
ENDROOT
BRANCH   1  10
ATOM      7  N   UNL     1      -0.853  11.971  20.908  0.00  0.00    +0.000 NA
ATOM      8  C   UNL     1       0.596  12.183  20.881  0.00  0.00    +0.000 C 
ATOM      9  C   UNL     1       1.240  12.094  19.506  0.00  0.00    +0.000 C 
ATOM     10  C   UNL     1       0.824  10.846  18.727  0.00  0.00    +0.000 C 
ATOM     11  C   UNL     1      -0.703  10.814  18.665  0.00  0.00    +0.000 C 
ATOM     12  C   UNL     1      -1.361  10.906  20.041  0.00  0.00    +0.000 C 
BRANCH   7  13
ATOM     13  C   UNL     1      -1.383  11.855  22.283  0.00  0.00    +0.000 C 
BRANCH  13  20
ATOM     14  C   UNL     1      -3.391  15.585  25.082  0.00  0.00    +0.000 C 
ATOM     15  C   UNL     1      -3.401  14.778  23.769  0.00  0.00    +0.000 C 
ATOM     16  C   UNL     1      -2.744  15.641  22.684  0.00  0.00    +0.000 C 
ATOM     17  C   UNL     1      -4.790  14.072  23.461  0.00  0.00    +0.000 C 
ATOM     18  C   UNL     1      -4.940  13.519  22.030  0.00  0.00    +0.000 C 
ATOM     19  C   UNL     1      -3.693  12.742  21.664  0.00  0.00    +0.000 C 
ATOM     20  C   UNL     1      -2.676  12.597  22.542  0.00  0.00    +0.000 C 
ATOM     21  C   UNL     1      -2.879  13.280  23.880  0.00  0.00    +0.000 C 
ATOM     22  C   UNL     1      -4.311  12.939  24.431  0.00  0.00    +0.000 C 
ENDBRANCH  13  20
ENDBRANCH   7  13
ENDBRANCH   1  10
BRANCH   4  23
ATOM     23  C   UNL     1       3.229   6.505  18.191  0.00  0.00    +0.000 A 
ATOM     24  C   UNL     1       4.509   6.632  17.640  0.00  0.00    +0.000 A 
ATOM     25  C   UNL     1       5.111   5.553  16.969  0.00  0.00    +0.000 A 
ATOM     26  C   UNL     1       4.435   4.339  16.822  0.00  0.00    +0.000 A 
ATOM     27  C   UNL     1       3.147   4.178  17.347  0.00  0.00    +0.000 A 
ATOM     28  C   UNL     1       2.582   5.258  18.069  0.00  0.00    +0.000 A 
BRANCH  27  29
ATOM     29  C   UNL     1       2.426   2.843  17.213  0.00  0.00    +0.000 C 
BRANCH  29  30
ATOM     30  N   UNL     1       2.478   1.849  18.291  0.00  0.00    +0.000 NA
ATOM     31  C   UNL     1       1.487   1.954  19.364  0.00  0.00    +0.000 C 
ATOM     32  C   UNL     1       1.888   2.913  20.493  0.00  0.00    +0.000 C 
ATOM     33  O   UNL     1       3.188   2.623  21.024  0.00  0.00    +0.000 OA
ATOM     34  C   UNL     1       4.199   2.488  20.021  0.00  0.00    +0.000 C 
ATOM     35  C   UNL     1       3.788   1.555  18.873  0.00  0.00    +0.000 C 
ENDBRANCH  29  30
ENDBRANCH  27  29
ENDBRANCH   4  23
TORSDOF 6
ENDMDL
MODEL 9
REMARK VINA RESULT:      -8.2      2.463      3.280
REMARK  Name = 
REMARK  8 active torsions:
REMARK  status: ('A' for Active; 'I' for Inactive)
REMARK    1  A    between atoms: C_1  and  C_2
REMARK    2  A    between atoms: C_2  and  C_3
REMARK    3  A    between atoms: C_7  and  C_8
REMARK    4  A    between atoms: C_8  and  N_9
REMARK    5  A    between atoms: C_12  and  N_13
REMARK    6  A    between atoms: N_16  and  C_17
REMARK    7  A    between atoms: C_21  and  C_22
REMARK    8  A    between atoms: C_22  and  N_23
REMARK                            x       y       z     vdW  Elec       q    Type
REMARK                         _______ _______ _______ _____ _____    ______ ____
ROOT
ATOM      1  N   UNL     1       8.163   7.567  18.767  0.00  0.00    +0.000 N 
ATOM      2  C   UNL     1       8.608   8.799  18.328  0.00  0.00    +0.000 C 
ATOM      3  O   UNL     1       8.527   9.107  17.134  0.00  0.00    +0.000 OA
ATOM      4  N   UNL     1       9.102   9.615  19.330  0.00  0.00    +0.000 N 
ATOM      5  H   UNL     1       8.394   7.252  19.696  0.00  0.00    +0.000 HD
ATOM      6  H   UNL     1       9.135   9.216  20.257  0.00  0.00    +0.000 HD
ENDROOT
BRANCH   1  10
ATOM      7  N   UNL     1       4.835   5.922  18.439  0.00  0.00    +0.000 NA
ATOM      8  C   UNL     1       5.183   7.107  17.652  0.00  0.00    +0.000 C 
ATOM      9  C   UNL     1       6.509   7.029  16.910  0.00  0.00    +0.000 C 
ATOM     10  C   UNL     1       7.666   6.562  17.795  0.00  0.00    +0.000 C 
ATOM     11  C   UNL     1       7.268   5.231  18.431  0.00  0.00    +0.000 C 
ATOM     12  C   UNL     1       5.935   5.298  19.178  0.00  0.00    +0.000 C 
BRANCH   7  13
ATOM     13  C   UNL     1       3.655   6.142  19.301  0.00  0.00    +0.000 C 
BRANCH  13  20
ATOM     14  C   UNL     1       3.356   1.171  18.311  0.00  0.00    +0.000 C 
ATOM     15  C   UNL     1       3.101   2.332  19.292  0.00  0.00    +0.000 C 
ATOM     16  C   UNL     1       4.191   2.280  20.371  0.00  0.00    +0.000 C 
ATOM     17  C   UNL     1       1.582   2.478  19.733  0.00  0.00    +0.000 C 
ATOM     18  C   UNL     1       1.335   3.413  20.932  0.00  0.00    +0.000 C 
ATOM     19  C   UNL     1       2.104   4.702  20.724  0.00  0.00    +0.000 C 
ATOM     20  C   UNL     1       2.841   4.905  19.609  0.00  0.00    +0.000 C 
ATOM     21  C   UNL     1       2.847   3.753  18.625  0.00  0.00    +0.000 C 
ATOM     22  C   UNL     1       1.375   3.255  18.389  0.00  0.00    +0.000 C 
ENDBRANCH  13  20
ENDBRANCH   7  13
ENDBRANCH   1  10
BRANCH   4  23
ATOM     23  C   UNL     1       9.641  10.930  19.182  0.00  0.00    +0.000 A 
ATOM     24  C   UNL     1      10.987  11.251  19.393  0.00  0.00    +0.000 A 
ATOM     25  C   UNL     1      11.438  12.576  19.254  0.00  0.00    +0.000 A 
ATOM     26  C   UNL     1      10.548  13.601  18.922  0.00  0.00    +0.000 A 
ATOM     27  C   UNL     1       9.192  13.321  18.717  0.00  0.00    +0.000 A 
ATOM     28  C   UNL     1       8.768  11.973  18.805  0.00  0.00    +0.000 A 
BRANCH  27  29
ATOM     29  C   UNL     1       8.231  14.435  18.323  0.00  0.00    +0.000 C 
BRANCH  29  30
ATOM     30  N   UNL     1       6.988  14.656  19.071  0.00  0.00    +0.000 NA
ATOM     31  C   UNL     1       6.003  15.577  18.500  0.00  0.00    +0.000 C 
ATOM     32  C   UNL     1       6.249  17.051  18.851  0.00  0.00    +0.000 C 
ATOM     33  O   UNL     1       6.389  17.263  20.262  0.00  0.00    +0.000 OA
ATOM     34  C   UNL     1       7.325  16.377  20.884  0.00  0.00    +0.000 C 
ATOM     35  C   UNL     1       7.104  14.905  20.508  0.00  0.00    +0.000 C 
ENDBRANCH  29  30
ENDBRANCH  27  29
ENDBRANCH   4  23
TORSDOF 6
ENDMDL
