MODEL 1
REMARK VINA RESULT:      -7.1      0.000      0.000
REMARK  Name = 
REMARK  5 active torsions:
REMARK  status: ('A' for Active; 'I' for Inactive)
REMARK    1  A    between atoms: C_1  and  N_2
REMARK    2  A    between atoms: C_5  and  C_6
REMARK    3  A    between atoms: C_17  and  O_18
REMARK    4  A    between atoms: C_19  and  O_20
REMARK    5  A    between atoms: C_21  and  O_22
REMARK                            x       y       z     vdW  Elec       q    Type
REMARK                         _______ _______ _______ _____ _____    ______ ____
ROOT
ATOM      1  C   UNL     1       2.181   1.756  19.308  0.00  0.00    +0.000 C 
ATOM      2  N   UNL     1       2.026   3.233  19.206  0.00  0.00    +0.000 NA
ATOM      3  C   UNL     1       1.565   3.579  17.782  0.00  0.00    +0.000 C 
ATOM      4  C   UNL     1       2.118   4.915  17.126  0.00  0.00    +0.000 C 
ATOM      5  C   UNL     1       3.367   5.437  17.891  0.00  0.00    +0.000 C 
ATOM      6  C   UNL     1       3.807   3.965  18.385  0.00  0.00    +0.000 C 
ATOM      7  C   UNL     1       3.321   3.828  19.774  0.00  0.00    +0.000 C 
ATOM      8  C   UNL     1       4.530   4.979  20.240  0.00  0.00    +0.000 C 
ATOM      9  C   UNL     1       5.534   5.454  19.062  0.00  0.00    +0.000 A 
ATOM     10  C   UNL     1       6.865   5.016  19.044  0.00  0.00    +0.000 A 
ATOM     11  C   UNL     1       7.448   4.757  17.795  0.00  0.00    +0.000 A 
ATOM     12  C   UNL     1       6.809   5.084  16.582  0.00  0.00    +0.000 A 
ATOM     13  C   UNL     1       5.533   5.594  16.569  0.00  0.00    +0.000 A 
ATOM     14  C   UNL     1       4.864   5.678  17.776  0.00  0.00    +0.000 A 
ENDROOT
BRANCH   5  15
ATOM     15  C   UNL     1       2.832   6.807  18.456  0.00  0.00    +0.000 A 
ATOM     16  C   UNL     1       2.214   6.990  19.709  0.00  0.00    +0.000 A 
ATOM     17  C   UNL     1       1.555   8.190  20.021  0.00  0.00    +0.000 A 
ATOM     18  C   UNL     1       1.497   9.249  19.115  0.00  0.00    +0.000 A 
ATOM     19  C   UNL     1       2.106   9.109  17.874  0.00  0.00    +0.000 A 
ATOM     20  C   UNL     1       2.753   7.911  17.554  0.00  0.00    +0.000 A 
ENDBRANCH   5  15
BRANCH  11  21
ATOM     21  O   UNL     1       8.577   3.980  17.693  0.00  0.00    +0.000 OA
ATOM     22  H   UNL     1       9.182   4.268  18.403  0.00  0.00    +0.000 HD
ENDBRANCH  11  21
BRANCH  12  23
ATOM     23  O   UNL     1       7.362   4.703  15.384  0.00  0.00    +0.000 OA
ATOM     24  H   UNL     1       6.659   4.179  14.947  0.00  0.00    +0.000 HD
ENDBRANCH  12  23
BRANCH  13  25
ATOM     25  O   UNL     1       4.839   5.758  15.404  0.00  0.00    +0.000 OA
ATOM     26  H   UNL     1       4.115   5.110  15.437  0.00  0.00    +0.000 HD
ENDBRANCH  13  25
TORSDOF 4
ENDMDL
MODEL 2
REMARK VINA RESULT:      -6.6      2.538      4.320
REMARK  Name = 
REMARK  5 active torsions:
REMARK  status: ('A' for Active; 'I' for Inactive)
REMARK    1  A    between atoms: C_1  and  N_2
REMARK    2  A    between atoms: C_5  and  C_6
REMARK    3  A    between atoms: C_17  and  O_18
REMARK    4  A    between atoms: C_19  and  O_20
REMARK    5  A    between atoms: C_21  and  O_22
REMARK                            x       y       z     vdW  Elec       q    Type
REMARK                         _______ _______ _______ _____ _____    ______ ____
ROOT
ATOM      1  C   UNL     1       7.024   4.880  14.608  0.00  0.00    +0.000 C 
ATOM      2  N   UNL     1       6.074   5.664  15.444  0.00  0.00    +0.000 NA
ATOM      3  C   UNL     1       6.833   6.212  16.662  0.00  0.00    +0.000 C 
ATOM      4  C   UNL     1       6.058   6.290  18.047  0.00  0.00    +0.000 C 
ATOM      5  C   UNL     1       4.780   5.405  18.022  0.00  0.00    +0.000 C 
ATOM      6  C   UNL     1       5.391   4.372  16.944  0.00  0.00    +0.000 C 
ATOM      7  C   UNL     1       4.843   4.768  15.629  0.00  0.00    +0.000 C 
ATOM      8  C   UNL     1       3.302   4.190  16.172  0.00  0.00    +0.000 C 
ATOM      9  C   UNL     1       3.295   3.480  17.627  0.00  0.00    +0.000 A 
ATOM     10  C   UNL     1       3.143   2.091  17.738  0.00  0.00    +0.000 A 
ATOM     11  C   UNL     1       3.859   1.438  18.752  0.00  0.00    +0.000 A 
ATOM     12  C   UNL     1       4.571   2.139  19.746  0.00  0.00    +0.000 A 
ATOM     13  C   UNL     1       4.670   3.509  19.712  0.00  0.00    +0.000 A 
ATOM     14  C   UNL     1       4.136   4.163  18.617  0.00  0.00    +0.000 A 
ENDROOT
BRANCH   5  15
ATOM     15  C   UNL     1       3.650   6.493  18.168  0.00  0.00    +0.000 A 
ATOM     16  C   UNL     1       3.461   7.598  17.313  0.00  0.00    +0.000 A 
ATOM     17  C   UNL     1       2.586   8.639  17.662  0.00  0.00    +0.000 A 
ATOM     18  C   UNL     1       1.862   8.618  18.854  0.00  0.00    +0.000 A 
ATOM     19  C   UNL     1       2.013   7.538  19.715  0.00  0.00    +0.000 A 
ATOM     20  C   UNL     1       2.892   6.504  19.378  0.00  0.00    +0.000 A 
ENDBRANCH   5  15
BRANCH  11  21
ATOM     21  O   UNL     1       4.075   0.080  18.698  0.00  0.00    +0.000 OA
ATOM     22  H   UNL     1       3.196  -0.344  18.688  0.00  0.00    +0.000 HD
ENDBRANCH  11  21
BRANCH  12  23
ATOM     23  O   UNL     1       5.356   1.459  20.645  0.00  0.00    +0.000 OA
ATOM     24  H   UNL     1       5.901   2.156  21.067  0.00  0.00    +0.000 HD
ENDBRANCH  12  23
BRANCH  13  25
ATOM     25  O   UNL     1       5.491   4.189  20.566  0.00  0.00    +0.000 OA
ATOM     26  H   UNL     1       6.360   4.213  20.130  0.00  0.00    +0.000 HD
ENDBRANCH  13  25
TORSDOF 4
ENDMDL
MODEL 3
REMARK VINA RESULT:      -6.6      2.939      5.316
REMARK  Name = 
REMARK  5 active torsions:
REMARK  status: ('A' for Active; 'I' for Inactive)
REMARK    1  A    between atoms: C_1  and  N_2
REMARK    2  A    between atoms: C_5  and  C_6
REMARK    3  A    between atoms: C_17  and  O_18
REMARK    4  A    between atoms: C_19  and  O_20
REMARK    5  A    between atoms: C_21  and  O_22
REMARK                            x       y       z     vdW  Elec       q    Type
REMARK                         _______ _______ _______ _____ _____    ______ ____
ROOT
ATOM      1  C   UNL     1       5.479   4.193  13.435  0.00  0.00    +0.000 C 
ATOM      2  N   UNL     1       6.142   4.988  14.503  0.00  0.00    +0.000 NA
ATOM      3  C   UNL     1       7.101   4.068  15.273  0.00  0.00    +0.000 C 
ATOM      4  C   UNL     1       7.254   4.296  16.838  0.00  0.00    +0.000 C 
ATOM      5  C   UNL     1       6.083   5.153  17.394  0.00  0.00    +0.000 C 
ATOM      6  C   UNL     1       5.047   4.662  16.258  0.00  0.00    +0.000 C 
ATOM      7  C   UNL     1       5.014   5.728  15.234  0.00  0.00    +0.000 C 
ATOM      8  C   UNL     1       4.179   6.717  16.386  0.00  0.00    +0.000 C 
ATOM      9  C   UNL     1       3.800   5.993  17.784  0.00  0.00    +0.000 A 
ATOM     10  C   UNL     1       2.471   5.650  18.067  0.00  0.00    +0.000 A 
ATOM     11  C   UNL     1       2.243   4.459  18.772  0.00  0.00    +0.000 A 
ATOM     12  C   UNL     1       3.290   3.707  19.342  0.00  0.00    +0.000 A 
ATOM     13  C   UNL     1       4.603   4.064  19.151  0.00  0.00    +0.000 A 
ATOM     14  C   UNL     1       4.862   5.123  18.301  0.00  0.00    +0.000 A 
ENDROOT
BRANCH   5  15
ATOM     15  C   UNL     1       6.847   6.444  17.875  0.00  0.00    +0.000 A 
ATOM     16  C   UNL     1       6.894   7.672  17.186  0.00  0.00    +0.000 A 
ATOM     17  C   UNL     1       7.795   8.680  17.568  0.00  0.00    +0.000 A 
ATOM     18  C   UNL     1       8.665   8.513  18.645  0.00  0.00    +0.000 A 
ATOM     19  C   UNL     1       8.637   7.320  19.356  0.00  0.00    +0.000 A 
ATOM     20  C   UNL     1       7.750   6.309  18.972  0.00  0.00    +0.000 A 
ENDBRANCH   5  15
BRANCH  11  21
ATOM     21  O   UNL     1       1.006   3.859  18.758  0.00  0.00    +0.000 OA
ATOM     22  H   UNL     1       0.868   3.520  17.853  0.00  0.00    +0.000 HD
ENDBRANCH  11  21
BRANCH  12  23
ATOM     23  O   UNL     1       3.032   2.487  19.918  0.00  0.00    +0.000 OA
ATOM     24  H   UNL     1       3.845   2.281  20.425  0.00  0.00    +0.000 HD
ENDBRANCH  12  23
BRANCH  13  25
ATOM     25  O   UNL     1       5.630   3.257  19.552  0.00  0.00    +0.000 OA
ATOM     26  H   UNL     1       6.406   3.552  19.045  0.00  0.00    +0.000 HD
ENDBRANCH  13  25
TORSDOF 4
ENDMDL
MODEL 4
REMARK VINA RESULT:      -6.4      7.069      9.629
REMARK  Name = 
REMARK  5 active torsions:
REMARK  status: ('A' for Active; 'I' for Inactive)
REMARK    1  A    between atoms: C_1  and  N_2
REMARK    2  A    between atoms: C_5  and  C_6
REMARK    3  A    between atoms: C_17  and  O_18
REMARK    4  A    between atoms: C_19  and  O_20
REMARK    5  A    between atoms: C_21  and  O_22
REMARK                            x       y       z     vdW  Elec       q    Type
REMARK                         _______ _______ _______ _____ _____    ______ ____
ROOT
ATOM      1  C   UNL     1       0.311  15.459  18.930  0.00  0.00    +0.000 C 
ATOM      2  N   UNL     1       0.266  14.205  19.730  0.00  0.00    +0.000 NA
ATOM      3  C   UNL     1       1.320  13.234  19.176  0.00  0.00    +0.000 C 
ATOM      4  C   UNL     1       0.973  11.684  19.170  0.00  0.00    +0.000 C 
ATOM      5  C   UNL     1      -0.555  11.454  19.348  0.00  0.00    +0.000 C 
ATOM      6  C   UNL     1      -0.950  12.867  18.675  0.00  0.00    +0.000 C 
ATOM      7  C   UNL     1      -1.212  13.801  19.791  0.00  0.00    +0.000 C 
ATOM      8  C   UNL     1      -2.653  12.897  20.123  0.00  0.00    +0.000 C 
ATOM      9  C   UNL     1      -2.989  11.709  19.075  0.00  0.00    +0.000 A 
ATOM     10  C   UNL     1      -4.046  11.845  18.164  0.00  0.00    +0.000 A 
ATOM     11  C   UNL     1      -3.876  11.298  16.884  0.00  0.00    +0.000 A 
ATOM     12  C   UNL     1      -2.774  10.484  16.551  0.00  0.00    +0.000 A 
ATOM     13  C   UNL     1      -1.759  10.264  17.452  0.00  0.00    +0.000 A 
ATOM     14  C   UNL     1      -1.809  10.947  18.653  0.00  0.00    +0.000 A 
ENDROOT
BRANCH   5  15
ATOM     15  C   UNL     1      -0.593  10.707  20.734  0.00  0.00    +0.000 A 
ATOM     16  C   UNL     1      -0.873  11.305  21.979  0.00  0.00    +0.000 A 
ATOM     17  C   UNL     1      -0.646  10.613  23.179  0.00  0.00    +0.000 A 
ATOM     18  C   UNL     1      -0.150   9.309  23.189  0.00  0.00    +0.000 A 
ATOM     19  C   UNL     1       0.125   8.682  21.980  0.00  0.00    +0.000 A 
ATOM     20  C   UNL     1      -0.089   9.372  20.782  0.00  0.00    +0.000 A 
ENDBRANCH   5  15
BRANCH  11  21
ATOM     21  O   UNL     1      -4.667  11.704  15.835  0.00  0.00    +0.000 OA
ATOM     22  H   UNL     1      -4.934  12.623  16.023  0.00  0.00    +0.000 HD
ENDBRANCH  11  21
BRANCH  12  23
ATOM     23  O   UNL     1      -2.585  10.071  15.255  0.00  0.00    +0.000 OA
ATOM     24  H   UNL     1      -3.415   9.603  15.027  0.00  0.00    +0.000 HD
ENDBRANCH  12  23
BRANCH  13  25
ATOM     25  O   UNL     1      -0.610   9.620  17.092  0.00  0.00    +0.000 OA
ATOM     26  H   UNL     1      -0.564   9.690  16.122  0.00  0.00    +0.000 HD
ENDBRANCH  13  25
TORSDOF 4
ENDMDL
MODEL 5
REMARK VINA RESULT:      -6.4      0.333      1.053
REMARK  Name = 
REMARK  5 active torsions:
REMARK  status: ('A' for Active; 'I' for Inactive)
REMARK    1  A    between atoms: C_1  and  N_2
REMARK    2  A    between atoms: C_5  and  C_6
REMARK    3  A    between atoms: C_17  and  O_18
REMARK    4  A    between atoms: C_19  and  O_20
REMARK    5  A    between atoms: C_21  and  O_22
REMARK                            x       y       z     vdW  Elec       q    Type
REMARK                         _______ _______ _______ _____ _____    ______ ____
ROOT
ATOM      1  C   UNL     1       2.362   1.517  19.580  0.00  0.00    +0.000 C 
ATOM      2  N   UNL     1       2.095   2.958  19.324  0.00  0.00    +0.000 NA
ATOM      3  C   UNL     1       1.622   3.117  17.871  0.00  0.00    +0.000 C 
ATOM      4  C   UNL     1       2.077   4.416  17.079  0.00  0.00    +0.000 C 
ATOM      5  C   UNL     1       3.275   5.110  17.786  0.00  0.00    +0.000 C 
ATOM      6  C   UNL     1       3.822   3.736  18.433  0.00  0.00    +0.000 C 
ATOM      7  C   UNL     1       3.335   3.708  19.828  0.00  0.00    +0.000 C 
ATOM      8  C   UNL     1       4.447   4.991  20.173  0.00  0.00    +0.000 C 
ATOM      9  C   UNL     1       5.423   5.416  18.953  0.00  0.00    +0.000 A 
ATOM     10  C   UNL     1       6.784   5.083  18.984  0.00  0.00    +0.000 A 
ATOM     11  C   UNL     1       7.397   4.741  17.769  0.00  0.00    +0.000 A 
ATOM     12  C   UNL     1       6.747   4.889  16.527  0.00  0.00    +0.000 A 
ATOM     13  C   UNL     1       5.436   5.294  16.459  0.00  0.00    +0.000 A 
ATOM     14  C   UNL     1       4.751   5.452  17.649  0.00  0.00    +0.000 A 
ENDROOT
BRANCH   5  15
ATOM     15  C   UNL     1       2.631   6.485  18.204  0.00  0.00    +0.000 A 
ATOM     16  C   UNL     1       2.734   7.691  17.480  0.00  0.00    +0.000 A 
ATOM     17  C   UNL     1       2.336   8.911  18.050  0.00  0.00    +0.000 A 
ATOM     18  C   UNL     1       1.814   8.979  19.342  0.00  0.00    +0.000 A 
ATOM     19  C   UNL     1       1.686   7.809  20.080  0.00  0.00    +0.000 A 
ATOM     20  C   UNL     1       2.092   6.593  19.521  0.00  0.00    +0.000 A 
ENDBRANCH   5  15
BRANCH  11  21
ATOM     21  O   UNL     1       8.584   4.047  17.751  0.00  0.00    +0.000 OA
ATOM     22  H   UNL     1       8.545   3.405  18.486  0.00  0.00    +0.000 HD
ENDBRANCH  11  21
BRANCH  12  23
ATOM     23  O   UNL     1       7.339   4.429  15.377  0.00  0.00    +0.000 OA
ATOM     24  H   UNL     1       6.706   3.770  15.024  0.00  0.00    +0.000 HD
ENDBRANCH  12  23
BRANCH  13  25
ATOM     25  O   UNL     1       4.743   5.282  15.282  0.00  0.00    +0.000 OA
ATOM     26  H   UNL     1       4.997   4.454  14.838  0.00  0.00    +0.000 HD
ENDBRANCH  13  25
TORSDOF 4
ENDMDL
MODEL 6
REMARK VINA RESULT:      -6.2      7.133      9.591
REMARK  Name = 
REMARK  5 active torsions:
REMARK  status: ('A' for Active; 'I' for Inactive)
REMARK    1  A    between atoms: C_1  and  N_2
REMARK    2  A    between atoms: C_5  and  C_6
REMARK    3  A    between atoms: C_17  and  O_18
REMARK    4  A    between atoms: C_19  and  O_20
REMARK    5  A    between atoms: C_21  and  O_22
REMARK                            x       y       z     vdW  Elec       q    Type
REMARK                         _______ _______ _______ _____ _____    ______ ____
ROOT
ATOM      1  C   UNL     1       0.165  15.491  18.738  0.00  0.00    +0.000 C 
ATOM      2  N   UNL     1       0.262  14.245  19.546  0.00  0.00    +0.000 NA
ATOM      3  C   UNL     1       1.323  13.333  18.913  0.00  0.00    +0.000 C 
ATOM      4  C   UNL     1       1.070  11.765  18.945  0.00  0.00    +0.000 C 
ATOM      5  C   UNL     1      -0.421  11.446  19.250  0.00  0.00    +0.000 C 
ATOM      6  C   UNL     1      -0.955  12.825  18.604  0.00  0.00    +0.000 C 
ATOM      7  C   UNL     1      -1.180  13.755  19.731  0.00  0.00    +0.000 C 
ATOM      8  C   UNL     1      -2.532  12.770  20.186  0.00  0.00    +0.000 C 
ATOM      9  C   UNL     1      -2.881  11.553  19.177  0.00  0.00    +0.000 A 
ATOM     10  C   UNL     1      -4.015  11.616  18.356  0.00  0.00    +0.000 A 
ATOM     11  C   UNL     1      -3.918  11.066  17.069  0.00  0.00    +0.000 A 
ATOM     12  C   UNL     1      -2.799  10.316  16.652  0.00  0.00    +0.000 A 
ATOM     13  C   UNL     1      -1.703  10.166  17.466  0.00  0.00    +0.000 A 
ATOM     14  C   UNL     1      -1.695  10.858  18.663  0.00  0.00    +0.000 A 
ENDROOT
BRANCH   5  15
ATOM     15  C   UNL     1      -0.301  10.713  20.639  0.00  0.00    +0.000 A 
ATOM     16  C   UNL     1      -0.180   9.321  20.822  0.00  0.00    +0.000 A 
ATOM     17  C   UNL     1      -0.324   8.745  22.094  0.00  0.00    +0.000 A 
ATOM     18  C   UNL     1      -0.578   9.522  23.224  0.00  0.00    +0.000 A 
ATOM     19  C   UNL     1      -0.691  10.900  23.084  0.00  0.00    +0.000 A 
ATOM     20  C   UNL     1      -0.560  11.477  21.816  0.00  0.00    +0.000 A 
ENDBRANCH   5  15
BRANCH  11  21
ATOM     21  O   UNL     1      -4.815  11.412  16.086  0.00  0.00    +0.000 OA
ATOM     22  H   UNL     1      -5.617  10.878  16.236  0.00  0.00    +0.000 HD
ENDBRANCH  11  21
BRANCH  12  23
ATOM     23  O   UNL     1      -2.693   9.900  15.347  0.00  0.00    +0.000 OA
ATOM     24  H   UNL     1      -1.760  10.079  15.110  0.00  0.00    +0.000 HD
ENDBRANCH  12  23
BRANCH  13  25
ATOM     25  O   UNL     1      -0.551   9.588  17.017  0.00  0.00    +0.000 OA
ATOM     26  H   UNL     1       0.172  10.074  17.450  0.00  0.00    +0.000 HD
ENDBRANCH  13  25
TORSDOF 4
ENDMDL
MODEL 7
REMARK VINA RESULT:      -6.2      6.304      8.616
REMARK  Name = 
REMARK  5 active torsions:
REMARK  status: ('A' for Active; 'I' for Inactive)
REMARK    1  A    between atoms: C_1  and  N_2
REMARK    2  A    between atoms: C_5  and  C_6
REMARK    3  A    between atoms: C_17  and  O_18
REMARK    4  A    between atoms: C_19  and  O_20
REMARK    5  A    between atoms: C_21  and  O_22
REMARK                            x       y       z     vdW  Elec       q    Type
REMARK                         _______ _______ _______ _____ _____    ______ ____
ROOT
ATOM      1  C   UNL     1       2.684  14.230  18.554  0.00  0.00    +0.000 C 
ATOM      2  N   UNL     1       1.443  13.534  18.118  0.00  0.00    +0.000 NA
ATOM      3  C   UNL     1       0.241  14.198  18.807  0.00  0.00    +0.000 C 
ATOM      4  C   UNL     1      -0.968  13.269  19.250  0.00  0.00    +0.000 C 
ATOM      5  C   UNL     1      -0.542  11.773  19.278  0.00  0.00    +0.000 C 
ATOM      6  C   UNL     1       1.004  12.114  19.592  0.00  0.00    +0.000 C 
ATOM      7  C   UNL     1       1.719  12.036  18.300  0.00  0.00    +0.000 C 
ATOM      8  C   UNL     1       1.484  10.320  18.349  0.00  0.00    +0.000 C 
ATOM      9  C   UNL     1       0.795   9.747  19.697  0.00  0.00    +0.000 A 
ATOM     10  C   UNL     1       1.553   9.031  20.633  0.00  0.00    +0.000 A 
ATOM     11  C   UNL     1       1.251   9.213  21.990  0.00  0.00    +0.000 A 
ATOM     12  C   UNL     1       0.123   9.940  22.422  0.00  0.00    +0.000 A 
ATOM     13  C   UNL     1      -0.689  10.586  21.522  0.00  0.00    +0.000 A 
ATOM     14  C   UNL     1      -0.305  10.582  20.194  0.00  0.00    +0.000 A 
ENDROOT
BRANCH   5  15
ATOM     15  C   UNL     1      -1.456  11.171  18.145  0.00  0.00    +0.000 A 
ATOM     16  C   UNL     1      -1.704  11.766  16.892  0.00  0.00    +0.000 A 
ATOM     17  C   UNL     1      -2.718  11.279  16.051  0.00  0.00    +0.000 A 
ATOM     18  C   UNL     1      -3.505  10.186  16.412  0.00  0.00    +0.000 A 
ATOM     19  C   UNL     1      -3.280   9.566  17.635  0.00  0.00    +0.000 A 
ATOM     20  C   UNL     1      -2.280  10.055  18.481  0.00  0.00    +0.000 A 
ENDBRANCH   5  15
BRANCH  11  21
ATOM     21  O   UNL     1       2.159   8.871  22.965  0.00  0.00    +0.000 OA
ATOM     22  H   UNL     1       1.642   8.599  23.747  0.00  0.00    +0.000 HD
ENDBRANCH  11  21
BRANCH  12  23
ATOM     23  O   UNL     1      -0.066  10.195  23.758  0.00  0.00    +0.000 OA
ATOM     24  H   UNL     1      -0.548   9.409  24.090  0.00  0.00    +0.000 HD
ENDBRANCH  12  23
BRANCH  13  25
ATOM     25  O   UNL     1      -1.684  11.429  21.931  0.00  0.00    +0.000 OA
ATOM     26  H   UNL     1      -1.485  12.287  21.518  0.00  0.00    +0.000 HD
ENDBRANCH  13  25
TORSDOF 4
ENDMDL
MODEL 8
REMARK VINA RESULT:      -6.1      2.754      5.545
REMARK  Name = 
REMARK  5 active torsions:
REMARK  status: ('A' for Active; 'I' for Inactive)
REMARK    1  A    between atoms: C_1  and  N_2
REMARK    2  A    between atoms: C_5  and  C_6
REMARK    3  A    between atoms: C_17  and  O_18
REMARK    4  A    between atoms: C_19  and  O_20
REMARK    5  A    between atoms: C_21  and  O_22
REMARK                            x       y       z     vdW  Elec       q    Type
REMARK                         _______ _______ _______ _____ _____    ______ ____
ROOT
ATOM      1  C   UNL     1       8.341   5.398  20.430  0.00  0.00    +0.000 C 
ATOM      2  N   UNL     1       7.928   5.333  19.002  0.00  0.00    +0.000 NA
ATOM      3  C   UNL     1       7.918   6.759  18.431  0.00  0.00    +0.000 C 
ATOM      4  C   UNL     1       6.794   7.128  17.371  0.00  0.00    +0.000 C 
ATOM      5  C   UNL     1       5.635   6.092  17.403  0.00  0.00    +0.000 C 
ATOM      6  C   UNL     1       5.871   5.722  18.956  0.00  0.00    +0.000 C 
ATOM      7  C   UNL     1       6.659   4.472  18.973  0.00  0.00    +0.000 C 
ATOM      8  C   UNL     1       5.246   3.652  18.393  0.00  0.00    +0.000 C 
ATOM      9  C   UNL     1       3.912   4.561  18.272  0.00  0.00    +0.000 A 
ATOM     10  C   UNL     1       2.857   4.398  19.180  0.00  0.00    +0.000 A 
ATOM     11  C   UNL     1       2.154   5.547  19.573  0.00  0.00    +0.000 A 
ATOM     12  C   UNL     1       2.357   6.802  18.964  0.00  0.00    +0.000 A 
ATOM     13  C   UNL     1       3.330   6.975  18.009  0.00  0.00    +0.000 A 
ATOM     14  C   UNL     1       4.164   5.906  17.742  0.00  0.00    +0.000 A 
ENDROOT
BRANCH   5  15
ATOM     15  C   UNL     1       5.749   5.458  15.965  0.00  0.00    +0.000 A 
ATOM     16  C   UNL     1       4.739   4.723  15.313  0.00  0.00    +0.000 A 
ATOM     17  C   UNL     1       5.017   3.996  14.144  0.00  0.00    +0.000 A 
ATOM     18  C   UNL     1       6.291   3.982  13.577  0.00  0.00    +0.000 A 
ATOM     19  C   UNL     1       7.308   4.706  14.185  0.00  0.00    +0.000 A 
ATOM     20  C   UNL     1       7.039   5.423  15.356  0.00  0.00    +0.000 A 
ENDBRANCH   5  15
BRANCH  11  21
ATOM     21  O   UNL     1       1.387   5.546  20.714  0.00  0.00    +0.000 OA
ATOM     22  H   UNL     1       1.480   6.430  21.117  0.00  0.00    +0.000 HD
ENDBRANCH  11  21
BRANCH  12  23
ATOM     23  O   UNL     1       1.736   7.921  19.461  0.00  0.00    +0.000 OA
ATOM     24  H   UNL     1       1.868   8.600  18.768  0.00  0.00    +0.000 HD
ENDBRANCH  12  23
BRANCH  13  25
ATOM     25  O   UNL     1       3.651   8.214  17.532  0.00  0.00    +0.000 OA
ATOM     26  H   UNL     1       3.129   8.841  18.061  0.00  0.00    +0.000 HD
ENDBRANCH  13  25
TORSDOF 4
ENDMDL
MODEL 9
REMARK VINA RESULT:      -6.1      8.920     10.937
REMARK  Name = 
REMARK  5 active torsions:
REMARK  status: ('A' for Active; 'I' for Inactive)
REMARK    1  A    between atoms: C_1  and  N_2
REMARK    2  A    between atoms: C_5  and  C_6
REMARK    3  A    between atoms: C_17  and  O_18
REMARK    4  A    between atoms: C_19  and  O_20
REMARK    5  A    between atoms: C_21  and  O_22
REMARK                            x       y       z     vdW  Elec       q    Type
REMARK                         _______ _______ _______ _____ _____    ______ ____
ROOT
ATOM      1  C   UNL     1       2.603  13.484  20.770  0.00  0.00    +0.000 C 
ATOM      2  N   UNL     1       1.521  12.821  19.993  0.00  0.00    +0.000 NA
ATOM      3  C   UNL     1       0.930  13.842  19.009  0.00  0.00    +0.000 C 
ATOM      4  C   UNL     1      -0.631  13.779  18.722  0.00  0.00    +0.000 C 
ATOM      5  C   UNL     1      -1.366  12.948  19.811  0.00  0.00    +0.000 C 
ATOM      6  C   UNL     1      -0.279  13.291  20.953  0.00  0.00    +0.000 C 
ATOM      7  C   UNL     1       0.629  12.126  21.029  0.00  0.00    +0.000 C 
ATOM      8  C   UNL     1      -0.682  11.235  21.730  0.00  0.00    +0.000 C 
ATOM      9  C   UNL     1      -2.028  12.085  22.022  0.00  0.00    +0.000 A 
ATOM     10  C   UNL     1      -2.388  12.416  23.335  0.00  0.00    +0.000 A 
ATOM     11  C   UNL     1      -2.989  13.665  23.550  0.00  0.00    +0.000 A 
ATOM     12  C   UNL     1      -3.391  14.502  22.489  0.00  0.00    +0.000 A 
ATOM     13  C   UNL     1      -3.126  14.166  21.183  0.00  0.00    +0.000 A 
ATOM     14  C   UNL     1      -2.366  13.034  20.954  0.00  0.00    +0.000 A 
ENDROOT
BRANCH   5  15
ATOM     15  C   UNL     1      -1.906  11.736  18.962  0.00  0.00    +0.000 A 
ATOM     16  C   UNL     1      -1.109  10.796  18.278  0.00  0.00    +0.000 A 
ATOM     17  C   UNL     1      -1.677   9.904  17.355  0.00  0.00    +0.000 A 
ATOM     18  C   UNL     1      -3.046   9.901  17.088  0.00  0.00    +0.000 A 
ATOM     19  C   UNL     1      -3.865  10.804  17.754  0.00  0.00    +0.000 A 
ATOM     20  C   UNL     1      -3.302  11.703  18.665  0.00  0.00    +0.000 A 
ENDBRANCH   5  15
BRANCH  11  21
ATOM     21  O   UNL     1      -3.020  14.224  24.806  0.00  0.00    +0.000 OA
ATOM     22  H   UNL     1      -3.960  14.369  25.026  0.00  0.00    +0.000 HD
ENDBRANCH  11  21
BRANCH  12  23
ATOM     23  O   UNL     1      -3.863  15.766  22.745  0.00  0.00    +0.000 OA
ATOM     24  H   UNL     1      -3.882  16.201  21.868  0.00  0.00    +0.000 HD
ENDBRANCH  12  23
BRANCH  13  25
ATOM     25  O   UNL     1      -3.357  15.039  20.158  0.00  0.00    +0.000 OA
ATOM     26  H   UNL     1      -4.203  14.761  19.765  0.00  0.00    +0.000 HD
ENDBRANCH  13  25
TORSDOF 4
ENDMDL
