MODEL 1
REMARK VINA RESULT:      -7.8      0.000      0.000
REMARK  Name = 
REMARK  6 active torsions:
REMARK  status: ('A' for Active; 'I' for Inactive)
REMARK    1  A    between atoms: N_4  and  C_5
REMARK    2  A    between atoms: C_8  and  C_9
REMARK    3  A    between atoms: C_9  and  O_11
REMARK    4  A    between atoms: O_11  and  C_12
REMARK    5  A    between atoms: C_12  and  C_13
REMARK    6  A    between atoms: C_13  and  C_15
REMARK                            x       y       z     vdW  Elec       q    Type
REMARK                         _______ _______ _______ _____ _____    ______ ____
ROOT
ATOM      1  C   UNL     1       1.359   2.551  18.318  0.00  0.00    +0.000 C 
ATOM      2  O   UNL     1       0.327   1.924  18.395  0.00  0.00    +0.000 OA
ENDROOT
BRANCH   1   6
ATOM      3  C   UNL     1       1.792   6.512  20.171  0.00  0.00    +0.000 A 
ATOM      4  C   UNL     1       1.565   5.370  20.927  0.00  0.00    +0.000 A 
ATOM      5  C   UNL     1       1.443   4.104  20.317  0.00  0.00    +0.000 A 
ATOM      6  C   UNL     1       1.535   3.942  18.929  0.00  0.00    +0.000 A 
ATOM      7  C   UNL     1       1.726   5.095  18.164  0.00  0.00    +0.000 A 
ATOM      8  C   UNL     1       1.846   6.369  18.766  0.00  0.00    +0.000 A 
BRANCH   3  12
ATOM      9  N   UNL     1       1.455   9.803  21.704  0.00  0.00    +0.000 N 
ATOM     10  C   UNL     1       0.997   8.598  21.305  0.00  0.00    +0.000 C 
ATOM     11  O   UNL     1      -0.184   8.316  21.497  0.00  0.00    +0.000 OA
ATOM     12  N   UNL     1       1.949   7.813  20.718  0.00  0.00    +0.000 N 
ATOM     13  H   UNL     1       0.732  10.407  22.073  0.00  0.00    +0.000 HD
ATOM     14  H   UNL     1       2.084  10.264  21.106  0.00  0.00    +0.000 HD
ATOM     15  H   UNL     1       2.896   8.137  20.882  0.00  0.00    +0.000 HD
ENDBRANCH   3  12
ENDBRANCH   1   6
BRANCH   1  16
ATOM     16  O   UNL     1       2.489   2.108  17.685  0.00  0.00    +0.000 OA
BRANCH  16  17
ATOM     17  C   UNL     1       3.537   1.517  18.495  0.00  0.00    +0.000 C 
BRANCH  17  18
ATOM     18  C   UNL     1       4.513   2.427  19.340  0.00  0.00    +0.000 C 
ATOM     19  O   UNL     1       4.926   2.061  20.440  0.00  0.00    +0.000 OA
BRANCH  18  20
ATOM     20  C   UNL     1       4.961   3.717  18.740  0.00  0.00    +0.000 A 
ATOM     21  C   UNL     1       5.479   4.770  19.479  0.00  0.00    +0.000 A 
ATOM     22  N   UNL     1       5.187   5.878  18.731  0.00  0.00    +0.000 N 
ATOM     23  C   UNL     1       5.388   5.550  17.418  0.00  0.00    +0.000 A 
ATOM     24  C   UNL     1       5.723   6.356  16.330  0.00  0.00    +0.000 A 
ATOM     25  C   UNL     1       5.827   5.734  15.086  0.00  0.00    +0.000 A 
ATOM     26  C   UNL     1       5.507   4.385  14.956  0.00  0.00    +0.000 A 
ATOM     27  C   UNL     1       5.107   3.607  16.063  0.00  0.00    +0.000 A 
ATOM     28  C   UNL     1       5.120   4.174  17.364  0.00  0.00    +0.000 A 
ATOM     29  H   UNL     1       4.894   6.793  19.073  0.00  0.00    +0.000 HD
ENDBRANCH  18  20
ENDBRANCH  17  18
ENDBRANCH  16  17
ENDBRANCH   1  16
TORSDOF 6
ENDMDL
MODEL 2
REMARK VINA RESULT:      -7.6      1.643      1.963
REMARK  Name = 
REMARK  6 active torsions:
REMARK  status: ('A' for Active; 'I' for Inactive)
REMARK    1  A    between atoms: N_4  and  C_5
REMARK    2  A    between atoms: C_8  and  C_9
REMARK    3  A    between atoms: C_9  and  O_11
REMARK    4  A    between atoms: O_11  and  C_12
REMARK    5  A    between atoms: C_12  and  C_13
REMARK    6  A    between atoms: C_13  and  C_15
REMARK                            x       y       z     vdW  Elec       q    Type
REMARK                         _______ _______ _______ _____ _____    ______ ____
ROOT
ATOM      1  C   UNL     1       1.715   3.385  20.168  0.00  0.00    +0.000 C 
ATOM      2  O   UNL     1       1.495   3.129  21.330  0.00  0.00    +0.000 OA
ENDROOT
BRANCH   1   6
ATOM      3  C   UNL     1       2.200   7.444  18.555  0.00  0.00    +0.000 A 
ATOM      4  C   UNL     1       2.030   6.342  17.728  0.00  0.00    +0.000 A 
ATOM      5  C   UNL     1       1.861   5.047  18.263  0.00  0.00    +0.000 A 
ATOM      6  C   UNL     1       1.866   4.813  19.644  0.00  0.00    +0.000 A 
ATOM      7  C   UNL     1       2.074   5.916  20.476  0.00  0.00    +0.000 A 
ATOM      8  C   UNL     1       2.248   7.216  19.949  0.00  0.00    +0.000 A 
BRANCH   3  12
ATOM      9  N   UNL     1       1.901  10.964  17.655  0.00  0.00    +0.000 N 
ATOM     10  C   UNL     1       1.482   9.821  18.238  0.00  0.00    +0.000 C 
ATOM     11  O   UNL     1       0.406   9.814  18.830  0.00  0.00    +0.000 OA
ATOM     12  N   UNL     1       2.351   8.776  18.089  0.00  0.00    +0.000 N 
ATOM     13  H   UNL     1       1.224  11.714  17.706  0.00  0.00    +0.000 HD
ATOM     14  H   UNL     1       2.336  10.886  16.776  0.00  0.00    +0.000 HD
ATOM     15  H   UNL     1       3.276   9.060  17.784  0.00  0.00    +0.000 HD
ENDBRANCH   3  12
ENDBRANCH   1   6
BRANCH   1  16
ATOM     16  O   UNL     1       1.855   2.445  19.181  0.00  0.00    +0.000 OA
BRANCH  16  17
ATOM     17  C   UNL     1       3.167   1.863  18.976  0.00  0.00    +0.000 C 
BRANCH  17  18
ATOM     18  C   UNL     1       4.456   2.546  19.581  0.00  0.00    +0.000 C 
ATOM     19  O   UNL     1       5.028   2.065  20.559  0.00  0.00    +0.000 OA
BRANCH  18  20
ATOM     20  C   UNL     1       4.989   3.760  18.898  0.00  0.00    +0.000 A 
ATOM     21  C   UNL     1       5.676   4.772  19.553  0.00  0.00    +0.000 A 
ATOM     22  N   UNL     1       5.445   5.882  18.787  0.00  0.00    +0.000 N 
ATOM     23  C   UNL     1       5.501   5.495  17.476  0.00  0.00    +0.000 A 
ATOM     24  C   UNL     1       5.831   6.225  16.335  0.00  0.00    +0.000 A 
ATOM     25  C   UNL     1       5.765   5.558  15.112  0.00  0.00    +0.000 A 
ATOM     26  C   UNL     1       5.293   4.250  15.059  0.00  0.00    +0.000 A 
ATOM     27  C   UNL     1       4.903   3.554  16.224  0.00  0.00    +0.000 A 
ATOM     28  C   UNL     1       5.083   4.155  17.497  0.00  0.00    +0.000 A 
ATOM     29  H   UNL     1       5.281   6.833  19.115  0.00  0.00    +0.000 HD
ENDBRANCH  18  20
ENDBRANCH  17  18
ENDBRANCH  16  17
ENDBRANCH   1  16
TORSDOF 6
ENDMDL
MODEL 3
REMARK VINA RESULT:      -7.5      4.191      8.253
REMARK  Name = 
REMARK  6 active torsions:
REMARK  status: ('A' for Active; 'I' for Inactive)
REMARK    1  A    between atoms: N_4  and  C_5
REMARK    2  A    between atoms: C_8  and  C_9
REMARK    3  A    between atoms: C_9  and  O_11
REMARK    4  A    between atoms: O_11  and  C_12
REMARK    5  A    between atoms: C_12  and  C_13
REMARK    6  A    between atoms: C_13  and  C_15
REMARK                            x       y       z     vdW  Elec       q    Type
REMARK                         _______ _______ _______ _____ _____    ______ ____
ROOT
ATOM      1  C   UNL     1       1.919   8.864  18.105  0.00  0.00    +0.000 C 
ATOM      2  O   UNL     1       2.269   9.590  17.202  0.00  0.00    +0.000 OA
ENDROOT
BRANCH   1   6
ATOM      3  C   UNL     1       3.941   5.118  19.194  0.00  0.00    +0.000 A 
ATOM      4  C   UNL     1       2.950   5.674  19.991  0.00  0.00    +0.000 A 
ATOM      5  C   UNL     1       2.300   6.870  19.619  0.00  0.00    +0.000 A 
ATOM      6  C   UNL     1       2.630   7.553  18.441  0.00  0.00    +0.000 A 
ATOM      7  C   UNL     1       3.653   7.013  17.657  0.00  0.00    +0.000 A 
ATOM      8  C   UNL     1       4.312   5.818  18.023  0.00  0.00    +0.000 A 
BRANCH   3  12
ATOM      9  N   UNL     1       5.023   1.686  19.783  0.00  0.00    +0.000 N 
ATOM     10  C   UNL     1       4.138   2.631  19.400  0.00  0.00    +0.000 C 
ATOM     11  O   UNL     1       3.025   2.282  19.015  0.00  0.00    +0.000 OA
ATOM     12  N   UNL     1       4.619   3.907  19.492  0.00  0.00    +0.000 N 
ATOM     13  H   UNL     1       4.640   0.750  19.781  0.00  0.00    +0.000 HD
ATOM     14  H   UNL     1       5.576   1.883  20.572  0.00  0.00    +0.000 HD
ATOM     15  H   UNL     1       5.628   3.951  19.596  0.00  0.00    +0.000 HD
ENDBRANCH   3  12
ENDBRANCH   1   6
BRANCH   1  16
ATOM     16  O   UNL     1       0.859   9.114  18.934  0.00  0.00    +0.000 OA
BRANCH  16  17
ATOM     17  C   UNL     1       0.752  10.434  19.525  0.00  0.00    +0.000 C 
BRANCH  17  18
ATOM     18  C   UNL     1      -0.571  10.884  20.260  0.00  0.00    +0.000 C 
ATOM     19  O   UNL     1      -0.637  10.907  21.489  0.00  0.00    +0.000 OA
BRANCH  18  20
ATOM     20  C   UNL     1      -1.720  11.332  19.419  0.00  0.00    +0.000 A 
ATOM     21  C   UNL     1      -2.461  12.476  19.677  0.00  0.00    +0.000 A 
ATOM     22  N   UNL     1      -3.686  12.209  19.129  0.00  0.00    +0.000 N 
ATOM     23  C   UNL     1      -3.474  11.554  17.947  0.00  0.00    +0.000 A 
ATOM     24  C   UNL     1      -4.259  11.494  16.797  0.00  0.00    +0.000 A 
ATOM     25  C   UNL     1      -3.791  10.704  15.748  0.00  0.00    +0.000 A 
ATOM     26  C   UNL     1      -2.636   9.945  15.912  0.00  0.00    +0.000 A 
ATOM     27  C   UNL     1      -1.894   9.973  17.112  0.00  0.00    +0.000 A 
ATOM     28  C   UNL     1      -2.267  10.867  18.150  0.00  0.00    +0.000 A 
ATOM     29  H   UNL     1      -4.598  12.464  19.507  0.00  0.00    +0.000 HD
ENDBRANCH  18  20
ENDBRANCH  17  18
ENDBRANCH  16  17
ENDBRANCH   1  16
TORSDOF 6
ENDMDL
MODEL 4
REMARK VINA RESULT:      -7.4      2.854      3.796
REMARK  Name = 
REMARK  6 active torsions:
REMARK  status: ('A' for Active; 'I' for Inactive)
REMARK    1  A    between atoms: N_4  and  C_5
REMARK    2  A    between atoms: C_8  and  C_9
REMARK    3  A    between atoms: C_9  and  O_11
REMARK    4  A    between atoms: O_11  and  C_12
REMARK    5  A    between atoms: C_12  and  C_13
REMARK    6  A    between atoms: C_13  and  C_15
REMARK                            x       y       z     vdW  Elec       q    Type
REMARK                         _______ _______ _______ _____ _____    ______ ____
ROOT
ATOM      1  C   UNL     1       2.836   5.981  19.796  0.00  0.00    +0.000 C 
ATOM      2  O   UNL     1       2.304   5.228  20.580  0.00  0.00    +0.000 OA
ENDROOT
BRANCH   1   6
ATOM      3  C   UNL     1       1.026   9.846  18.749  0.00  0.00    +0.000 A 
ATOM      4  C   UNL     1       0.975   9.338  20.040  0.00  0.00    +0.000 A 
ATOM      5  C   UNL     1       1.574   8.102  20.362  0.00  0.00    +0.000 A 
ATOM      6  C   UNL     1       2.236   7.330  19.399  0.00  0.00    +0.000 A 
ATOM      7  C   UNL     1       2.256   7.822  18.092  0.00  0.00    +0.000 A 
ATOM      8  C   UNL     1       1.655   9.058  17.758  0.00  0.00    +0.000 A 
BRANCH   3  12
ATOM      9  N   UNL     1      -1.062  12.671  17.775  0.00  0.00    +0.000 N 
ATOM     10  C   UNL     1      -0.851  11.400  18.176  0.00  0.00    +0.000 C 
ATOM     11  O   UNL     1      -1.817  10.660  18.341  0.00  0.00    +0.000 OA
ATOM     12  N   UNL     1       0.468  11.091  18.359  0.00  0.00    +0.000 N 
ATOM     13  H   UNL     1      -2.033  12.875  17.573  0.00  0.00    +0.000 HD
ATOM     14  H   UNL     1      -0.437  13.042  17.113  0.00  0.00    +0.000 HD
ATOM     15  H   UNL     1       1.070  11.906  18.406  0.00  0.00    +0.000 HD
ENDBRANCH   3  12
ENDBRANCH   1   6
BRANCH   1  16
ATOM     16  O   UNL     1       4.027   5.730  19.168  0.00  0.00    +0.000 OA
BRANCH  16  17
ATOM     17  C   UNL     1       4.026   5.618  17.723  0.00  0.00    +0.000 C 
BRANCH  17  18
ATOM     18  C   UNL     1       4.664   4.362  17.011  0.00  0.00    +0.000 C 
ATOM     19  O   UNL     1       4.230   3.228  17.216  0.00  0.00    +0.000 OA
BRANCH  18  20
ATOM     20  C   UNL     1       5.773   4.596  16.040  0.00  0.00    +0.000 A 
ATOM     21  C   UNL     1       7.034   5.042  16.407  0.00  0.00    +0.000 A 
ATOM     22  N   UNL     1       7.498   5.684  15.291  0.00  0.00    +0.000 N 
ATOM     23  C   UNL     1       7.114   4.947  14.205  0.00  0.00    +0.000 A 
ATOM     24  C   UNL     1       7.693   4.838  12.941  0.00  0.00    +0.000 A 
ATOM     25  C   UNL     1       7.045   4.023  12.013  0.00  0.00    +0.000 A 
ATOM     26  C   UNL     1       5.823   3.438  12.336  0.00  0.00    +0.000 A 
ATOM     27  C   UNL     1       5.226   3.618  13.602  0.00  0.00    +0.000 A 
ATOM     28  C   UNL     1       5.922   4.330  14.615  0.00  0.00    +0.000 A 
ATOM     29  H   UNL     1       8.049   6.542  15.258  0.00  0.00    +0.000 HD
ENDBRANCH  18  20
ENDBRANCH  17  18
ENDBRANCH  16  17
ENDBRANCH   1  16
TORSDOF 6
ENDMDL
MODEL 5
REMARK VINA RESULT:      -7.4      3.182      7.172
REMARK  Name = 
REMARK  6 active torsions:
REMARK  status: ('A' for Active; 'I' for Inactive)
REMARK    1  A    between atoms: N_4  and  C_5
REMARK    2  A    between atoms: C_8  and  C_9
REMARK    3  A    between atoms: C_9  and  O_11
REMARK    4  A    between atoms: O_11  and  C_12
REMARK    5  A    between atoms: C_12  and  C_13
REMARK    6  A    between atoms: C_13  and  C_15
REMARK                            x       y       z     vdW  Elec       q    Type
REMARK                         _______ _______ _______ _____ _____    ______ ____
ROOT
ATOM      1  C   UNL     1       5.491   5.975  18.053  0.00  0.00    +0.000 C 
ATOM      2  O   UNL     1       5.593   5.488  19.157  0.00  0.00    +0.000 OA
ENDROOT
BRANCH   1   6
ATOM      3  C   UNL     1       6.246   3.813  14.303  0.00  0.00    +0.000 A 
ATOM      4  C   UNL     1       6.876   5.015  14.595  0.00  0.00    +0.000 A 
ATOM      5  C   UNL     1       6.634   5.689  15.811  0.00  0.00    +0.000 A 
ATOM      6  C   UNL     1       5.743   5.185  16.769  0.00  0.00    +0.000 A 
ATOM      7  C   UNL     1       5.081   3.995  16.459  0.00  0.00    +0.000 A 
ATOM      8  C   UNL     1       5.315   3.315  15.242  0.00  0.00    +0.000 A 
BRANCH   3  12
ATOM      9  N   UNL     1       6.099   2.130  11.072  0.00  0.00    +0.000 N 
ATOM     10  C   UNL     1       5.617   2.930  12.046  0.00  0.00    +0.000 C 
ATOM     11  O   UNL     1       4.513   3.448  11.899  0.00  0.00    +0.000 OA
ATOM     12  N   UNL     1       6.460   3.069  13.113  0.00  0.00    +0.000 N 
ATOM     13  H   UNL     1       5.443   1.974  10.317  0.00  0.00    +0.000 HD
ATOM     14  H   UNL     1       6.575   1.317  11.354  0.00  0.00    +0.000 HD
ATOM     15  H   UNL     1       7.407   2.760  12.921  0.00  0.00    +0.000 HD
ENDBRANCH   3  12
ENDBRANCH   1   6
BRANCH   1  16
ATOM     16  O   UNL     1       5.142   7.277  17.810  0.00  0.00    +0.000 OA
BRANCH  16  17
ATOM     17  C   UNL     1       3.823   7.539  17.268  0.00  0.00    +0.000 C 
BRANCH  17  18
ATOM     18  C   UNL     1       2.594   7.794  18.226  0.00  0.00    +0.000 C 
ATOM     19  O   UNL     1       1.937   8.832  18.151  0.00  0.00    +0.000 OA
BRANCH  18  20
ATOM     20  C   UNL     1       2.221   6.716  19.188  0.00  0.00    +0.000 A 
ATOM     21  C   UNL     1       1.888   6.951  20.514  0.00  0.00    +0.000 A 
ATOM     22  N   UNL     1       2.215   5.784  21.150  0.00  0.00    +0.000 N 
ATOM     23  C   UNL     1       1.853   4.752  20.327  0.00  0.00    +0.000 A 
ATOM     24  C   UNL     1       1.496   3.440  20.633  0.00  0.00    +0.000 A 
ATOM     25  C   UNL     1       1.208   2.594  19.563  0.00  0.00    +0.000 A 
ATOM     26  C   UNL     1       1.375   3.045  18.256  0.00  0.00    +0.000 A 
ATOM     27  C   UNL     1       1.802   4.360  17.975  0.00  0.00    +0.000 A 
ATOM     28  C   UNL     1       1.975   5.287  19.036  0.00  0.00    +0.000 A 
ATOM     29  H   UNL     1       2.631   5.683  22.076  0.00  0.00    +0.000 HD
ENDBRANCH  18  20
ENDBRANCH  17  18
ENDBRANCH  16  17
ENDBRANCH   1  16
TORSDOF 6
ENDMDL
MODEL 6
REMARK VINA RESULT:      -7.4      2.639      3.610
REMARK  Name = 
REMARK  6 active torsions:
REMARK  status: ('A' for Active; 'I' for Inactive)
REMARK    1  A    between atoms: N_4  and  C_5
REMARK    2  A    between atoms: C_8  and  C_9
REMARK    3  A    between atoms: C_9  and  O_11
REMARK    4  A    between atoms: O_11  and  C_12
REMARK    5  A    between atoms: C_12  and  C_13
REMARK    6  A    between atoms: C_13  and  C_15
REMARK                            x       y       z     vdW  Elec       q    Type
REMARK                         _______ _______ _______ _____ _____    ______ ____
ROOT
ATOM      1  C   UNL     1       2.802   6.152  19.560  0.00  0.00    +0.000 C 
ATOM      2  O   UNL     1       3.990   6.013  19.740  0.00  0.00    +0.000 OA
ENDROOT
BRANCH   1   6
ATOM      3  C   UNL     1       1.028  10.081  18.708  0.00  0.00    +0.000 A 
ATOM      4  C   UNL     1       1.764   9.388  17.758  0.00  0.00    +0.000 A 
ATOM      5  C   UNL     1       2.314   8.120  18.042  0.00  0.00    +0.000 A 
ATOM      6  C   UNL     1       2.153   7.510  19.294  0.00  0.00    +0.000 A 
ATOM      7  C   UNL     1       1.443   8.223  20.263  0.00  0.00    +0.000 A 
ATOM      8  C   UNL     1       0.892   9.495  19.988  0.00  0.00    +0.000 A 
BRANCH   3  12
ATOM      9  N   UNL     1       0.105  13.599  18.456  0.00  0.00    +0.000 N 
ATOM     10  C   UNL     1       0.938  12.582  18.764  0.00  0.00    +0.000 C 
ATOM     11  O   UNL     1       2.039  12.838  19.244  0.00  0.00    +0.000 OA
ATOM     12  N   UNL     1       0.425  11.346  18.484  0.00  0.00    +0.000 N 
ATOM     13  H   UNL     1       0.460  14.507  18.730  0.00  0.00    +0.000 HD
ATOM     14  H   UNL     1      -0.849  13.473  18.655  0.00  0.00    +0.000 HD
ATOM     15  H   UNL     1      -0.385  11.374  17.873  0.00  0.00    +0.000 HD
ENDBRANCH   3  12
ENDBRANCH   1   6
BRANCH   1  16
ATOM     16  O   UNL     1       1.893   5.128  19.569  0.00  0.00    +0.000 OA
BRANCH  16  17
ATOM     17  C   UNL     1       1.601   4.463  18.314  0.00  0.00    +0.000 C 
BRANCH  17  18
ATOM     18  C   UNL     1       2.517   3.288  17.792  0.00  0.00    +0.000 C 
ATOM     19  O   UNL     1       2.026   2.243  17.365  0.00  0.00    +0.000 OA
BRANCH  18  20
ATOM     20  C   UNL     1       3.993   3.504  17.782  0.00  0.00    +0.000 A 
ATOM     21  C   UNL     1       4.845   3.032  18.769  0.00  0.00    +0.000 A 
ATOM     22  N   UNL     1       5.902   3.901  18.741  0.00  0.00    +0.000 N 
ATOM     23  C   UNL     1       6.160   4.189  17.428  0.00  0.00    +0.000 A 
ATOM     24  C   UNL     1       7.347   4.575  16.808  0.00  0.00    +0.000 A 
ATOM     25  C   UNL     1       7.294   4.839  15.439  0.00  0.00    +0.000 A 
ATOM     26  C   UNL     1       6.072   4.803  14.773  0.00  0.00    +0.000 A 
ATOM     27  C   UNL     1       4.873   4.472  15.440  0.00  0.00    +0.000 A 
ATOM     28  C   UNL     1       4.911   4.069  16.800  0.00  0.00    +0.000 A 
ATOM     29  H   UNL     1       6.427   4.260  19.538  0.00  0.00    +0.000 HD
ENDBRANCH  18  20
ENDBRANCH  17  18
ENDBRANCH  16  17
ENDBRANCH   1  16
TORSDOF 6
ENDMDL
MODEL 7
REMARK VINA RESULT:      -7.3      2.206      3.023
REMARK  Name = 
REMARK  6 active torsions:
REMARK  status: ('A' for Active; 'I' for Inactive)
REMARK    1  A    between atoms: N_4  and  C_5
REMARK    2  A    between atoms: C_8  and  C_9
REMARK    3  A    between atoms: C_9  and  O_11
REMARK    4  A    between atoms: O_11  and  C_12
REMARK    5  A    between atoms: C_12  and  C_13
REMARK    6  A    between atoms: C_13  and  C_15
REMARK                            x       y       z     vdW  Elec       q    Type
REMARK                         _______ _______ _______ _____ _____    ______ ____
ROOT
ATOM      1  C   UNL     1       1.821   5.002  20.558  0.00  0.00    +0.000 C 
ATOM      2  O   UNL     1       2.497   4.731  21.524  0.00  0.00    +0.000 OA
ENDROOT
BRANCH   1   6
ATOM      3  C   UNL     1       1.820   8.979  18.689  0.00  0.00    +0.000 A 
ATOM      4  C   UNL     1       2.319   7.862  18.035  0.00  0.00    +0.000 A 
ATOM      5  C   UNL     1       2.298   6.589  18.643  0.00  0.00    +0.000 A 
ATOM      6  C   UNL     1       1.785   6.397  19.933  0.00  0.00    +0.000 A 
ATOM      7  C   UNL     1       1.316   7.527  20.607  0.00  0.00    +0.000 A 
ATOM      8  C   UNL     1       1.336   8.807  20.006  0.00  0.00    +0.000 A 
BRANCH   3  12
ATOM      9  N   UNL     1       1.500  12.533  17.940  0.00  0.00    +0.000 N 
ATOM     10  C   UNL     1       1.468  11.457  18.754  0.00  0.00    +0.000 C 
ATOM     11  O   UNL     1       1.172  11.613  19.936  0.00  0.00    +0.000 OA
ATOM     12  N   UNL     1       1.786  10.284  18.130  0.00  0.00    +0.000 N 
ATOM     13  H   UNL     1       1.196  13.388  18.389  0.00  0.00    +0.000 HD
ATOM     14  H   UNL     1       1.145  12.419  17.031  0.00  0.00    +0.000 HD
ATOM     15  H   UNL     1       2.230  10.415  17.227  0.00  0.00    +0.000 HD
ENDBRANCH   3  12
ENDBRANCH   1   6
BRANCH   1  16
ATOM     16  O   UNL     1       1.010   4.112  19.905  0.00  0.00    +0.000 OA
BRANCH  16  17
ATOM     17  C   UNL     1       1.627   2.955  19.286  0.00  0.00    +0.000 C 
BRANCH  17  18
ATOM     18  C   UNL     1       2.470   3.104  17.959  0.00  0.00    +0.000 C 
ATOM     19  O   UNL     1       1.935   3.007  16.855  0.00  0.00    +0.000 OA
BRANCH  18  20
ATOM     20  C   UNL     1       3.923   3.418  18.086  0.00  0.00    +0.000 A 
ATOM     21  C   UNL     1       4.699   3.042  19.172  0.00  0.00    +0.000 A 
ATOM     22  N   UNL     1       5.696   3.979  19.210  0.00  0.00    +0.000 N 
ATOM     23  C   UNL     1       6.067   4.235  17.918  0.00  0.00    +0.000 A 
ATOM     24  C   UNL     1       7.284   4.677  17.401  0.00  0.00    +0.000 A 
ATOM     25  C   UNL     1       7.352   4.885  16.024  0.00  0.00    +0.000 A 
ATOM     26  C   UNL     1       6.209   4.742  15.243  0.00  0.00    +0.000 A 
ATOM     27  C   UNL     1       4.972   4.356  15.801  0.00  0.00    +0.000 A 
ATOM     28  C   UNL     1       4.898   4.007  17.175  0.00  0.00    +0.000 A 
ATOM     29  H   UNL     1       6.113   4.402  20.038  0.00  0.00    +0.000 HD
ENDBRANCH  18  20
ENDBRANCH  17  18
ENDBRANCH  16  17
ENDBRANCH   1  16
TORSDOF 6
ENDMDL
MODEL 8
REMARK VINA RESULT:      -7.3      2.785      3.795
REMARK  Name = 
REMARK  6 active torsions:
REMARK  status: ('A' for Active; 'I' for Inactive)
REMARK    1  A    between atoms: N_4  and  C_5
REMARK    2  A    between atoms: C_8  and  C_9
REMARK    3  A    between atoms: C_9  and  O_11
REMARK    4  A    between atoms: O_11  and  C_12
REMARK    5  A    between atoms: C_12  and  C_13
REMARK    6  A    between atoms: C_13  and  C_15
REMARK                            x       y       z     vdW  Elec       q    Type
REMARK                         _______ _______ _______ _____ _____    ______ ____
ROOT
ATOM      1  C   UNL     1       2.520   6.617  18.900  0.00  0.00    +0.000 C 
ATOM      2  O   UNL     1       3.327   6.192  19.695  0.00  0.00    +0.000 OA
ENDROOT
BRANCH   1   6
ATOM      3  C   UNL     1       1.091  10.773  18.944  0.00  0.00    +0.000 A 
ATOM      4  C   UNL     1       1.859  10.273  17.902  0.00  0.00    +0.000 A 
ATOM      5  C   UNL     1       2.297   8.931  17.896  0.00  0.00    +0.000 A 
ATOM      6  C   UNL     1       1.988   8.050  18.941  0.00  0.00    +0.000 A 
ATOM      7  C   UNL     1       1.247   8.563  20.008  0.00  0.00    +0.000 A 
ATOM      8  C   UNL     1       0.807   9.906  20.024  0.00  0.00    +0.000 A 
BRANCH   3  12
ATOM      9  N   UNL     1      -0.758  13.905  18.704  0.00  0.00    +0.000 N 
ATOM     10  C   UNL     1      -0.585  12.580  18.511  0.00  0.00    +0.000 C 
ATOM     11  O   UNL     1      -1.464  11.943  17.936  0.00  0.00    +0.000 OA
ATOM     12  N   UNL     1       0.596  12.101  19.005  0.00  0.00    +0.000 N 
ATOM     13  H   UNL     1      -1.600  14.268  18.275  0.00  0.00    +0.000 HD
ATOM     14  H   UNL     1       0.027  14.483  18.580  0.00  0.00    +0.000 HD
ATOM     15  H   UNL     1       1.052  12.739  19.648  0.00  0.00    +0.000 HD
ENDBRANCH   3  12
ENDBRANCH   1   6
BRANCH   1  16
ATOM     16  O   UNL     1       1.982   5.886  17.875  0.00  0.00    +0.000 OA
BRANCH  16  17
ATOM     17  C   UNL     1       1.569   4.524  18.153  0.00  0.00    +0.000 C 
BRANCH  17  18
ATOM     18  C   UNL     1       2.532   3.310  17.847  0.00  0.00    +0.000 C 
ATOM     19  O   UNL     1       2.083   2.212  17.521  0.00  0.00    +0.000 OA
BRANCH  18  20
ATOM     20  C   UNL     1       4.003   3.552  17.912  0.00  0.00    +0.000 A 
ATOM     21  C   UNL     1       4.800   3.161  18.977  0.00  0.00    +0.000 A 
ATOM     22  N   UNL     1       5.844   4.045  18.955  0.00  0.00    +0.000 N 
ATOM     23  C   UNL     1       6.178   4.253  17.644  0.00  0.00    +0.000 A 
ATOM     24  C   UNL     1       7.395   4.620  17.073  0.00  0.00    +0.000 A 
ATOM     25  C   UNL     1       7.421   4.794  15.689  0.00  0.00    +0.000 A 
ATOM     26  C   UNL     1       6.243   4.693  14.954  0.00  0.00    +0.000 A 
ATOM     27  C   UNL     1       5.010   4.384  15.568  0.00  0.00    +0.000 A 
ATOM     28  C   UNL     1       4.971   4.069  16.952  0.00  0.00    +0.000 A 
ATOM     29  H   UNL     1       6.313   4.464  19.757  0.00  0.00    +0.000 HD
ENDBRANCH  18  20
ENDBRANCH  17  18
ENDBRANCH  16  17
ENDBRANCH   1  16
TORSDOF 6
ENDMDL
MODEL 9
REMARK VINA RESULT:      -7.2      4.533      6.623
REMARK  Name = 
REMARK  6 active torsions:
REMARK  status: ('A' for Active; 'I' for Inactive)
REMARK    1  A    between atoms: N_4  and  C_5
REMARK    2  A    between atoms: C_8  and  C_9
REMARK    3  A    between atoms: C_9  and  O_11
REMARK    4  A    between atoms: O_11  and  C_12
REMARK    5  A    between atoms: C_12  and  C_13
REMARK    6  A    between atoms: C_13  and  C_15
REMARK                            x       y       z     vdW  Elec       q    Type
REMARK                         _______ _______ _______ _____ _____    ______ ____
ROOT
ATOM      1  C   UNL     1       0.603  10.101  18.557  0.00  0.00    +0.000 C 
ATOM      2  O   UNL     1       1.289  10.567  19.439  0.00  0.00    +0.000 OA
ENDROOT
BRANCH   1   6
ATOM      3  C   UNL     1      -3.493  11.525  17.841  0.00  0.00    +0.000 A 
ATOM      4  C   UNL     1      -2.706  12.039  18.863  0.00  0.00    +0.000 A 
ATOM      5  C   UNL     1      -1.388  11.581  19.070  0.00  0.00    +0.000 A 
ATOM      6  C   UNL     1      -0.818  10.585  18.265  0.00  0.00    +0.000 A 
ATOM      7  C   UNL     1      -1.621  10.042  17.260  0.00  0.00    +0.000 A 
ATOM      8  C   UNL     1      -2.944  10.491  17.048  0.00  0.00    +0.000 A 
BRANCH   3  12
ATOM      9  N   UNL     1      -7.090  12.013  17.504  0.00  0.00    +0.000 N 
ATOM     10  C   UNL     1      -5.989  11.379  17.961  0.00  0.00    +0.000 C 
ATOM     11  O   UNL     1      -6.125  10.385  18.670  0.00  0.00    +0.000 OA
ATOM     12  N   UNL     1      -4.816  11.955  17.559  0.00  0.00    +0.000 N 
ATOM     13  H   UNL     1      -7.954  11.544  17.745  0.00  0.00    +0.000 HD
ATOM     14  H   UNL     1      -7.066  12.343  16.579  0.00  0.00    +0.000 HD
ATOM     15  H   UNL     1      -4.932  12.893  17.192  0.00  0.00    +0.000 HD
ENDBRANCH   3  12
ENDBRANCH   1   6
BRANCH   1  16
ATOM     16  O   UNL     1       0.999   9.096  17.717  0.00  0.00    +0.000 OA
BRANCH  16  17
ATOM     17  C   UNL     1       2.276   8.458  17.971  0.00  0.00    +0.000 C 
BRANCH  17  18
ATOM     18  C   UNL     1       2.405   7.314  19.053  0.00  0.00    +0.000 C 
ATOM     19  O   UNL     1       2.174   7.537  20.241  0.00  0.00    +0.000 OA
BRANCH  18  20
ATOM     20  C   UNL     1       2.761   5.944  18.582  0.00  0.00    +0.000 A 
ATOM     21  C   UNL     1       3.927   5.648  17.892  0.00  0.00    +0.000 A 
ATOM     22  N   UNL     1       3.606   4.542  17.153  0.00  0.00    +0.000 N 
ATOM     23  C   UNL     1       2.826   3.737  17.938  0.00  0.00    +0.000 A 
ATOM     24  C   UNL     1       2.644   2.355  17.908  0.00  0.00    +0.000 A 
ATOM     25  C   UNL     1       1.745   1.812  18.825  0.00  0.00    +0.000 A 
ATOM     26  C   UNL     1       1.005   2.653  19.653  0.00  0.00    +0.000 A 
ATOM     27  C   UNL     1       1.162   4.055  19.617  0.00  0.00    +0.000 A 
ATOM     28  C   UNL     1       2.163   4.631  18.792  0.00  0.00    +0.000 A 
ATOM     29  H   UNL     1       3.901   4.331  16.200  0.00  0.00    +0.000 HD
ENDBRANCH  18  20
ENDBRANCH  17  18
ENDBRANCH  16  17
ENDBRANCH   1  16
TORSDOF 6
ENDMDL
