MODEL 1
REMARK VINA RESULT:      -7.3      0.000      0.000
REMARK  Name = 
REMARK  11 active torsions:
REMARK  status: ('A' for Active; 'I' for Inactive)
REMARK    1  A    between atoms: C_1  and  C_2
REMARK    2  A    between atoms: C_2  and  C_3
REMARK    3  A    between atoms: C_2  and  C_23
REMARK    4  A    between atoms: C_3  and  C_4
REMARK    5  A    between atoms: C_4  and  C_5
REMARK    6  A    between atoms: C_5  and  C_6
REMARK    7  A    between atoms: C_6  and  C_7
REMARK    8  A    between atoms: C_7  and  N_8
REMARK    9  A    between atoms: C_9  and  C_11
REMARK   10  A    between atoms: C_15  and  C_16
REMARK   11  A    between atoms: C_23  and  O_25
REMARK                            x       y       z     vdW  Elec       q    Type
REMARK                         _______ _______ _______ _____ _____    ______ ____
ROOT
ATOM      1  C   UNL     1       8.357   8.863  18.243  0.00  0.00    +0.000 A 
ATOM      2  C   UNL     1       8.212  10.001  17.473  0.00  0.00    +0.000 A 
ATOM      3  C   UNL     1       8.883  11.070  18.120  0.00  0.00    +0.000 A 
ATOM      4  C   UNL     1       9.040  12.434  17.819  0.00  0.00    +0.000 A 
ATOM      5  C   UNL     1       9.757  13.253  18.700  0.00  0.00    +0.000 A 
ATOM      6  C   UNL     1      10.327  12.715  19.860  0.00  0.00    +0.000 A 
ATOM      7  C   UNL     1      10.194  11.352  20.166  0.00  0.00    +0.000 A 
ATOM      8  C   UNL     1       9.456  10.557  19.280  0.00  0.00    +0.000 A 
ATOM      9  N   UNL     1       9.130   9.221  19.329  0.00  0.00    +0.000 N 
ATOM     10  H   UNL     1       9.391   8.580  20.065  0.00  0.00    +0.000 HD
ENDROOT
BRANCH   5  11
ATOM     11  C   UNL     1       9.867  14.707  18.391  0.00  0.00    +0.000 C 
ATOM     12  N   UNL     1      10.177  15.164  17.218  0.00  0.00    +0.000 NA
ATOM     13  N   UNL     1       9.641  15.638  19.363  0.00  0.00    +0.000 N 
ATOM     14  H   UNL     1      10.277  14.407  16.538  0.00  0.00    +0.000 HD
ATOM     15  H   UNL     1       9.933  15.390  20.301  0.00  0.00    +0.000 HD
ATOM     16  H   UNL     1       9.971  16.554  19.077  0.00  0.00    +0.000 HD
ENDBRANCH   5  11
BRANCH   1  18
ATOM     17  N   UNL     1       7.002   7.359  16.998  0.00  0.00    +0.000 N 
ATOM     18  C   UNL     1       7.836   7.521  18.079  0.00  0.00    +0.000 C 
ATOM     19  O   UNL     1       8.124   6.606  18.844  0.00  0.00    +0.000 OA
ATOM     20  H   UNL     1       6.939   8.104  16.320  0.00  0.00    +0.000 HD
BRANCH  17  21
ATOM     21  C   UNL     1       6.428   6.075  16.667  0.00  0.00    +0.000 C 
BRANCH  21  22
ATOM     22  C   UNL     1       4.919   6.072  16.883  0.00  0.00    +0.000 C 
BRANCH  22  23
ATOM     23  C   UNL     1       4.561   5.699  18.321  0.00  0.00    +0.000 C 
BRANCH  23  24
ATOM     24  C   UNL     1       4.363   4.189  18.457  0.00  0.00    +0.000 C 
BRANCH  24  25
ATOM     25  C   UNL     1       3.540   3.828  19.700  0.00  0.00    +0.000 C 
BRANCH  25  27
ATOM     26  C   UNL     1       1.221   3.561  20.751  0.00  0.00    +0.000 C 
ATOM     27  C   UNL     1       2.022   4.011  19.529  0.00  0.00    +0.000 C 
BRANCH  27  28
ATOM     28  C   UNL     1       1.527   3.298  18.281  0.00  0.00    +0.000 C 
ATOM     29  O   UNL     1       1.134   3.859  17.270  0.00  0.00    +0.000 OA
BRANCH  28  30
ATOM     30  O   UNL     1       1.534   1.951  18.398  0.00  0.00    +0.000 OA
ATOM     31  H   UNL     1       1.076   1.614  19.190  0.00  0.00    +0.000 HD
ENDBRANCH  28  30
ENDBRANCH  27  28
ENDBRANCH  25  27
ENDBRANCH  24  25
ENDBRANCH  23  24
ENDBRANCH  22  23
ENDBRANCH  21  22
ENDBRANCH  17  21
ENDBRANCH   1  18
TORSDOF 10
ENDMDL
MODEL 2
REMARK VINA RESULT:      -7.2      4.699      7.077
REMARK  Name = 
REMARK  11 active torsions:
REMARK  status: ('A' for Active; 'I' for Inactive)
REMARK    1  A    between atoms: C_1  and  C_2
REMARK    2  A    between atoms: C_2  and  C_3
REMARK    3  A    between atoms: C_2  and  C_23
REMARK    4  A    between atoms: C_3  and  C_4
REMARK    5  A    between atoms: C_4  and  C_5
REMARK    6  A    between atoms: C_5  and  C_6
REMARK    7  A    between atoms: C_6  and  C_7
REMARK    8  A    between atoms: C_7  and  N_8
REMARK    9  A    between atoms: C_9  and  C_11
REMARK   10  A    between atoms: C_15  and  C_16
REMARK   11  A    between atoms: C_23  and  O_25
REMARK                            x       y       z     vdW  Elec       q    Type
REMARK                         _______ _______ _______ _____ _____    ______ ____
ROOT
ATOM      1  C   UNL     1       2.252   6.642  19.767  0.00  0.00    +0.000 A 
ATOM      2  C   UNL     1       2.412   7.503  18.698  0.00  0.00    +0.000 A 
ATOM      3  C   UNL     1       1.872   8.765  19.053  0.00  0.00    +0.000 A 
ATOM      4  C   UNL     1       1.731   9.983  18.365  0.00  0.00    +0.000 A 
ATOM      5  C   UNL     1       1.111  11.065  19.004  0.00  0.00    +0.000 A 
ATOM      6  C   UNL     1       0.650  10.939  20.320  0.00  0.00    +0.000 A 
ATOM      7  C   UNL     1       0.797   9.735  21.025  0.00  0.00    +0.000 A 
ATOM      8  C   UNL     1       1.403   8.663  20.360  0.00  0.00    +0.000 A 
ATOM      9  N   UNL     1       1.651   7.373  20.772  0.00  0.00    +0.000 N 
ATOM     10  H   UNL     1       1.409   6.989  21.675  0.00  0.00    +0.000 HD
ENDROOT
BRANCH   5  11
ATOM     11  C   UNL     1       0.924  12.330  18.239  0.00  0.00    +0.000 C 
ATOM     12  N   UNL     1      -0.233  12.886  18.053  0.00  0.00    +0.000 NA
ATOM     13  N   UNL     1       1.997  12.967  17.686  0.00  0.00    +0.000 N 
ATOM     14  H   UNL     1      -0.974  12.376  18.542  0.00  0.00    +0.000 HD
ATOM     15  H   UNL     1       2.740  12.375  17.335  0.00  0.00    +0.000 HD
ATOM     16  H   UNL     1       1.700  13.669  17.015  0.00  0.00    +0.000 HD
ENDBRANCH   5  11
BRANCH   1  18
ATOM     17  N   UNL     1       3.371   4.719  18.932  0.00  0.00    +0.000 N 
ATOM     18  C   UNL     1       2.574   5.239  19.925  0.00  0.00    +0.000 C 
ATOM     19  O   UNL     1       2.169   4.573  20.873  0.00  0.00    +0.000 OA
ATOM     20  H   UNL     1       3.802   5.354  18.276  0.00  0.00    +0.000 HD
BRANCH  17  21
ATOM     21  C   UNL     1       3.818   3.346  18.958  0.00  0.00    +0.000 C 
BRANCH  21  22
ATOM     22  C   UNL     1       4.254   2.880  17.573  0.00  0.00    +0.000 C 
BRANCH  22  23
ATOM     23  C   UNL     1       4.427   4.058  16.615  0.00  0.00    +0.000 C 
BRANCH  23  24
ATOM     24  C   UNL     1       5.717   3.917  15.808  0.00  0.00    +0.000 C 
BRANCH  24  25
ATOM     25  C   UNL     1       6.652   5.116  16.006  0.00  0.00    +0.000 C 
BRANCH  25  27
ATOM     26  C   UNL     1       6.938   7.305  17.302  0.00  0.00    +0.000 C 
ATOM     27  C   UNL     1       6.462   5.853  17.343  0.00  0.00    +0.000 C 
BRANCH  27  28
ATOM     28  C   UNL     1       7.145   5.105  18.476  0.00  0.00    +0.000 C 
ATOM     29  O   UNL     1       8.133   4.398  18.348  0.00  0.00    +0.000 OA
BRANCH  28  30
ATOM     30  O   UNL     1       6.532   5.271  19.670  0.00  0.00    +0.000 OA
ATOM     31  H   UNL     1       6.974   4.822  20.415  0.00  0.00    +0.000 HD
ENDBRANCH  28  30
ENDBRANCH  27  28
ENDBRANCH  25  27
ENDBRANCH  24  25
ENDBRANCH  23  24
ENDBRANCH  22  23
ENDBRANCH  21  22
ENDBRANCH  17  21
ENDBRANCH   1  18
TORSDOF 10
ENDMDL
MODEL 3
REMARK VINA RESULT:      -7.2      1.504      1.812
REMARK  Name = 
REMARK  11 active torsions:
REMARK  status: ('A' for Active; 'I' for Inactive)
REMARK    1  A    between atoms: C_1  and  C_2
REMARK    2  A    between atoms: C_2  and  C_3
REMARK    3  A    between atoms: C_2  and  C_23
REMARK    4  A    between atoms: C_3  and  C_4
REMARK    5  A    between atoms: C_4  and  C_5
REMARK    6  A    between atoms: C_5  and  C_6
REMARK    7  A    between atoms: C_6  and  C_7
REMARK    8  A    between atoms: C_7  and  N_8
REMARK    9  A    between atoms: C_9  and  C_11
REMARK   10  A    between atoms: C_15  and  C_16
REMARK   11  A    between atoms: C_23  and  O_25
REMARK                            x       y       z     vdW  Elec       q    Type
REMARK                         _______ _______ _______ _____ _____    ______ ____
ROOT
ATOM      1  C   UNL     1       7.936   7.767  18.168  0.00  0.00    +0.000 A 
ATOM      2  C   UNL     1       7.617   8.867  17.393  0.00  0.00    +0.000 A 
ATOM      3  C   UNL     1       8.274  10.002  17.932  0.00  0.00    +0.000 A 
ATOM      4  C   UNL     1       8.289  11.364  17.583  0.00  0.00    +0.000 A 
ATOM      5  C   UNL     1       9.038  12.262  18.355  0.00  0.00    +0.000 A 
ATOM      6  C   UNL     1       9.777  11.805  19.453  0.00  0.00    +0.000 A 
ATOM      7  C   UNL     1       9.784  10.446  19.804  0.00  0.00    +0.000 A 
ATOM      8  C   UNL     1       9.013   9.571  19.030  0.00  0.00    +0.000 A 
ATOM      9  N   UNL     1       8.799   8.216  19.147  0.00  0.00    +0.000 N 
ATOM     10  H   UNL     1       9.191   7.620  19.863  0.00  0.00    +0.000 HD
ENDROOT
BRANCH   5  11
ATOM     11  C   UNL     1       8.999  13.709  18.001  0.00  0.00    +0.000 C 
ATOM     12  N   UNL     1       9.974  14.528  18.245  0.00  0.00    +0.000 NA
ATOM     13  N   UNL     1       7.899  14.240  17.393  0.00  0.00    +0.000 N 
ATOM     14  H   UNL     1      10.776  14.041  18.652  0.00  0.00    +0.000 HD
ATOM     15  H   UNL     1       7.003  13.855  17.665  0.00  0.00    +0.000 HD
ATOM     16  H   UNL     1       7.918  15.254  17.423  0.00  0.00    +0.000 HD
ENDBRANCH   5  11
BRANCH   1  18
ATOM     17  N   UNL     1       7.379   5.891  16.820  0.00  0.00    +0.000 N 
ATOM     18  C   UNL     1       7.506   6.386  18.097  0.00  0.00    +0.000 C 
ATOM     19  O   UNL     1       7.278   5.716  19.099  0.00  0.00    +0.000 OA
ATOM     20  H   UNL     1       7.737   6.438  16.052  0.00  0.00    +0.000 HD
BRANCH  17  21
ATOM     21  C   UNL     1       6.997   4.521  16.572  0.00  0.00    +0.000 C 
BRANCH  21  22
ATOM     22  C   UNL     1       5.559   4.429  16.073  0.00  0.00    +0.000 C 
BRANCH  22  23
ATOM     23  C   UNL     1       4.600   4.045  17.199  0.00  0.00    +0.000 C 
BRANCH  23  24
ATOM     24  C   UNL     1       3.695   5.222  17.566  0.00  0.00    +0.000 C 
BRANCH  24  25
ATOM     25  C   UNL     1       2.263   4.768  17.877  0.00  0.00    +0.000 C 
BRANCH  25  27
ATOM     26  C   UNL     1       1.540   2.379  18.443  0.00  0.00    +0.000 C 
ATOM     27  C   UNL     1       2.164   3.676  18.955  0.00  0.00    +0.000 C 
BRANCH  27  28
ATOM     28  C   UNL     1       1.406   4.183  20.172  0.00  0.00    +0.000 C 
ATOM     29  O   UNL     1       1.485   5.317  20.619  0.00  0.00    +0.000 OA
BRANCH  28  30
ATOM     30  O   UNL     1       0.635   3.235  20.752  0.00  0.00    +0.000 OA
ATOM     31  H   UNL     1       0.871   3.035  21.677  0.00  0.00    +0.000 HD
ENDBRANCH  28  30
ENDBRANCH  27  28
ENDBRANCH  25  27
ENDBRANCH  24  25
ENDBRANCH  23  24
ENDBRANCH  22  23
ENDBRANCH  21  22
ENDBRANCH  17  21
ENDBRANCH   1  18
TORSDOF 10
ENDMDL
MODEL 4
REMARK VINA RESULT:      -7.2      5.193      7.636
REMARK  Name = 
REMARK  11 active torsions:
REMARK  status: ('A' for Active; 'I' for Inactive)
REMARK    1  A    between atoms: C_1  and  C_2
REMARK    2  A    between atoms: C_2  and  C_3
REMARK    3  A    between atoms: C_2  and  C_23
REMARK    4  A    between atoms: C_3  and  C_4
REMARK    5  A    between atoms: C_4  and  C_5
REMARK    6  A    between atoms: C_5  and  C_6
REMARK    7  A    between atoms: C_6  and  C_7
REMARK    8  A    between atoms: C_7  and  N_8
REMARK    9  A    between atoms: C_9  and  C_11
REMARK   10  A    between atoms: C_15  and  C_16
REMARK   11  A    between atoms: C_23  and  O_25
REMARK                            x       y       z     vdW  Elec       q    Type
REMARK                         _______ _______ _______ _____ _____    ______ ____
ROOT
ATOM      1  C   UNL     1       2.685   6.038  19.216  0.00  0.00    +0.000 A 
ATOM      2  C   UNL     1       2.117   6.298  20.449  0.00  0.00    +0.000 A 
ATOM      3  C   UNL     1       1.593   7.615  20.432  0.00  0.00    +0.000 A 
ATOM      4  C   UNL     1       0.946   8.408  21.397  0.00  0.00    +0.000 A 
ATOM      5  C   UNL     1       0.567   9.716  21.067  0.00  0.00    +0.000 A 
ATOM      6  C   UNL     1       0.814  10.222  19.785  0.00  0.00    +0.000 A 
ATOM      7  C   UNL     1       1.444   9.437  18.807  0.00  0.00    +0.000 A 
ATOM      8  C   UNL     1       1.831   8.141  19.166  0.00  0.00    +0.000 A 
ATOM      9  N   UNL     1       2.485   7.166  18.447  0.00  0.00    +0.000 N 
ATOM     10  H   UNL     1       2.806   7.257  17.492  0.00  0.00    +0.000 HD
ENDROOT
BRANCH   5  11
ATOM     11  C   UNL     1      -0.069  10.559  22.119  0.00  0.00    +0.000 C 
ATOM     12  N   UNL     1      -0.164  10.196  23.361  0.00  0.00    +0.000 NA
ATOM     13  N   UNL     1      -0.594  11.778  21.802  0.00  0.00    +0.000 N 
ATOM     14  H   UNL     1       0.299   9.299  23.523  0.00  0.00    +0.000 HD
ATOM     15  H   UNL     1      -1.024  11.860  20.889  0.00  0.00    +0.000 HD
ATOM     16  H   UNL     1      -1.186  12.127  22.549  0.00  0.00    +0.000 HD
ENDBRANCH   5  11
BRANCH   1  18
ATOM     17  N   UNL     1       3.607   4.885  17.353  0.00  0.00    +0.000 N 
ATOM     18  C   UNL     1       3.397   4.881  18.712  0.00  0.00    +0.000 C 
ATOM     19  O   UNL     1       3.782   3.975  19.445  0.00  0.00    +0.000 OA
ATOM     20  H   UNL     1       3.412   5.730  16.837  0.00  0.00    +0.000 HD
BRANCH  17  21
ATOM     21  C   UNL     1       4.334   3.825  16.694  0.00  0.00    +0.000 C 
BRANCH  21  22
ATOM     22  C   UNL     1       4.887   4.286  15.351  0.00  0.00    +0.000 C 
BRANCH  22  23
ATOM     23  C   UNL     1       6.327   3.815  15.147  0.00  0.00    +0.000 C 
BRANCH  23  24
ATOM     24  C   UNL     1       7.315   4.810  15.754  0.00  0.00    +0.000 C 
BRANCH  24  25
ATOM     25  C   UNL     1       7.493   4.594  17.262  0.00  0.00    +0.000 C 
BRANCH  25  27
ATOM     26  C   UNL     1       7.418   5.718  19.560  0.00  0.00    +0.000 C 
ATOM     27  C   UNL     1       7.697   5.888  18.067  0.00  0.00    +0.000 C 
BRANCH  27  28
ATOM     28  C   UNL     1       6.856   7.020  17.498  0.00  0.00    +0.000 C 
ATOM     29  O   UNL     1       5.638   7.009  17.419  0.00  0.00    +0.000 OA
BRANCH  28  30
ATOM     30  O   UNL     1       7.595   8.060  17.049  0.00  0.00    +0.000 OA
ATOM     31  H   UNL     1       7.090   8.883  16.912  0.00  0.00    +0.000 HD
ENDBRANCH  28  30
ENDBRANCH  27  28
ENDBRANCH  25  27
ENDBRANCH  24  25
ENDBRANCH  23  24
ENDBRANCH  22  23
ENDBRANCH  21  22
ENDBRANCH  17  21
ENDBRANCH   1  18
TORSDOF 10
ENDMDL
MODEL 5
REMARK VINA RESULT:      -7.2      6.037      8.439
REMARK  Name = 
REMARK  11 active torsions:
REMARK  status: ('A' for Active; 'I' for Inactive)
REMARK    1  A    between atoms: C_1  and  C_2
REMARK    2  A    between atoms: C_2  and  C_3
REMARK    3  A    between atoms: C_2  and  C_23
REMARK    4  A    between atoms: C_3  and  C_4
REMARK    5  A    between atoms: C_4  and  C_5
REMARK    6  A    between atoms: C_5  and  C_6
REMARK    7  A    between atoms: C_6  and  C_7
REMARK    8  A    between atoms: C_7  and  N_8
REMARK    9  A    between atoms: C_9  and  C_11
REMARK   10  A    between atoms: C_15  and  C_16
REMARK   11  A    between atoms: C_23  and  O_25
REMARK                            x       y       z     vdW  Elec       q    Type
REMARK                         _______ _______ _______ _____ _____    ______ ____
ROOT
ATOM      1  C   UNL     1       3.109   5.920  19.305  0.00  0.00    +0.000 A 
ATOM      2  C   UNL     1       3.062   5.756  17.933  0.00  0.00    +0.000 A 
ATOM      3  C   UNL     1       4.357   5.403  17.478  0.00  0.00    +0.000 A 
ATOM      4  C   UNL     1       4.897   5.150  16.205  0.00  0.00    +0.000 A 
ATOM      5  C   UNL     1       6.260   4.844  16.086  0.00  0.00    +0.000 A 
ATOM      6  C   UNL     1       7.071   4.775  17.224  0.00  0.00    +0.000 A 
ATOM      7  C   UNL     1       6.544   5.009  18.503  0.00  0.00    +0.000 A 
ATOM      8  C   UNL     1       5.184   5.332  18.596  0.00  0.00    +0.000 A 
ATOM      9  N   UNL     1       4.405   5.641  19.688  0.00  0.00    +0.000 N 
ATOM     10  H   UNL     1       4.729   5.687  20.644  0.00  0.00    +0.000 HD
ENDROOT
BRANCH   5  11
ATOM     11  C   UNL     1       6.824   4.632  14.723  0.00  0.00    +0.000 C 
ATOM     12  N   UNL     1       7.736   5.393  14.203  0.00  0.00    +0.000 NA
ATOM     13  N   UNL     1       6.384   3.598  13.947  0.00  0.00    +0.000 N 
ATOM     14  H   UNL     1       8.046   6.108  14.865  0.00  0.00    +0.000 HD
ATOM     15  H   UNL     1       5.405   3.355  14.034  0.00  0.00    +0.000 HD
ATOM     16  H   UNL     1       6.679   3.712  12.983  0.00  0.00    +0.000 HD
ENDBRANCH   5  11
BRANCH   1  18
ATOM     17  N   UNL     1       1.978   7.683  20.426  0.00  0.00    +0.000 N 
ATOM     18  C   UNL     1       2.096   6.323  20.258  0.00  0.00    +0.000 C 
ATOM     19  O   UNL     1       1.400   5.513  20.861  0.00  0.00    +0.000 OA
ATOM     20  H   UNL     1       2.462   8.293  19.784  0.00  0.00    +0.000 HD
BRANCH  17  21
ATOM     21  C   UNL     1       0.990   8.256  21.310  0.00  0.00    +0.000 C 
BRANCH  21  22
ATOM     22  C   UNL     1       0.923   9.771  21.159  0.00  0.00    +0.000 C 
BRANCH  22  23
ATOM     23  C   UNL     1       0.858  10.184  19.689  0.00  0.00    +0.000 C 
BRANCH  23  24
ATOM     24  C   UNL     1      -0.413   9.648  19.030  0.00  0.00    +0.000 C 
BRANCH  24  25
ATOM     25  C   UNL     1      -1.285  10.776  18.466  0.00  0.00    +0.000 C 
BRANCH  25  27
ATOM     26  C   UNL     1      -2.466   9.966  16.344  0.00  0.00    +0.000 C 
ATOM     27  C   UNL     1      -2.602  10.301  17.829  0.00  0.00    +0.000 C 
BRANCH  27  28
ATOM     28  C   UNL     1      -3.707  11.324  18.040  0.00  0.00    +0.000 C 
ATOM     29  O   UNL     1      -4.837  11.231  17.587  0.00  0.00    +0.000 OA
BRANCH  28  30
ATOM     30  O   UNL     1      -3.313  12.392  18.771  0.00  0.00    +0.000 OA
ATOM     31  H   UNL     1      -3.512  13.254  18.362  0.00  0.00    +0.000 HD
ENDBRANCH  28  30
ENDBRANCH  27  28
ENDBRANCH  25  27
ENDBRANCH  24  25
ENDBRANCH  23  24
ENDBRANCH  22  23
ENDBRANCH  21  22
ENDBRANCH  17  21
ENDBRANCH   1  18
TORSDOF 10
ENDMDL
MODEL 6
REMARK VINA RESULT:      -7.1      6.051      7.744
REMARK  Name = 
REMARK  11 active torsions:
REMARK  status: ('A' for Active; 'I' for Inactive)
REMARK    1  A    between atoms: C_1  and  C_2
REMARK    2  A    between atoms: C_2  and  C_3
REMARK    3  A    between atoms: C_2  and  C_23
REMARK    4  A    between atoms: C_3  and  C_4
REMARK    5  A    between atoms: C_4  and  C_5
REMARK    6  A    between atoms: C_5  and  C_6
REMARK    7  A    between atoms: C_6  and  C_7
REMARK    8  A    between atoms: C_7  and  N_8
REMARK    9  A    between atoms: C_9  and  C_11
REMARK   10  A    between atoms: C_15  and  C_16
REMARK   11  A    between atoms: C_23  and  O_25
REMARK                            x       y       z     vdW  Elec       q    Type
REMARK                         _______ _______ _______ _____ _____    ______ ____
ROOT
ATOM      1  C   UNL     1       3.010   6.531  19.163  0.00  0.00    +0.000 A 
ATOM      2  C   UNL     1       2.668   7.540  18.282  0.00  0.00    +0.000 A 
ATOM      3  C   UNL     1       1.780   8.428  18.940  0.00  0.00    +0.000 A 
ATOM      4  C   UNL     1       1.099   9.589  18.532  0.00  0.00    +0.000 A 
ATOM      5  C   UNL     1       0.250  10.239  19.437  0.00  0.00    +0.000 A 
ATOM      6  C   UNL     1       0.094   9.748  20.738  0.00  0.00    +0.000 A 
ATOM      7  C   UNL     1       0.779   8.601  21.165  0.00  0.00    +0.000 A 
ATOM      8  C   UNL     1       1.607   7.957  20.238  0.00  0.00    +0.000 A 
ATOM      9  N   UNL     1       2.366   6.814  20.351  0.00  0.00    +0.000 N 
ATOM     10  H   UNL     1       2.434   6.234  21.176  0.00  0.00    +0.000 HD
ENDROOT
BRANCH   5  11
ATOM     11  C   UNL     1      -0.504  11.436  18.969  0.00  0.00    +0.000 C 
ATOM     12  N   UNL     1      -1.086  11.504  17.812  0.00  0.00    +0.000 NA
ATOM     13  N   UNL     1      -0.609  12.540  19.765  0.00  0.00    +0.000 N 
ATOM     14  H   UNL     1      -1.005  10.622  17.302  0.00  0.00    +0.000 HD
ATOM     15  H   UNL     1       0.193  12.755  20.345  0.00  0.00    +0.000 HD
ATOM     16  H   UNL     1      -0.941  13.341  19.238  0.00  0.00    +0.000 HD
ENDBRANCH   5  11
BRANCH   1  18
ATOM     17  N   UNL     1       5.097   5.600  18.511  0.00  0.00    +0.000 N 
ATOM     18  C   UNL     1       3.835   5.352  18.999  0.00  0.00    +0.000 C 
ATOM     19  O   UNL     1       3.437   4.225  19.277  0.00  0.00    +0.000 OA
ATOM     20  H   UNL     1       5.416   6.556  18.459  0.00  0.00    +0.000 HD
BRANCH  17  21
ATOM     21  C   UNL     1       6.061   4.541  18.324  0.00  0.00    +0.000 C 
BRANCH  21  22
ATOM     22  C   UNL     1       6.205   4.178  16.850  0.00  0.00    +0.000 C 
BRANCH  22  23
ATOM     23  C   UNL     1       6.056   5.407  15.954  0.00  0.00    +0.000 C 
BRANCH  23  24
ATOM     24  C   UNL     1       6.556   5.113  14.540  0.00  0.00    +0.000 C 
BRANCH  24  25
ATOM     25  C   UNL     1       5.706   4.045  13.842  0.00  0.00    +0.000 C 
BRANCH  25  27
ATOM     26  C   UNL     1       7.249   4.309  11.817  0.00  0.00    +0.000 C 
ATOM     27  C   UNL     1       6.403   3.354  12.658  0.00  0.00    +0.000 C 
BRANCH  27  28
ATOM     28  C   UNL     1       5.393   2.630  11.781  0.00  0.00    +0.000 C 
ATOM     29  O   UNL     1       4.309   3.084  11.450  0.00  0.00    +0.000 OA
BRANCH  28  30
ATOM     30  O   UNL     1       5.798   1.394  11.410  0.00  0.00    +0.000 OA
ATOM     31  H   UNL     1       5.679   0.710  12.095  0.00  0.00    +0.000 HD
ENDBRANCH  28  30
ENDBRANCH  27  28
ENDBRANCH  25  27
ENDBRANCH  24  25
ENDBRANCH  23  24
ENDBRANCH  22  23
ENDBRANCH  21  22
ENDBRANCH  17  21
ENDBRANCH   1  18
TORSDOF 10
ENDMDL
MODEL 7
REMARK VINA RESULT:      -7.1      1.212      1.392
REMARK  Name = 
REMARK  11 active torsions:
REMARK  status: ('A' for Active; 'I' for Inactive)
REMARK    1  A    between atoms: C_1  and  C_2
REMARK    2  A    between atoms: C_2  and  C_3
REMARK    3  A    between atoms: C_2  and  C_23
REMARK    4  A    between atoms: C_3  and  C_4
REMARK    5  A    between atoms: C_4  and  C_5
REMARK    6  A    between atoms: C_5  and  C_6
REMARK    7  A    between atoms: C_6  and  C_7
REMARK    8  A    between atoms: C_7  and  N_8
REMARK    9  A    between atoms: C_9  and  C_11
REMARK   10  A    between atoms: C_15  and  C_16
REMARK   11  A    between atoms: C_23  and  O_25
REMARK                            x       y       z     vdW  Elec       q    Type
REMARK                         _______ _______ _______ _____ _____    ______ ____
ROOT
ATOM      1  C   UNL     1       8.352   9.032  18.164  0.00  0.00    +0.000 A 
ATOM      2  C   UNL     1       8.417  10.251  17.515  0.00  0.00    +0.000 A 
ATOM      3  C   UNL     1       9.101  11.169  18.352  0.00  0.00    +0.000 A 
ATOM      4  C   UNL     1       9.425  12.532  18.227  0.00  0.00    +0.000 A 
ATOM      5  C   UNL     1      10.101  13.174  19.273  0.00  0.00    +0.000 A 
ATOM      6  C   UNL     1      10.465  12.463  20.422  0.00  0.00    +0.000 A 
ATOM      7  C   UNL     1      10.163  11.099  20.555  0.00  0.00    +0.000 A 
ATOM      8  C   UNL     1       9.470  10.483  19.506  0.00  0.00    +0.000 A 
ATOM      9  N   UNL     1       9.013   9.193  19.365  0.00  0.00    +0.000 N 
ATOM     10  H   UNL     1       9.116   8.456  20.050  0.00  0.00    +0.000 HD
ENDROOT
BRANCH   5  11
ATOM     11  C   UNL     1      10.389  14.631  19.144  0.00  0.00    +0.000 C 
ATOM     12  N   UNL     1      11.543  15.156  19.418  0.00  0.00    +0.000 NA
ATOM     13  N   UNL     1       9.416  15.492  18.725  0.00  0.00    +0.000 N 
ATOM     14  H   UNL     1      12.226  14.440  19.673  0.00  0.00    +0.000 HD
ATOM     15  H   UNL     1       8.470  15.279  19.017  0.00  0.00    +0.000 HD
ATOM     16  H   UNL     1       9.678  16.455  18.904  0.00  0.00    +0.000 HD
ENDBRANCH   5  11
BRANCH   1  18
ATOM     17  N   UNL     1       7.916   6.756  18.692  0.00  0.00    +0.000 N 
ATOM     18  C   UNL     1       7.730   7.779  17.791  0.00  0.00    +0.000 C 
ATOM     19  O   UNL     1       7.086   7.647  16.754  0.00  0.00    +0.000 OA
ATOM     20  H   UNL     1       8.311   6.974  19.594  0.00  0.00    +0.000 HD
BRANCH  17  21
ATOM     21  C   UNL     1       7.330   5.452  18.491  0.00  0.00    +0.000 C 
BRANCH  21  22
ATOM     22  C   UNL     1       6.106   5.253  19.378  0.00  0.00    +0.000 C 
BRANCH  22  23
ATOM     23  C   UNL     1       4.907   4.754  18.573  0.00  0.00    +0.000 C 
BRANCH  23  24
ATOM     24  C   UNL     1       3.624   5.459  19.014  0.00  0.00    +0.000 C 
BRANCH  24  25
ATOM     25  C   UNL     1       2.433   5.096  18.118  0.00  0.00    +0.000 C 
BRANCH  25  27
ATOM     26  C   UNL     1       1.505   3.979  20.225  0.00  0.00    +0.000 C 
ATOM     27  C   UNL     1       1.514   4.008  18.697  0.00  0.00    +0.000 C 
BRANCH  27  28
ATOM     28  C   UNL     1       1.878   2.639  18.145  0.00  0.00    +0.000 C 
ATOM     29  O   UNL     1       2.442   2.447  17.078  0.00  0.00    +0.000 OA
BRANCH  28  30
ATOM     30  O   UNL     1       1.490   1.621  18.945  0.00  0.00    +0.000 OA
ATOM     31  H   UNL     1       0.841   1.016  18.540  0.00  0.00    +0.000 HD
ENDBRANCH  28  30
ENDBRANCH  27  28
ENDBRANCH  25  27
ENDBRANCH  24  25
ENDBRANCH  23  24
ENDBRANCH  22  23
ENDBRANCH  21  22
ENDBRANCH  17  21
ENDBRANCH   1  18
TORSDOF 10
ENDMDL
MODEL 8
REMARK VINA RESULT:      -7.1      6.110      9.027
REMARK  Name = 
REMARK  11 active torsions:
REMARK  status: ('A' for Active; 'I' for Inactive)
REMARK    1  A    between atoms: C_1  and  C_2
REMARK    2  A    between atoms: C_2  and  C_3
REMARK    3  A    between atoms: C_2  and  C_23
REMARK    4  A    between atoms: C_3  and  C_4
REMARK    5  A    between atoms: C_4  and  C_5
REMARK    6  A    between atoms: C_5  and  C_6
REMARK    7  A    between atoms: C_6  and  C_7
REMARK    8  A    between atoms: C_7  and  N_8
REMARK    9  A    between atoms: C_9  and  C_11
REMARK   10  A    between atoms: C_15  and  C_16
REMARK   11  A    between atoms: C_23  and  O_25
REMARK                            x       y       z     vdW  Elec       q    Type
REMARK                         _______ _______ _______ _____ _____    ______ ____
ROOT
ATOM      1  C   UNL     1       2.659   7.046  18.850  0.00  0.00    +0.000 A 
ATOM      2  C   UNL     1       3.499   7.435  17.824  0.00  0.00    +0.000 A 
ATOM      3  C   UNL     1       4.068   6.272  17.244  0.00  0.00    +0.000 A 
ATOM      4  C   UNL     1       4.996   6.066  16.209  0.00  0.00    +0.000 A 
ATOM      5  C   UNL     1       5.384   4.759  15.886  0.00  0.00    +0.000 A 
ATOM      6  C   UNL     1       4.840   3.669  16.575  0.00  0.00    +0.000 A 
ATOM      7  C   UNL     1       3.900   3.858  17.600  0.00  0.00    +0.000 A 
ATOM      8  C   UNL     1       3.542   5.173  17.918  0.00  0.00    +0.000 A 
ATOM      9  N   UNL     1       2.689   5.666  18.879  0.00  0.00    +0.000 N 
ATOM     10  H   UNL     1       2.166   5.109  19.541  0.00  0.00    +0.000 HD
ENDROOT
BRANCH   5  11
ATOM     11  C   UNL     1       6.409   4.564  14.821  0.00  0.00    +0.000 C 
ATOM     12  N   UNL     1       6.324   3.644  13.911  0.00  0.00    +0.000 NA
ATOM     13  N   UNL     1       7.510   5.369  14.768  0.00  0.00    +0.000 N 
ATOM     14  H   UNL     1       5.449   3.121  13.990  0.00  0.00    +0.000 HD
ATOM     15  H   UNL     1       7.886   5.676  15.656  0.00  0.00    +0.000 HD
ATOM     16  H   UNL     1       8.217   4.982  14.152  0.00  0.00    +0.000 HD
ENDBRANCH   5  11
BRANCH   1  18
ATOM     17  N   UNL     1       1.584   9.098  19.383  0.00  0.00    +0.000 N 
ATOM     18  C   UNL     1       1.876   7.817  19.793  0.00  0.00    +0.000 C 
ATOM     19  O   UNL     1       1.502   7.359  20.868  0.00  0.00    +0.000 OA
ATOM     20  H   UNL     1       1.779   9.354  18.427  0.00  0.00    +0.000 HD
BRANCH  17  21
ATOM     21  C   UNL     1       0.779   9.987  20.186  0.00  0.00    +0.000 C 
BRANCH  21  22
ATOM     22  C   UNL     1      -0.646  10.075  19.655  0.00  0.00    +0.000 C 
BRANCH  22  23
ATOM     23  C   UNL     1      -1.175  11.509  19.705  0.00  0.00    +0.000 C 
BRANCH  23  24
ATOM     24  C   UNL     1      -2.266  11.723  18.655  0.00  0.00    +0.000 C 
BRANCH  24  25
ATOM     25  C   UNL     1      -2.008  10.903  17.385  0.00  0.00    +0.000 C 
BRANCH  25  27
ATOM     26  C   UNL     1      -3.216  10.382  15.190  0.00  0.00    +0.000 C 
ATOM     27  C   UNL     1      -3.279  10.354  16.716  0.00  0.00    +0.000 C 
BRANCH  27  28
ATOM     28  C   UNL     1      -4.513  11.094  17.208  0.00  0.00    +0.000 C 
ATOM     29  O   UNL     1      -5.285  10.673  18.055  0.00  0.00    +0.000 OA
BRANCH  28  30
ATOM     30  O   UNL     1      -4.705  12.281  16.590  0.00  0.00    +0.000 OA
ATOM     31  H   UNL     1      -5.400  12.272  15.906  0.00  0.00    +0.000 HD
ENDBRANCH  28  30
ENDBRANCH  27  28
ENDBRANCH  25  27
ENDBRANCH  24  25
ENDBRANCH  23  24
ENDBRANCH  22  23
ENDBRANCH  21  22
ENDBRANCH  17  21
ENDBRANCH   1  18
TORSDOF 10
ENDMDL
MODEL 9
REMARK VINA RESULT:      -7.1      5.992      7.080
REMARK  Name = 
REMARK  11 active torsions:
REMARK  status: ('A' for Active; 'I' for Inactive)
REMARK    1  A    between atoms: C_1  and  C_2
REMARK    2  A    between atoms: C_2  and  C_3
REMARK    3  A    between atoms: C_2  and  C_23
REMARK    4  A    between atoms: C_3  and  C_4
REMARK    5  A    between atoms: C_4  and  C_5
REMARK    6  A    between atoms: C_5  and  C_6
REMARK    7  A    between atoms: C_6  and  C_7
REMARK    8  A    between atoms: C_7  and  N_8
REMARK    9  A    between atoms: C_9  and  C_11
REMARK   10  A    between atoms: C_15  and  C_16
REMARK   11  A    between atoms: C_23  and  O_25
REMARK                            x       y       z     vdW  Elec       q    Type
REMARK                         _______ _______ _______ _____ _____    ______ ____
ROOT
ATOM      1  C   UNL     1       2.772   8.007  18.111  0.00  0.00    +0.000 A 
ATOM      2  C   UNL     1       2.149   9.143  17.629  0.00  0.00    +0.000 A 
ATOM      3  C   UNL     1       1.232   9.602  18.608  0.00  0.00    +0.000 A 
ATOM      4  C   UNL     1       0.321  10.673  18.650  0.00  0.00    +0.000 A 
ATOM      5  C   UNL     1      -0.483  10.844  19.785  0.00  0.00    +0.000 A 
ATOM      6  C   UNL     1      -0.369   9.970  20.871  0.00  0.00    +0.000 A 
ATOM      7  C   UNL     1       0.546   8.906  20.851  0.00  0.00    +0.000 A 
ATOM      8  C   UNL     1       1.326   8.743  19.699  0.00  0.00    +0.000 A 
ATOM      9  N   UNL     1       2.268   7.792  19.378  0.00  0.00    +0.000 N 
ATOM     10  H   UNL     1       2.546   7.019  19.967  0.00  0.00    +0.000 HD
ENDROOT
BRANCH   5  11
ATOM     11  C   UNL     1      -1.480  11.952  19.788  0.00  0.00    +0.000 C 
ATOM     12  N   UNL     1      -1.579  12.818  20.748  0.00  0.00    +0.000 NA
ATOM     13  N   UNL     1      -2.355  12.097  18.750  0.00  0.00    +0.000 N 
ATOM     14  H   UNL     1      -0.856  12.672  21.457  0.00  0.00    +0.000 HD
ATOM     15  H   UNL     1      -2.684  11.243  18.317  0.00  0.00    +0.000 HD
ATOM     16  H   UNL     1      -3.107  12.733  18.991  0.00  0.00    +0.000 HD
ENDBRANCH   5  11
BRANCH   1  18
ATOM     17  N   UNL     1       3.469   5.779  17.665  0.00  0.00    +0.000 N 
ATOM     18  C   UNL     1       3.744   7.118  17.510  0.00  0.00    +0.000 C 
ATOM     19  O   UNL     1       4.730   7.531  16.908  0.00  0.00    +0.000 OA
ATOM     20  H   UNL     1       2.565   5.511  18.024  0.00  0.00    +0.000 HD
BRANCH  17  21
ATOM     21  C   UNL     1       4.315   4.759  17.093  0.00  0.00    +0.000 C 
BRANCH  21  22
ATOM     22  C   UNL     1       3.948   3.376  17.620  0.00  0.00    +0.000 C 
BRANCH  22  23
ATOM     23  C   UNL     1       2.520   2.992  17.235  0.00  0.00    +0.000 C 
BRANCH  23  24
ATOM     24  C   UNL     1       1.938   1.992  18.235  0.00  0.00    +0.000 C 
BRANCH  24  25
ATOM     25  C   UNL     1       1.134   2.688  19.340  0.00  0.00    +0.000 C 
BRANCH  25  27
ATOM     26  C   UNL     1       1.506   2.548  21.869  0.00  0.00    +0.000 C 
ATOM     27  C   UNL     1       1.976   3.147  20.543  0.00  0.00    +0.000 C 
BRANCH  27  28
ATOM     28  C   UNL     1       2.013   4.664  20.632  0.00  0.00    +0.000 C 
ATOM     29  O   UNL     1       1.028   5.379  20.733  0.00  0.00    +0.000 OA
BRANCH  28  30
ATOM     30  O   UNL     1       3.264   5.172  20.561  0.00  0.00    +0.000 OA
ATOM     31  H   UNL     1       3.969   4.539  20.792  0.00  0.00    +0.000 HD
ENDBRANCH  28  30
ENDBRANCH  27  28
ENDBRANCH  25  27
ENDBRANCH  24  25
ENDBRANCH  23  24
ENDBRANCH  22  23
ENDBRANCH  21  22
ENDBRANCH  17  21
ENDBRANCH   1  18
TORSDOF 10
ENDMDL
