MODEL 1
REMARK VINA RESULT:      -8.4      0.000      0.000
REMARK  Name = 
REMARK  9 active torsions:
REMARK  status: ('A' for Active; 'I' for Inactive)
REMARK    1  A    between atoms: C_1  and  O_2
REMARK    2  A    between atoms: O_2  and  C_3
REMARK    3  A    between atoms: C_6  and  C_7
REMARK    4  A    between atoms: C_8  and  C_9
REMARK    5  A    between atoms: C_8  and  C_11
REMARK    6  A    between atoms: N_13  and  C_14
REMARK    7  A    between atoms: C_19  and  C_20
REMARK    8  A    between atoms: C_22  and  C_23
REMARK    9  A    between atoms: C_23  and  O_25
REMARK                            x       y       z     vdW  Elec       q    Type
REMARK                         _______ _______ _______ _____ _____    ______ ____
ROOT
ATOM      1  C   UNL     1       4.191   3.452  19.552  0.00  0.00    +0.000 C 
ATOM      2  C   UNL     1       3.037   3.858  20.124  0.00  0.00    +0.000 C 
ENDROOT
BRANCH   1   6
ATOM      3  C   UNL     1       6.398   5.099  16.273  0.00  0.00    +0.000 A 
ATOM      4  C   UNL     1       5.402   4.139  16.053  0.00  0.00    +0.000 A 
ATOM      5  C   UNL     1       4.662   3.618  17.119  0.00  0.00    +0.000 A 
ATOM      6  C   UNL     1       4.902   4.056  18.421  0.00  0.00    +0.000 A 
ATOM      7  C   UNL     1       5.850   5.061  18.640  0.00  0.00    +0.000 A 
ATOM      8  C   UNL     1       6.596   5.599  17.574  0.00  0.00    +0.000 A 
BRANCH   3  10
ATOM      9  C   UNL     1       7.138   4.884  14.023  0.00  0.00    +0.000 C 
ATOM     10  O   UNL     1       7.185   5.598  15.260  0.00  0.00    +0.000 OA
ENDBRANCH   3  10
BRANCH   8  11
ATOM     11  C   UNL     1       7.584   6.662  17.940  0.00  0.00    +0.000 C 
ATOM     12  O   UNL     1       8.237   6.620  18.972  0.00  0.00    +0.000 OA
BRANCH  11  13
ATOM     13  O   UNL     1       7.717   7.674  17.058  0.00  0.00    +0.000 OA
ATOM     14  H   UNL     1       8.652   7.903  16.879  0.00  0.00    +0.000 HD
ENDBRANCH  11  13
ENDBRANCH   8  11
ENDBRANCH   1   6
BRANCH   2  15
ATOM     15  C   UNL     1       2.272   5.058  19.638  0.00  0.00    +0.000 C 
ATOM     16  O   UNL     1       1.303   4.933  18.894  0.00  0.00    +0.000 OA
ATOM     17  N   UNL     1       2.772   6.287  20.038  0.00  0.00    +0.000 N 
ATOM     18  H   UNL     1       3.721   6.352  20.387  0.00  0.00    +0.000 HD
BRANCH  17  19
ATOM     19  C   UNL     1       2.163   7.514  19.686  0.00  0.00    +0.000 A 
ATOM     20  C   UNL     1       1.286   8.156  20.571  0.00  0.00    +0.000 A 
ATOM     21  C   UNL     1       0.677   9.360  20.221  0.00  0.00    +0.000 A 
ATOM     22  C   UNL     1       0.939   9.931  18.980  0.00  0.00    +0.000 A 
ATOM     23  C   UNL     1       1.821   9.306  18.097  0.00  0.00    +0.000 A 
ATOM     24  C   UNL     1       2.445   8.095  18.438  0.00  0.00    +0.000 A 
ATOM     25  C   UNL     1       3.334   7.421  17.430  0.00  0.00    +0.000 C 
ENDBRANCH  17  19
ENDBRANCH   2  15
BRANCH   2  26
ATOM     26  C   UNL     1       2.528   3.104  21.225  0.00  0.00    +0.000 C 
ATOM     27  N   UNL     1       2.090   2.475  22.097  0.00  0.00    +0.000 NA
ENDBRANCH   2  26
TORSDOF 7
ENDMDL
MODEL 2
REMARK VINA RESULT:      -8.1      0.453      1.424
REMARK  Name = 
REMARK  9 active torsions:
REMARK  status: ('A' for Active; 'I' for Inactive)
REMARK    1  A    between atoms: C_1  and  O_2
REMARK    2  A    between atoms: O_2  and  C_3
REMARK    3  A    between atoms: C_6  and  C_7
REMARK    4  A    between atoms: C_8  and  C_9
REMARK    5  A    between atoms: C_8  and  C_11
REMARK    6  A    between atoms: N_13  and  C_14
REMARK    7  A    between atoms: C_19  and  C_20
REMARK    8  A    between atoms: C_22  and  C_23
REMARK    9  A    between atoms: C_23  and  O_25
REMARK                            x       y       z     vdW  Elec       q    Type
REMARK                         _______ _______ _______ _____ _____    ______ ____
ROOT
ATOM      1  C   UNL     1       4.160   3.678  19.507  0.00  0.00    +0.000 C 
ATOM      2  C   UNL     1       2.996   4.166  19.987  0.00  0.00    +0.000 C 
ENDROOT
BRANCH   1   6
ATOM      3  C   UNL     1       6.602   5.014  16.253  0.00  0.00    +0.000 A 
ATOM      4  C   UNL     1       5.649   4.005  16.064  0.00  0.00    +0.000 A 
ATOM      5  C   UNL     1       4.832   3.585  17.118  0.00  0.00    +0.000 A 
ATOM      6  C   UNL     1       4.952   4.174  18.377  0.00  0.00    +0.000 A 
ATOM      7  C   UNL     1       5.856   5.225  18.556  0.00  0.00    +0.000 A 
ATOM      8  C   UNL     1       6.678   5.663  17.501  0.00  0.00    +0.000 A 
BRANCH   3  10
ATOM      9  C   UNL     1       7.188   4.912  13.950  0.00  0.00    +0.000 C 
ATOM     10  O   UNL     1       7.461   5.420  15.258  0.00  0.00    +0.000 OA
ENDBRANCH   3  10
BRANCH   8  11
ATOM     11  C   UNL     1       7.608   6.791  17.821  0.00  0.00    +0.000 C 
ATOM     12  O   UNL     1       8.260   6.826  18.855  0.00  0.00    +0.000 OA
BRANCH  11  13
ATOM     13  O   UNL     1       7.691   7.770  16.898  0.00  0.00    +0.000 OA
ATOM     14  H   UNL     1       8.091   7.468  16.057  0.00  0.00    +0.000 HD
ENDBRANCH  11  13
ENDBRANCH   8  11
ENDBRANCH   1   6
BRANCH   2  15
ATOM     15  C   UNL     1       2.306   5.355  19.378  0.00  0.00    +0.000 C 
ATOM     16  O   UNL     1       1.514   5.223  18.449  0.00  0.00    +0.000 OA
ATOM     17  N   UNL     1       2.671   6.588  19.897  0.00  0.00    +0.000 N 
ATOM     18  H   UNL     1       3.525   6.672  20.435  0.00  0.00    +0.000 HD
BRANCH  17  19
ATOM     19  C   UNL     1       2.104   7.805  19.452  0.00  0.00    +0.000 A 
ATOM     20  C   UNL     1       2.387   8.299  18.171  0.00  0.00    +0.000 A 
ATOM     21  C   UNL     1       1.838   9.503  17.736  0.00  0.00    +0.000 A 
ATOM     22  C   UNL     1       1.001  10.226  18.580  0.00  0.00    +0.000 A 
ATOM     23  C   UNL     1       0.703   9.736  19.853  0.00  0.00    +0.000 A 
ATOM     24  C   UNL     1       1.246   8.522  20.303  0.00  0.00    +0.000 A 
ATOM     25  C   UNL     1       0.954   8.066  21.706  0.00  0.00    +0.000 C 
ENDBRANCH  17  19
ENDBRANCH   2  15
BRANCH   2  26
ATOM     26  C   UNL     1       2.402   3.512  21.109  0.00  0.00    +0.000 C 
ATOM     27  N   UNL     1       1.887   3.000  22.015  0.00  0.00    +0.000 NA
ENDBRANCH   2  26
TORSDOF 7
ENDMDL
MODEL 3
REMARK VINA RESULT:      -7.5      3.324      6.977
REMARK  Name = 
REMARK  9 active torsions:
REMARK  status: ('A' for Active; 'I' for Inactive)
REMARK    1  A    between atoms: C_1  and  O_2
REMARK    2  A    between atoms: O_2  and  C_3
REMARK    3  A    between atoms: C_6  and  C_7
REMARK    4  A    between atoms: C_8  and  C_9
REMARK    5  A    between atoms: C_8  and  C_11
REMARK    6  A    between atoms: N_13  and  C_14
REMARK    7  A    between atoms: C_19  and  C_20
REMARK    8  A    between atoms: C_22  and  C_23
REMARK    9  A    between atoms: C_23  and  O_25
REMARK                            x       y       z     vdW  Elec       q    Type
REMARK                         _______ _______ _______ _____ _____    ______ ____
ROOT
ATOM      1  C   UNL     1       5.868   6.497  18.480  0.00  0.00    +0.000 C 
ATOM      2  C   UNL     1       6.551   6.966  17.413  0.00  0.00    +0.000 C 
ENDROOT
BRANCH   1   6
ATOM      3  C   UNL     1       2.750   3.571  18.714  0.00  0.00    +0.000 A 
ATOM      4  C   UNL     1       2.485   4.861  18.236  0.00  0.00    +0.000 A 
ATOM      5  C   UNL     1       3.506   5.810  18.133  0.00  0.00    +0.000 A 
ATOM      6  C   UNL     1       4.811   5.481  18.502  0.00  0.00    +0.000 A 
ATOM      7  C   UNL     1       5.094   4.177  18.918  0.00  0.00    +0.000 A 
ATOM      8  C   UNL     1       4.076   3.209  19.018  0.00  0.00    +0.000 A 
BRANCH   3  10
ATOM      9  C   UNL     1       0.961   2.758  20.054  0.00  0.00    +0.000 C 
ATOM     10  O   UNL     1       1.766   2.624  18.880  0.00  0.00    +0.000 OA
ENDBRANCH   3  10
BRANCH   8  11
ATOM     11  C   UNL     1       4.507   1.854  19.483  0.00  0.00    +0.000 C 
ATOM     12  O   UNL     1       5.079   1.680  20.549  0.00  0.00    +0.000 OA
BRANCH  11  13
ATOM     13  O   UNL     1       4.224   0.827  18.656  0.00  0.00    +0.000 OA
ATOM     14  H   UNL     1       3.373   0.943  18.183  0.00  0.00    +0.000 HD
ENDBRANCH  11  13
ENDBRANCH   8  11
ENDBRANCH   1   6
BRANCH   2  15
ATOM     15  C   UNL     1       6.293   6.484  16.012  0.00  0.00    +0.000 C 
ATOM     16  O   UNL     1       5.360   6.929  15.350  0.00  0.00    +0.000 OA
ATOM     17  N   UNL     1       7.136   5.479  15.562  0.00  0.00    +0.000 N 
ATOM     18  H   UNL     1       7.680   4.945  16.229  0.00  0.00    +0.000 HD
BRANCH  17  19
ATOM     19  C   UNL     1       7.044   4.926  14.263  0.00  0.00    +0.000 A 
ATOM     20  C   UNL     1       7.831   5.427  13.216  0.00  0.00    +0.000 A 
ATOM     21  C   UNL     1       7.734   4.889  11.934  0.00  0.00    +0.000 A 
ATOM     22  C   UNL     1       6.845   3.847  11.688  0.00  0.00    +0.000 A 
ATOM     23  C   UNL     1       6.067   3.334  12.726  0.00  0.00    +0.000 A 
ATOM     24  C   UNL     1       6.158   3.863  14.024  0.00  0.00    +0.000 A 
ATOM     25  C   UNL     1       5.251   3.326  15.097  0.00  0.00    +0.000 C 
ENDBRANCH  17  19
ENDBRANCH   2  15
BRANCH   2  26
ATOM     26  C   UNL     1       7.546   7.966  17.636  0.00  0.00    +0.000 C 
ATOM     27  N   UNL     1       8.328   8.801  17.831  0.00  0.00    +0.000 NA
ENDBRANCH   2  26
TORSDOF 7
ENDMDL
MODEL 4
REMARK VINA RESULT:      -7.5      0.982      1.162
REMARK  Name = 
REMARK  9 active torsions:
REMARK  status: ('A' for Active; 'I' for Inactive)
REMARK    1  A    between atoms: C_1  and  O_2
REMARK    2  A    between atoms: O_2  and  C_3
REMARK    3  A    between atoms: C_6  and  C_7
REMARK    4  A    between atoms: C_8  and  C_9
REMARK    5  A    between atoms: C_8  and  C_11
REMARK    6  A    between atoms: N_13  and  C_14
REMARK    7  A    between atoms: C_19  and  C_20
REMARK    8  A    between atoms: C_22  and  C_23
REMARK    9  A    between atoms: C_23  and  O_25
REMARK                            x       y       z     vdW  Elec       q    Type
REMARK                         _______ _______ _______ _____ _____    ______ ____
ROOT
ATOM      1  C   UNL     1       3.456   2.975  19.815  0.00  0.00    +0.000 C 
ATOM      2  C   UNL     1       2.384   3.512  20.437  0.00  0.00    +0.000 C 
ENDROOT
BRANCH   1   6
ATOM      3  C   UNL     1       5.679   4.360  16.426  0.00  0.00    +0.000 A 
ATOM      4  C   UNL     1       4.355   3.924  16.283  0.00  0.00    +0.000 A 
ATOM      5  C   UNL     1       3.618   3.496  17.391  0.00  0.00    +0.000 A 
ATOM      6  C   UNL     1       4.192   3.504  18.662  0.00  0.00    +0.000 A 
ATOM      7  C   UNL     1       5.490   3.999  18.822  0.00  0.00    +0.000 A 
ATOM      8  C   UNL     1       6.240   4.440  17.715  0.00  0.00    +0.000 A 
BRANCH   3  10
ATOM      9  C   UNL     1       6.306   3.959  14.168  0.00  0.00    +0.000 C 
ATOM     10  O   UNL     1       6.455   4.739  15.356  0.00  0.00    +0.000 OA
ENDBRANCH   3  10
BRANCH   8  11
ATOM     11  C   UNL     1       7.619   4.939  18.016  0.00  0.00    +0.000 C 
ATOM     12  O   UNL     1       7.827   6.064  18.447  0.00  0.00    +0.000 OA
BRANCH  11  13
ATOM     13  O   UNL     1       8.625   4.070  17.787  0.00  0.00    +0.000 OA
ATOM     14  H   UNL     1       9.509   4.467  17.929  0.00  0.00    +0.000 HD
ENDBRANCH  11  13
ENDBRANCH   8  11
ENDBRANCH   1   6
BRANCH   2  15
ATOM     15  C   UNL     1       1.757   4.805  19.994  0.00  0.00    +0.000 C 
ATOM     16  O   UNL     1       0.745   4.814  19.299  0.00  0.00    +0.000 OA
ATOM     17  N   UNL     1       2.429   5.957  20.376  0.00  0.00    +0.000 N 
ATOM     18  H   UNL     1       3.393   5.896  20.679  0.00  0.00    +0.000 HD
BRANCH  17  19
ATOM     19  C   UNL     1       1.965   7.255  20.060  0.00  0.00    +0.000 A 
ATOM     20  C   UNL     1       1.146   7.958  20.955  0.00  0.00    +0.000 A 
ATOM     21  C   UNL     1       0.680   9.233  20.640  0.00  0.00    +0.000 A 
ATOM     22  C   UNL     1       1.028   9.816  19.426  0.00  0.00    +0.000 A 
ATOM     23  C   UNL     1       1.854   9.129  18.534  0.00  0.00    +0.000 A 
ATOM     24  C   UNL     1       2.334   7.845  18.840  0.00  0.00    +0.000 A 
ATOM     25  C   UNL     1       3.164   7.113  17.822  0.00  0.00    +0.000 C 
ENDBRANCH  17  19
ENDBRANCH   2  15
BRANCH   2  26
ATOM     26  C   UNL     1       1.829   2.811  21.549  0.00  0.00    +0.000 C 
ATOM     27  N   UNL     1       1.374   2.209  22.432  0.00  0.00    +0.000 NA
ENDBRANCH   2  26
TORSDOF 7
ENDMDL
MODEL 5
REMARK VINA RESULT:      -7.4      3.326      7.099
REMARK  Name = 
REMARK  9 active torsions:
REMARK  status: ('A' for Active; 'I' for Inactive)
REMARK    1  A    between atoms: C_1  and  O_2
REMARK    2  A    between atoms: O_2  and  C_3
REMARK    3  A    between atoms: C_6  and  C_7
REMARK    4  A    between atoms: C_8  and  C_9
REMARK    5  A    between atoms: C_8  and  C_11
REMARK    6  A    between atoms: N_13  and  C_14
REMARK    7  A    between atoms: C_19  and  C_20
REMARK    8  A    between atoms: C_22  and  C_23
REMARK    9  A    between atoms: C_23  and  O_25
REMARK                            x       y       z     vdW  Elec       q    Type
REMARK                         _______ _______ _______ _____ _____    ______ ____
ROOT
ATOM      1  C   UNL     1       5.559   6.412  18.046  0.00  0.00    +0.000 C 
ATOM      2  C   UNL     1       6.604   6.487  17.194  0.00  0.00    +0.000 C 
ENDROOT
BRANCH   1   6
ATOM      3  C   UNL     1       2.494   3.444  18.414  0.00  0.00    +0.000 A 
ATOM      4  C   UNL     1       2.209   4.702  17.866  0.00  0.00    +0.000 A 
ATOM      5  C   UNL     1       3.213   5.663  17.720  0.00  0.00    +0.000 A 
ATOM      6  C   UNL     1       4.521   5.378  18.114  0.00  0.00    +0.000 A 
ATOM      7  C   UNL     1       4.825   4.104  18.601  0.00  0.00    +0.000 A 
ATOM      8  C   UNL     1       3.824   3.123  18.745  0.00  0.00    +0.000 A 
BRANCH   3  10
ATOM      9  C   UNL     1       0.725   2.657  19.794  0.00  0.00    +0.000 C 
ATOM     10  O   UNL     1       1.526   2.489  18.623  0.00  0.00    +0.000 OA
ENDBRANCH   3  10
BRANCH   8  11
ATOM     11  C   UNL     1       4.276   1.803  19.284  0.00  0.00    +0.000 C 
ATOM     12  O   UNL     1       4.903   1.703  20.329  0.00  0.00    +0.000 OA
BRANCH  11  13
ATOM     13  O   UNL     1       3.947   0.721  18.550  0.00  0.00    +0.000 OA
ATOM     14  H   UNL     1       4.630   0.489  17.887  0.00  0.00    +0.000 HD
ENDBRANCH  11  13
ENDBRANCH   8  11
ENDBRANCH   1   6
BRANCH   2  15
ATOM     15  C   UNL     1       6.852   5.459  16.124  0.00  0.00    +0.000 C 
ATOM     16  O   UNL     1       7.600   4.506  16.322  0.00  0.00    +0.000 OA
ATOM     17  N   UNL     1       6.229   5.700  14.909  0.00  0.00    +0.000 N 
ATOM     18  H   UNL     1       5.878   6.627  14.701  0.00  0.00    +0.000 HD
BRANCH  17  19
ATOM     19  C   UNL     1       6.340   4.823  13.805  0.00  0.00    +0.000 A 
ATOM     20  C   UNL     1       5.382   3.823  13.587  0.00  0.00    +0.000 A 
ATOM     21  C   UNL     1       5.496   2.953  12.505  0.00  0.00    +0.000 A 
ATOM     22  C   UNL     1       6.572   3.075  11.631  0.00  0.00    +0.000 A 
ATOM     23  C   UNL     1       7.524   4.075  11.832  0.00  0.00    +0.000 A 
ATOM     24  C   UNL     1       7.419   4.962  12.916  0.00  0.00    +0.000 A 
ATOM     25  C   UNL     1       8.503   5.981  13.134  0.00  0.00    +0.000 C 
ENDBRANCH  17  19
ENDBRANCH   2  15
BRANCH   2  26
ATOM     26  C   UNL     1       7.495   7.596  17.317  0.00  0.00    +0.000 C 
ATOM     27  N   UNL     1       8.242   8.477  17.438  0.00  0.00    +0.000 NA
ENDBRANCH   2  26
TORSDOF 7
ENDMDL
MODEL 6
REMARK VINA RESULT:      -7.2      0.875      2.176
REMARK  Name = 
REMARK  9 active torsions:
REMARK  status: ('A' for Active; 'I' for Inactive)
REMARK    1  A    between atoms: C_1  and  O_2
REMARK    2  A    between atoms: O_2  and  C_3
REMARK    3  A    between atoms: C_6  and  C_7
REMARK    4  A    between atoms: C_8  and  C_9
REMARK    5  A    between atoms: C_8  and  C_11
REMARK    6  A    between atoms: N_13  and  C_14
REMARK    7  A    between atoms: C_19  and  C_20
REMARK    8  A    between atoms: C_22  and  C_23
REMARK    9  A    between atoms: C_23  and  O_25
REMARK                            x       y       z     vdW  Elec       q    Type
REMARK                         _______ _______ _______ _____ _____    ______ ____
ROOT
ATOM      1  C   UNL     1       4.412   3.538  19.418  0.00  0.00    +0.000 C 
ATOM      2  C   UNL     1       3.100   3.768  19.641  0.00  0.00    +0.000 C 
ENDROOT
BRANCH   1   6
ATOM      3  C   UNL     1       7.106   6.186  17.401  0.00  0.00    +0.000 A 
ATOM      4  C   UNL     1       7.025   6.178  18.799  0.00  0.00    +0.000 A 
ATOM      5  C   UNL     1       6.166   5.296  19.462  0.00  0.00    +0.000 A 
ATOM      6  C   UNL     1       5.378   4.404  18.734  0.00  0.00    +0.000 A 
ATOM      7  C   UNL     1       5.502   4.362  17.342  0.00  0.00    +0.000 A 
ATOM      8  C   UNL     1       6.369   5.239  16.664  0.00  0.00    +0.000 A 
BRANCH   3  10
ATOM      9  C   UNL     1       8.080   8.354  17.314  0.00  0.00    +0.000 C 
ATOM     10  O   UNL     1       7.898   7.072  16.708  0.00  0.00    +0.000 OA
ENDBRANCH   3  10
BRANCH   8  11
ATOM     11  C   UNL     1       6.405   5.100  15.174  0.00  0.00    +0.000 C 
ATOM     12  O   UNL     1       5.427   4.760  14.526  0.00  0.00    +0.000 OA
BRANCH  11  13
ATOM     13  O   UNL     1       7.585   5.378  14.583  0.00  0.00    +0.000 OA
ATOM     14  H   UNL     1       7.488   5.635  13.643  0.00  0.00    +0.000 HD
ENDBRANCH  11  13
ENDBRANCH   8  11
ENDBRANCH   1   6
BRANCH   2  15
ATOM     15  C   UNL     1       2.408   5.020  19.179  0.00  0.00    +0.000 C 
ATOM     16  O   UNL     1       1.573   4.989  18.280  0.00  0.00    +0.000 OA
ATOM     17  N   UNL     1       2.822   6.192  19.794  0.00  0.00    +0.000 N 
ATOM     18  H   UNL     1       3.700   6.211  20.296  0.00  0.00    +0.000 HD
BRANCH  17  19
ATOM     19  C   UNL     1       2.261   7.455  19.491  0.00  0.00    +0.000 A 
ATOM     20  C   UNL     1       1.344   8.058  20.364  0.00  0.00    +0.000 A 
ATOM     21  C   UNL     1       0.784   9.297  20.062  0.00  0.00    +0.000 A 
ATOM     22  C   UNL     1       1.135   9.945  18.882  0.00  0.00    +0.000 A 
ATOM     23  C   UNL     1       2.056   9.359  18.012  0.00  0.00    +0.000 A 
ATOM     24  C   UNL     1       2.632   8.112  18.306  0.00  0.00    +0.000 A 
ATOM     25  C   UNL     1       3.567   7.486  17.309  0.00  0.00    +0.000 C 
ENDBRANCH  17  19
ENDBRANCH   2  15
BRANCH   2  26
ATOM     26  C   UNL     1       2.349   2.770  20.335  0.00  0.00    +0.000 C 
ATOM     27  N   UNL     1       1.709   1.983  20.899  0.00  0.00    +0.000 NA
ENDBRANCH   2  26
TORSDOF 7
ENDMDL
MODEL 7
REMARK VINA RESULT:      -7.0      1.057      2.548
REMARK  Name = 
REMARK  9 active torsions:
REMARK  status: ('A' for Active; 'I' for Inactive)
REMARK    1  A    between atoms: C_1  and  O_2
REMARK    2  A    between atoms: O_2  and  C_3
REMARK    3  A    between atoms: C_6  and  C_7
REMARK    4  A    between atoms: C_8  and  C_9
REMARK    5  A    between atoms: C_8  and  C_11
REMARK    6  A    between atoms: N_13  and  C_14
REMARK    7  A    between atoms: C_19  and  C_20
REMARK    8  A    between atoms: C_22  and  C_23
REMARK    9  A    between atoms: C_23  and  O_25
REMARK                            x       y       z     vdW  Elec       q    Type
REMARK                         _______ _______ _______ _____ _____    ______ ____
ROOT
ATOM      1  C   UNL     1       4.258   3.826  19.776  0.00  0.00    +0.000 C 
ATOM      2  C   UNL     1       2.951   4.091  19.986  0.00  0.00    +0.000 C 
ENDROOT
BRANCH   1   6
ATOM      3  C   UNL     1       6.976   6.222  17.492  0.00  0.00    +0.000 A 
ATOM      4  C   UNL     1       7.224   5.953  18.845  0.00  0.00    +0.000 A 
ATOM      5  C   UNL     1       6.352   5.149  19.586  0.00  0.00    +0.000 A 
ATOM      6  C   UNL     1       5.222   4.597  18.983  0.00  0.00    +0.000 A 
ATOM      7  C   UNL     1       5.003   4.809  17.619  0.00  0.00    +0.000 A 
ATOM      8  C   UNL     1       5.878   5.609  16.859  0.00  0.00    +0.000 A 
BRANCH   3  10
ATOM      9  C   UNL     1       8.052   8.334  17.305  0.00  0.00    +0.000 C 
ATOM     10  O   UNL     1       7.778   7.050  16.742  0.00  0.00    +0.000 OA
ENDBRANCH   3  10
BRANCH   8  11
ATOM     11  C   UNL     1       5.530   5.766  15.412  0.00  0.00    +0.000 C 
ATOM     12  O   UNL     1       5.554   4.827  14.629  0.00  0.00    +0.000 OA
BRANCH  11  13
ATOM     13  O   UNL     1       5.183   7.008  15.018  0.00  0.00    +0.000 OA
ATOM     14  H   UNL     1       4.359   7.326  15.442  0.00  0.00    +0.000 HD
ENDBRANCH  11  13
ENDBRANCH   8  11
ENDBRANCH   1   6
BRANCH   2  15
ATOM     15  C   UNL     1       2.262   5.286  19.388  0.00  0.00    +0.000 C 
ATOM     16  O   UNL     1       1.438   5.157  18.486  0.00  0.00    +0.000 OA
ATOM     17  N   UNL     1       2.665   6.517  19.882  0.00  0.00    +0.000 N 
ATOM     18  H   UNL     1       3.537   6.592  20.391  0.00  0.00    +0.000 HD
BRANCH  17  19
ATOM     19  C   UNL     1       2.105   7.740  19.443  0.00  0.00    +0.000 A 
ATOM     20  C   UNL     1       2.379   8.231  18.159  0.00  0.00    +0.000 A 
ATOM     21  C   UNL     1       1.836   9.440  17.729  0.00  0.00    +0.000 A 
ATOM     22  C   UNL     1       1.014  10.170  18.581  0.00  0.00    +0.000 A 
ATOM     23  C   UNL     1       0.724   9.683  19.857  0.00  0.00    +0.000 A 
ATOM     24  C   UNL     1       1.261   8.464  20.302  0.00  0.00    +0.000 A 
ATOM     25  C   UNL     1       0.979   8.010  21.707  0.00  0.00    +0.000 C 
ENDBRANCH  17  19
ENDBRANCH   2  15
BRANCH   2  26
ATOM     26  C   UNL     1       2.203   3.189  20.802  0.00  0.00    +0.000 C 
ATOM     27  N   UNL     1       1.610   2.472  21.497  0.00  0.00    +0.000 NA
ENDBRANCH   2  26
TORSDOF 7
ENDMDL
MODEL 8
REMARK VINA RESULT:      -6.8      3.727      7.001
REMARK  Name = 
REMARK  9 active torsions:
REMARK  status: ('A' for Active; 'I' for Inactive)
REMARK    1  A    between atoms: C_1  and  O_2
REMARK    2  A    between atoms: O_2  and  C_3
REMARK    3  A    between atoms: C_6  and  C_7
REMARK    4  A    between atoms: C_8  and  C_9
REMARK    5  A    between atoms: C_8  and  C_11
REMARK    6  A    between atoms: N_13  and  C_14
REMARK    7  A    between atoms: C_19  and  C_20
REMARK    8  A    between atoms: C_22  and  C_23
REMARK    9  A    between atoms: C_23  and  O_25
REMARK                            x       y       z     vdW  Elec       q    Type
REMARK                         _______ _______ _______ _____ _____    ______ ____
ROOT
ATOM      1  C   UNL     1       5.953   6.188  18.333  0.00  0.00    +0.000 C 
ATOM      2  C   UNL     1       6.513   6.751  17.240  0.00  0.00    +0.000 C 
ENDROOT
BRANCH   1   6
ATOM      3  C   UNL     1       3.051   3.050  18.606  0.00  0.00    +0.000 A 
ATOM      4  C   UNL     1       3.001   3.981  17.560  0.00  0.00    +0.000 A 
ATOM      5  C   UNL     1       3.963   4.990  17.452  0.00  0.00    +0.000 A 
ATOM      6  C   UNL     1       4.993   5.080  18.389  0.00  0.00    +0.000 A 
ATOM      7  C   UNL     1       5.086   4.118  19.398  0.00  0.00    +0.000 A 
ATOM      8  C   UNL     1       4.129   3.091  19.512  0.00  0.00    +0.000 A 
BRANCH   3  10
ATOM      9  C   UNL     1       0.761   2.538  18.990  0.00  0.00    +0.000 C 
ATOM     10  O   UNL     1       2.096   2.075  18.778  0.00  0.00    +0.000 OA
ENDBRANCH   3  10
BRANCH   8  11
ATOM     11  C   UNL     1       4.334   2.128  20.639  0.00  0.00    +0.000 C 
ATOM     12  O   UNL     1       5.294   1.373  20.687  0.00  0.00    +0.000 OA
BRANCH  11  13
ATOM     13  O   UNL     1       3.396   2.143  21.607  0.00  0.00    +0.000 OA
ATOM     14  H   UNL     1       3.271   3.030  22.004  0.00  0.00    +0.000 HD
ENDBRANCH  11  13
ENDBRANCH   8  11
ENDBRANCH   1   6
BRANCH   2  15
ATOM     15  C   UNL     1       6.198   6.292  15.843  0.00  0.00    +0.000 C 
ATOM     16  O   UNL     1       5.303   6.820  15.189  0.00  0.00    +0.000 OA
ATOM     17  N   UNL     1       6.941   5.214  15.386  0.00  0.00    +0.000 N 
ATOM     18  H   UNL     1       7.441   4.634  16.049  0.00  0.00    +0.000 HD
BRANCH  17  19
ATOM     19  C   UNL     1       6.786   4.671  14.089  0.00  0.00    +0.000 A 
ATOM     20  C   UNL     1       5.755   3.761  13.815  0.00  0.00    +0.000 A 
ATOM     21  C   UNL     1       5.608   3.218  12.540  0.00  0.00    +0.000 A 
ATOM     22  C   UNL     1       6.492   3.579  11.529  0.00  0.00    +0.000 A 
ATOM     23  C   UNL     1       7.513   4.494  11.789  0.00  0.00    +0.000 A 
ATOM     24  C   UNL     1       7.671   5.053  13.068  0.00  0.00    +0.000 A 
ATOM     25  C   UNL     1       8.826   5.981  13.322  0.00  0.00    +0.000 C 
ENDBRANCH  17  19
ENDBRANCH   2  15
BRANCH   2  26
ATOM     26  C   UNL     1       7.431   7.828  17.432  0.00  0.00    +0.000 C 
ATOM     27  N   UNL     1       8.148   8.725  17.603  0.00  0.00    +0.000 NA
ENDBRANCH   2  26
TORSDOF 7
ENDMDL
MODEL 9
REMARK VINA RESULT:      -6.6      3.008      4.675
REMARK  Name = 
REMARK  9 active torsions:
REMARK  status: ('A' for Active; 'I' for Inactive)
REMARK    1  A    between atoms: C_1  and  O_2
REMARK    2  A    between atoms: O_2  and  C_3
REMARK    3  A    between atoms: C_6  and  C_7
REMARK    4  A    between atoms: C_8  and  C_9
REMARK    5  A    between atoms: C_8  and  C_11
REMARK    6  A    between atoms: N_13  and  C_14
REMARK    7  A    between atoms: C_19  and  C_20
REMARK    8  A    between atoms: C_22  and  C_23
REMARK    9  A    between atoms: C_23  and  O_25
REMARK                            x       y       z     vdW  Elec       q    Type
REMARK                         _______ _______ _______ _____ _____    ______ ____
ROOT
ATOM      1  C   UNL     1       7.472   4.817  17.459  0.00  0.00    +0.000 C 
ATOM      2  C   UNL     1       6.804   5.026  18.614  0.00  0.00    +0.000 C 
ENDROOT
BRANCH   1   6
ATOM      3  C   UNL     1       5.959   3.924  13.553  0.00  0.00    +0.000 A 
ATOM      4  C   UNL     1       5.305   3.449  14.699  0.00  0.00    +0.000 A 
ATOM      5  C   UNL     1       5.782   3.762  15.975  0.00  0.00    +0.000 A 
ATOM      6  C   UNL     1       6.917   4.559  16.126  0.00  0.00    +0.000 A 
ATOM      7  C   UNL     1       7.535   5.088  14.990  0.00  0.00    +0.000 A 
ATOM      8  C   UNL     1       7.061   4.788  13.698  0.00  0.00    +0.000 A 
BRANCH   3  10
ATOM      9  C   UNL     1       5.798   2.249  11.873  0.00  0.00    +0.000 C 
ATOM     10  O   UNL     1       5.554   3.597  12.280  0.00  0.00    +0.000 OA
ENDBRANCH   3  10
BRANCH   8  11
ATOM     11  C   UNL     1       7.814   5.409  12.564  0.00  0.00    +0.000 C 
ATOM     12  O   UNL     1       8.762   6.159  12.743  0.00  0.00    +0.000 OA
BRANCH  11  13
ATOM     13  O   UNL     1       7.387   5.090  11.326  0.00  0.00    +0.000 OA
ATOM     14  H   UNL     1       7.419   4.128  11.148  0.00  0.00    +0.000 HD
ENDBRANCH  11  13
ENDBRANCH   8  11
ENDBRANCH   1   6
BRANCH   2  15
ATOM     15  C   UNL     1       5.302   5.010  18.693  0.00  0.00    +0.000 C 
ATOM     16  O   UNL     1       4.631   5.911  18.197  0.00  0.00    +0.000 OA
ATOM     17  N   UNL     1       4.753   3.955  19.405  0.00  0.00    +0.000 N 
ATOM     18  H   UNL     1       5.336   3.419  20.037  0.00  0.00    +0.000 HD
BRANCH  17  19
ATOM     19  C   UNL     1       3.358   3.778  19.560  0.00  0.00    +0.000 A 
ATOM     20  C   UNL     1       2.619   4.627  20.396  0.00  0.00    +0.000 A 
ATOM     21  C   UNL     1       1.247   4.447  20.557  0.00  0.00    +0.000 A 
ATOM     22  C   UNL     1       0.602   3.415  19.884  0.00  0.00    +0.000 A 
ATOM     23  C   UNL     1       1.327   2.572  19.040  0.00  0.00    +0.000 A 
ATOM     24  C   UNL     1       2.710   2.744  18.865  0.00  0.00    +0.000 A 
ATOM     25  C   UNL     1       3.463   1.772  18.001  0.00  0.00    +0.000 C 
ENDBRANCH  17  19
ENDBRANCH   2  15
BRANCH   2  26
ATOM     26  C   UNL     1       7.564   5.260  19.799  0.00  0.00    +0.000 C 
ATOM     27  N   UNL     1       8.195   5.483  20.749  0.00  0.00    +0.000 NA
ENDBRANCH   2  26
TORSDOF 7
ENDMDL
