MODEL 1
REMARK VINA RESULT:      -7.8      0.000      0.000
REMARK  Name = 
REMARK  10 active torsions:
REMARK  status: ('A' for Active; 'I' for Inactive)
REMARK    1  A    between atoms: C_1  and  C_2
REMARK    2  A    between atoms: C_2  and  N_3
REMARK    3  A    between atoms: N_3  and  C_4
REMARK    4  A    between atoms: N_3  and  C_6
REMARK    5  A    between atoms: C_4  and  C_5
REMARK    6  A    between atoms: C_6  and  C_7
REMARK    7  A    between atoms: C_7  and  N_8
REMARK    8  A    between atoms: C_9  and  C_11
REMARK    9  A    between atoms: C_15  and  C_16
REMARK   10  A    between atoms: C_22  and  C_23
REMARK                            x       y       z     vdW  Elec       q    Type
REMARK                         _______ _______ _______ _____ _____    ______ ____
ROOT
ATOM      1  C   UNL     1       6.910   5.079  16.411  0.00  0.00    +0.000 A 
ATOM      2  C   UNL     1       7.850   5.832  17.130  0.00  0.00    +0.000 A 
ATOM      3  C   UNL     1       7.701   6.004  18.501  0.00  0.00    +0.000 A 
ATOM      4  C   UNL     1       6.625   5.416  19.164  0.00  0.00    +0.000 A 
ATOM      5  C   UNL     1       5.677   4.651  18.469  0.00  0.00    +0.000 A 
ATOM      6  C   UNL     1       5.839   4.481  17.084  0.00  0.00    +0.000 A 
ENDROOT
BRANCH   5   7
ATOM      7  C   UNL     1       4.572   4.019  19.199  0.00  0.00    +0.000 A 
ATOM      8  C   UNL     1       4.392   2.695  19.571  0.00  0.00    +0.000 A 
ATOM      9  N   UNL     1       3.223   2.500  20.255  0.00  0.00    +0.000 NA
ATOM     10  C   UNL     1       2.670   3.689  20.316  0.00  0.00    +0.000 A 
ATOM     11  C   UNL     1       1.457   4.102  20.900  0.00  0.00    +0.000 A 
ATOM     12  C   UNL     1       1.099   5.387  20.829  0.00  0.00    +0.000 A 
ATOM     13  C   UNL     1       2.021   6.336  20.129  0.00  0.00    +0.000 A 
ATOM     14  N   UNL     1       3.157   5.990  19.596  0.00  0.00    +0.000 NA
ATOM     15  N   UNL     1       3.448   4.655  19.697  0.00  0.00    +0.000 N 
BRANCH  13  16
ATOM     16  C   UNL     1       1.584   7.718  20.061  0.00  0.00    +0.000 A 
ATOM     17  C   UNL     1       1.032   8.508  21.057  0.00  0.00    +0.000 A 
ATOM     18  C   UNL     1       0.770   9.837  20.624  0.00  0.00    +0.000 A 
ATOM     19  C   UNL     1       1.152  10.028  19.320  0.00  0.00    +0.000 A 
ATOM     20  S   UNL     1       1.749   8.597  18.600  0.00  0.00    +0.000 S 
ENDBRANCH  13  16
ENDBRANCH   5   7
BRANCH   1  22
ATOM     21  N   UNL     1       6.439   3.866  14.330  0.00  0.00    +0.000 N 
ATOM     22  C   UNL     1       7.135   4.881  14.956  0.00  0.00    +0.000 C 
ATOM     23  O   UNL     1       7.912   5.622  14.360  0.00  0.00    +0.000 OA
ATOM     24  H   UNL     1       5.613   3.467  14.766  0.00  0.00    +0.000 HD
BRANCH  21  25
ATOM     25  C   UNL     1       6.590   3.689  12.899  0.00  0.00    +0.000 C 
BRANCH  25  26
ATOM     26  C   UNL     1       5.255   3.658  12.133  0.00  0.00    +0.000 C 
BRANCH  26  27
ATOM     27  N   UNL     1       4.872   2.356  11.536  0.00  0.00    +0.000 NA
BRANCH  27  29
ATOM     28  C   UNL     1       3.217   3.893  10.353  0.00  0.00    +0.000 C 
ATOM     29  C   UNL     1       3.919   2.543  10.427  0.00  0.00    +0.000 C 
ENDBRANCH  27  29
BRANCH  27  30
ATOM     30  C   UNL     1       6.082   1.587  11.177  0.00  0.00    +0.000 C 
ATOM     31  C   UNL     1       5.982   0.064  11.220  0.00  0.00    +0.000 C 
ENDBRANCH  27  30
ENDBRANCH  26  27
ENDBRANCH  25  26
ENDBRANCH  21  25
ENDBRANCH   1  22
TORSDOF 8
ENDMDL
MODEL 2
REMARK VINA RESULT:      -7.7      3.530      6.431
REMARK  Name = 
REMARK  10 active torsions:
REMARK  status: ('A' for Active; 'I' for Inactive)
REMARK    1  A    between atoms: C_1  and  C_2
REMARK    2  A    between atoms: C_2  and  N_3
REMARK    3  A    between atoms: N_3  and  C_4
REMARK    4  A    between atoms: N_3  and  C_6
REMARK    5  A    between atoms: C_4  and  C_5
REMARK    6  A    between atoms: C_6  and  C_7
REMARK    7  A    between atoms: C_7  and  N_8
REMARK    8  A    between atoms: C_9  and  C_11
REMARK    9  A    between atoms: C_15  and  C_16
REMARK   10  A    between atoms: C_22  and  C_23
REMARK                            x       y       z     vdW  Elec       q    Type
REMARK                         _______ _______ _______ _____ _____    ______ ____
ROOT
ATOM      1  C   UNL     1       6.922   5.705  17.491  0.00  0.00    +0.000 A 
ATOM      2  C   UNL     1       7.098   5.588  16.106  0.00  0.00    +0.000 A 
ATOM      3  C   UNL     1       6.274   4.745  15.368  0.00  0.00    +0.000 A 
ATOM      4  C   UNL     1       5.263   4.028  16.005  0.00  0.00    +0.000 A 
ATOM      5  C   UNL     1       5.060   4.135  17.389  0.00  0.00    +0.000 A 
ATOM      6  C   UNL     1       5.896   4.991  18.123  0.00  0.00    +0.000 A 
ENDROOT
BRANCH   5   7
ATOM      7  C   UNL     1       3.968   3.392  18.026  0.00  0.00    +0.000 A 
ATOM      8  C   UNL     1       3.683   2.034  18.005  0.00  0.00    +0.000 A 
ATOM      9  N   UNL     1       2.568   1.724  18.736  0.00  0.00    +0.000 NA
ATOM     10  C   UNL     1       2.154   2.874  19.216  0.00  0.00    +0.000 A 
ATOM     11  C   UNL     1       1.052   3.174  20.040  0.00  0.00    +0.000 A 
ATOM     12  C   UNL     1       0.827   4.440  20.400  0.00  0.00    +0.000 A 
ATOM     13  C   UNL     1       1.776   5.489  19.908  0.00  0.00    +0.000 A 
ATOM     14  N   UNL     1       2.814   5.242  19.162  0.00  0.00    +0.000 NA
ATOM     15  N   UNL     1       2.969   3.923  18.824  0.00  0.00    +0.000 N 
BRANCH  13  16
ATOM     16  C   UNL     1       1.484   6.853  20.309  0.00  0.00    +0.000 A 
ATOM     17  C   UNL     1       0.897   7.311  21.478  0.00  0.00    +0.000 A 
ATOM     18  C   UNL     1       0.816   8.730  21.534  0.00  0.00    +0.000 A 
ATOM     19  C   UNL     1       1.367   9.312  20.420  0.00  0.00    +0.000 A 
ATOM     20  S   UNL     1       1.905   8.156  19.281  0.00  0.00    +0.000 S 
ENDBRANCH  13  16
ENDBRANCH   5   7
BRANCH   1  22
ATOM     21  N   UNL     1       7.862   7.954  17.775  0.00  0.00    +0.000 N 
ATOM     22  C   UNL     1       7.793   6.653  18.232  0.00  0.00    +0.000 C 
ATOM     23  O   UNL     1       8.408   6.260  19.220  0.00  0.00    +0.000 OA
ATOM     24  H   UNL     1       7.145   8.317  17.153  0.00  0.00    +0.000 HD
BRANCH  21  25
ATOM     25  C   UNL     1       8.653   8.918  18.514  0.00  0.00    +0.000 C 
BRANCH  25  26
ATOM     26  C   UNL     1       8.650  10.329  17.898  0.00  0.00    +0.000 C 
BRANCH  26  27
ATOM     27  N   UNL     1       9.665  11.274  18.421  0.00  0.00    +0.000 NA
BRANCH  27  29
ATOM     28  C   UNL     1      10.784  13.136  17.085  0.00  0.00    +0.000 C 
ATOM     29  C   UNL     1       9.539  12.593  17.775  0.00  0.00    +0.000 C 
ENDBRANCH  27  29
BRANCH  27  30
ATOM     30  C   UNL     1       9.614  11.310  19.897  0.00  0.00    +0.000 C 
ATOM     31  C   UNL     1      10.765  12.004  20.621  0.00  0.00    +0.000 C 
ENDBRANCH  27  30
ENDBRANCH  26  27
ENDBRANCH  25  26
ENDBRANCH  21  25
ENDBRANCH   1  22
TORSDOF 8
ENDMDL
MODEL 3
REMARK VINA RESULT:      -7.4      5.794     10.986
REMARK  Name = 
REMARK  10 active torsions:
REMARK  status: ('A' for Active; 'I' for Inactive)
REMARK    1  A    between atoms: C_1  and  C_2
REMARK    2  A    between atoms: C_2  and  N_3
REMARK    3  A    between atoms: N_3  and  C_4
REMARK    4  A    between atoms: N_3  and  C_6
REMARK    5  A    between atoms: C_4  and  C_5
REMARK    6  A    between atoms: C_6  and  C_7
REMARK    7  A    between atoms: C_7  and  N_8
REMARK    8  A    between atoms: C_9  and  C_11
REMARK    9  A    between atoms: C_15  and  C_16
REMARK   10  A    between atoms: C_22  and  C_23
REMARK                            x       y       z     vdW  Elec       q    Type
REMARK                         _______ _______ _______ _____ _____    ______ ____
ROOT
ATOM      1  C   UNL     1      -1.150  11.160  22.080  0.00  0.00    +0.000 A 
ATOM      2  C   UNL     1      -0.873  10.380  23.211  0.00  0.00    +0.000 A 
ATOM      3  C   UNL     1       0.060   9.352  23.136  0.00  0.00    +0.000 A 
ATOM      4  C   UNL     1       0.731   9.107  21.939  0.00  0.00    +0.000 A 
ATOM      5  C   UNL     1       0.479   9.880  20.796  0.00  0.00    +0.000 A 
ATOM      6  C   UNL     1      -0.464  10.917  20.884  0.00  0.00    +0.000 A 
ENDROOT
BRANCH   5   7
ATOM      7  C   UNL     1       1.223   9.618  19.559  0.00  0.00    +0.000 A 
ATOM      8  C   UNL     1       1.489  10.454  18.485  0.00  0.00    +0.000 A 
ATOM      9  N   UNL     1       2.230   9.836  17.514  0.00  0.00    +0.000 NA
ATOM     10  C   UNL     1       2.433   8.622  17.971  0.00  0.00    +0.000 A 
ATOM     11  C   UNL     1       3.131   7.539  17.405  0.00  0.00    +0.000 A 
ATOM     12  C   UNL     1       3.198   6.381  18.069  0.00  0.00    +0.000 A 
ATOM     13  C   UNL     1       2.523   6.297  19.403  0.00  0.00    +0.000 A 
ATOM     14  N   UNL     1       1.887   7.285  19.962  0.00  0.00    +0.000 NA
ATOM     15  N   UNL     1       1.850   8.432  19.214  0.00  0.00    +0.000 N 
BRANCH  13  16
ATOM     16  C   UNL     1       2.607   5.016  20.081  0.00  0.00    +0.000 A 
ATOM     17  C   UNL     1       1.892   4.562  21.177  0.00  0.00    +0.000 A 
ATOM     18  C   UNL     1       2.220   3.224  21.533  0.00  0.00    +0.000 A 
ATOM     19  C   UNL     1       3.155   2.690  20.681  0.00  0.00    +0.000 A 
ATOM     20  S   UNL     1       3.691   3.818  19.513  0.00  0.00    +0.000 S 
ENDBRANCH  13  16
ENDBRANCH   5   7
BRANCH   1  22
ATOM     21  N   UNL     1      -2.733  12.743  21.073  0.00  0.00    +0.000 N 
ATOM     22  C   UNL     1      -2.118  12.279  22.218  0.00  0.00    +0.000 C 
ATOM     23  O   UNL     1      -2.348  12.741  23.332  0.00  0.00    +0.000 OA
ATOM     24  H   UNL     1      -2.746  12.172  20.232  0.00  0.00    +0.000 HD
BRANCH  21  25
ATOM     25  C   UNL     1      -3.729  13.789  21.184  0.00  0.00    +0.000 C 
BRANCH  25  26
ATOM     26  C   UNL     1      -4.973  13.561  20.306  0.00  0.00    +0.000 C 
BRANCH  26  27
ATOM     27  N   UNL     1      -5.472  12.167  20.227  0.00  0.00    +0.000 NA
BRANCH  27  29
ATOM     28  C   UNL     1      -7.588  10.801  20.628  0.00  0.00    +0.000 C 
ATOM     29  C   UNL     1      -6.737  12.018  20.969  0.00  0.00    +0.000 C 
ENDBRANCH  27  29
BRANCH  27  30
ATOM     30  C   UNL     1      -5.537  11.730  18.817  0.00  0.00    +0.000 C 
ATOM     31  C   UNL     1      -4.212  11.521  18.088  0.00  0.00    +0.000 C 
ENDBRANCH  27  30
ENDBRANCH  26  27
ENDBRANCH  25  26
ENDBRANCH  21  25
ENDBRANCH   1  22
TORSDOF 8
ENDMDL
MODEL 4
REMARK VINA RESULT:      -7.4      3.448      6.492
REMARK  Name = 
REMARK  10 active torsions:
REMARK  status: ('A' for Active; 'I' for Inactive)
REMARK    1  A    between atoms: C_1  and  C_2
REMARK    2  A    between atoms: C_2  and  N_3
REMARK    3  A    between atoms: N_3  and  C_4
REMARK    4  A    between atoms: N_3  and  C_6
REMARK    5  A    between atoms: C_4  and  C_5
REMARK    6  A    between atoms: C_6  and  C_7
REMARK    7  A    between atoms: C_7  and  N_8
REMARK    8  A    between atoms: C_9  and  C_11
REMARK    9  A    between atoms: C_15  and  C_16
REMARK   10  A    between atoms: C_22  and  C_23
REMARK                            x       y       z     vdW  Elec       q    Type
REMARK                         _______ _______ _______ _____ _____    ______ ____
ROOT
ATOM      1  C   UNL     1       6.932   6.085  17.463  0.00  0.00    +0.000 A 
ATOM      2  C   UNL     1       7.032   6.032  16.066  0.00  0.00    +0.000 A 
ATOM      3  C   UNL     1       6.170   5.221  15.337  0.00  0.00    +0.000 A 
ATOM      4  C   UNL     1       5.197   4.470  15.995  0.00  0.00    +0.000 A 
ATOM      5  C   UNL     1       5.071   4.514  17.392  0.00  0.00    +0.000 A 
ATOM      6  C   UNL     1       5.944   5.339  18.117  0.00  0.00    +0.000 A 
ENDROOT
BRANCH   5   7
ATOM      7  C   UNL     1       4.017   3.737  18.053  0.00  0.00    +0.000 A 
ATOM      8  C   UNL     1       3.780   2.370  18.047  0.00  0.00    +0.000 A 
ATOM      9  N   UNL     1       2.690   2.027  18.800  0.00  0.00    +0.000 NA
ATOM     10  C   UNL     1       2.242   3.165  19.278  0.00  0.00    +0.000 A 
ATOM     11  C   UNL     1       1.145   3.432  20.118  0.00  0.00    +0.000 A 
ATOM     12  C   UNL     1       0.881   4.693  20.472  0.00  0.00    +0.000 A 
ATOM     13  C   UNL     1       1.783   5.771  19.956  0.00  0.00    +0.000 A 
ATOM     14  N   UNL     1       2.816   5.555  19.194  0.00  0.00    +0.000 NA
ATOM     15  N   UNL     1       3.013   4.240  18.863  0.00  0.00    +0.000 N 
BRANCH  13  16
ATOM     16  C   UNL     1       1.450   7.126  20.352  0.00  0.00    +0.000 A 
ATOM     17  C   UNL     1       0.976   7.587  21.570  0.00  0.00    +0.000 A 
ATOM     18  C   UNL     1       0.807   9.000  21.596  0.00  0.00    +0.000 A 
ATOM     19  C   UNL     1       1.180   9.575  20.407  0.00  0.00    +0.000 A 
ATOM     20  S   UNL     1       1.655   8.416  19.244  0.00  0.00    +0.000 S 
ENDBRANCH  13  16
ENDBRANCH   5   7
BRANCH   1  22
ATOM     21  N   UNL     1       7.920   8.312  17.765  0.00  0.00    +0.000 N 
ATOM     22  C   UNL     1       7.841   7.003  18.197  0.00  0.00    +0.000 C 
ATOM     23  O   UNL     1       8.476   6.579  19.159  0.00  0.00    +0.000 OA
ATOM     24  H   UNL     1       7.193   8.699  17.171  0.00  0.00    +0.000 HD
BRANCH  21  25
ATOM     25  C   UNL     1       8.750   9.246  18.500  0.00  0.00    +0.000 C 
BRANCH  25  26
ATOM     26  C   UNL     1       8.647  10.697  17.998  0.00  0.00    +0.000 C 
BRANCH  26  27
ATOM     27  N   UNL     1       9.131  11.747  18.926  0.00  0.00    +0.000 NA
BRANCH  27  29
ATOM     28  C   UNL     1       8.984  11.847  21.470  0.00  0.00    +0.000 C 
ATOM     29  C   UNL     1       9.528  11.165  20.221  0.00  0.00    +0.000 C 
ENDBRANCH  27  29
BRANCH  27  30
ATOM     30  C   UNL     1      10.182  12.556  18.273  0.00  0.00    +0.000 C 
ATOM     31  C   UNL     1      11.340  11.805  17.620  0.00  0.00    +0.000 C 
ENDBRANCH  27  30
ENDBRANCH  26  27
ENDBRANCH  25  26
ENDBRANCH  21  25
ENDBRANCH   1  22
TORSDOF 8
ENDMDL
MODEL 5
REMARK VINA RESULT:      -7.3      3.596      6.500
REMARK  Name = 
REMARK  10 active torsions:
REMARK  status: ('A' for Active; 'I' for Inactive)
REMARK    1  A    between atoms: C_1  and  C_2
REMARK    2  A    between atoms: C_2  and  N_3
REMARK    3  A    between atoms: N_3  and  C_4
REMARK    4  A    between atoms: N_3  and  C_6
REMARK    5  A    between atoms: C_4  and  C_5
REMARK    6  A    between atoms: C_6  and  C_7
REMARK    7  A    between atoms: C_7  and  N_8
REMARK    8  A    between atoms: C_9  and  C_11
REMARK    9  A    between atoms: C_15  and  C_16
REMARK   10  A    between atoms: C_22  and  C_23
REMARK                            x       y       z     vdW  Elec       q    Type
REMARK                         _______ _______ _______ _____ _____    ______ ____
ROOT
ATOM      1  C   UNL     1       6.947   5.961  17.522  0.00  0.00    +0.000 A 
ATOM      2  C   UNL     1       7.093   5.863  16.131  0.00  0.00    +0.000 A 
ATOM      3  C   UNL     1       6.268   5.015  15.402  0.00  0.00    +0.000 A 
ATOM      4  C   UNL     1       5.284   4.271  16.053  0.00  0.00    +0.000 A 
ATOM      5  C   UNL     1       5.112   4.359  17.443  0.00  0.00    +0.000 A 
ATOM      6  C   UNL     1       5.950   5.221  18.168  0.00  0.00    +0.000 A 
ENDROOT
BRANCH   5   7
ATOM      7  C   UNL     1       4.049   3.588  18.096  0.00  0.00    +0.000 A 
ATOM      8  C   UNL     1       3.808   2.222  18.093  0.00  0.00    +0.000 A 
ATOM      9  N   UNL     1       2.708   1.885  18.835  0.00  0.00    +0.000 NA
ATOM     10  C   UNL     1       2.260   3.026  19.304  0.00  0.00    +0.000 A 
ATOM     11  C   UNL     1       1.154   3.300  20.132  0.00  0.00    +0.000 A 
ATOM     12  C   UNL     1       0.891   4.563  20.479  0.00  0.00    +0.000 A 
ATOM     13  C   UNL     1       1.803   5.636  19.968  0.00  0.00    +0.000 A 
ATOM     14  N   UNL     1       2.843   5.414  19.218  0.00  0.00    +0.000 NA
ATOM     15  N   UNL     1       3.038   4.097  18.894  0.00  0.00    +0.000 N 
BRANCH  13  16
ATOM     16  C   UNL     1       1.470   6.994  20.356  0.00  0.00    +0.000 A 
ATOM     17  C   UNL     1       0.906   7.450  21.537  0.00  0.00    +0.000 A 
ATOM     18  C   UNL     1       0.769   8.866  21.571  0.00  0.00    +0.000 A 
ATOM     19  C   UNL     1       1.255   9.448  20.427  0.00  0.00    +0.000 A 
ATOM     20  S   UNL     1       1.800   8.293  19.290  0.00  0.00    +0.000 S 
ENDBRANCH  13  16
ENDBRANCH   5   7
BRANCH   1  22
ATOM     21  N   UNL     1       7.884   8.214  17.787  0.00  0.00    +0.000 N 
ATOM     22  C   UNL     1       7.819   6.916  18.253  0.00  0.00    +0.000 C 
ATOM     23  O   UNL     1       8.436   6.531  19.242  0.00  0.00    +0.000 OA
ATOM     24  H   UNL     1       7.165   8.570  17.164  0.00  0.00    +0.000 HD
BRANCH  21  25
ATOM     25  C   UNL     1       8.676   9.184  18.517  0.00  0.00    +0.000 C 
BRANCH  25  26
ATOM     26  C   UNL     1       8.943  10.483  17.736  0.00  0.00    +0.000 C 
BRANCH  26  27
ATOM     27  N   UNL     1       9.056  11.721  18.543  0.00  0.00    +0.000 NA
BRANCH  27  29
ATOM     28  C   UNL     1      11.568  11.647  18.108  0.00  0.00    +0.000 C 
ATOM     29  C   UNL     1      10.419  11.878  19.081  0.00  0.00    +0.000 C 
ENDBRANCH  27  29
BRANCH  27  30
ATOM     30  C   UNL     1       8.571  12.880  17.764  0.00  0.00    +0.000 C 
ATOM     31  C   UNL     1       9.062  14.263  18.188  0.00  0.00    +0.000 C 
ENDBRANCH  27  30
ENDBRANCH  26  27
ENDBRANCH  25  26
ENDBRANCH  21  25
ENDBRANCH   1  22
TORSDOF 8
ENDMDL
MODEL 6
REMARK VINA RESULT:      -7.3      3.947      7.294
REMARK  Name = 
REMARK  10 active torsions:
REMARK  status: ('A' for Active; 'I' for Inactive)
REMARK    1  A    between atoms: C_1  and  C_2
REMARK    2  A    between atoms: C_2  and  N_3
REMARK    3  A    between atoms: N_3  and  C_4
REMARK    4  A    between atoms: N_3  and  C_6
REMARK    5  A    between atoms: C_4  and  C_5
REMARK    6  A    between atoms: C_6  and  C_7
REMARK    7  A    between atoms: C_7  and  N_8
REMARK    8  A    between atoms: C_9  and  C_11
REMARK    9  A    between atoms: C_15  and  C_16
REMARK   10  A    between atoms: C_22  and  C_23
REMARK                            x       y       z     vdW  Elec       q    Type
REMARK                         _______ _______ _______ _____ _____    ______ ____
ROOT
ATOM      1  C   UNL     1       2.238   7.377  19.332  0.00  0.00    +0.000 A 
ATOM      2  C   UNL     1       2.241   7.986  18.069  0.00  0.00    +0.000 A 
ATOM      3  C   UNL     1       1.574   9.190  17.876  0.00  0.00    +0.000 A 
ATOM      4  C   UNL     1       0.912   9.799  18.941  0.00  0.00    +0.000 A 
ATOM      5  C   UNL     1       0.902   9.213  20.217  0.00  0.00    +0.000 A 
ATOM      6  C   UNL     1       1.583   7.999  20.401  0.00  0.00    +0.000 A 
ENDROOT
BRANCH   5   7
ATOM      7  C   UNL     1       0.224   9.893  21.326  0.00  0.00    +0.000 A 
ATOM      8  C   UNL     1      -0.307   9.375  22.498  0.00  0.00    +0.000 A 
ATOM      9  N   UNL     1      -0.857  10.343  23.293  0.00  0.00    +0.000 NA
ATOM     10  C   UNL     1      -0.674  11.462  22.632  0.00  0.00    +0.000 A 
ATOM     11  C   UNL     1      -1.031  12.784  22.960  0.00  0.00    +0.000 A 
ATOM     12  C   UNL     1      -0.737  13.773  22.112  0.00  0.00    +0.000 A 
ATOM     13  C   UNL     1      -0.027  13.421  20.842  0.00  0.00    +0.000 A 
ATOM     14  N   UNL     1       0.333  12.213  20.518  0.00  0.00    +0.000 NA
ATOM     15  N   UNL     1      -0.015  11.253  21.431  0.00  0.00    +0.000 N 
BRANCH  13  16
ATOM     16  C   UNL     1       0.257  14.524  19.942  0.00  0.00    +0.000 A 
ATOM     17  C   UNL     1      -0.542  15.607  19.612  0.00  0.00    +0.000 A 
ATOM     18  C   UNL     1       0.100  16.515  18.724  0.00  0.00    +0.000 A 
ATOM     19  C   UNL     1       1.378  16.110  18.426  0.00  0.00    +0.000 A 
ATOM     20  S   UNL     1       1.771  14.610  19.145  0.00  0.00    +0.000 S 
ENDBRANCH  13  16
ENDBRANCH   5   7
BRANCH   1  22
ATOM     21  N   UNL     1       4.087   5.903  18.675  0.00  0.00    +0.000 N 
ATOM     22  C   UNL     1       3.005   6.116  19.504  0.00  0.00    +0.000 C 
ATOM     23  O   UNL     1       2.665   5.319  20.374  0.00  0.00    +0.000 OA
ATOM     24  H   UNL     1       4.511   6.681  18.176  0.00  0.00    +0.000 HD
BRANCH  21  25
ATOM     25  C   UNL     1       4.893   4.713  18.862  0.00  0.00    +0.000 C 
BRANCH  25  26
ATOM     26  C   UNL     1       5.510   4.169  17.561  0.00  0.00    +0.000 C 
BRANCH  26  27
ATOM     27  N   UNL     1       6.885   4.624  17.247  0.00  0.00    +0.000 NA
BRANCH  27  29
ATOM     28  C   UNL     1       5.575   5.653  15.316  0.00  0.00    +0.000 C 
ATOM     29  C   UNL     1       6.920   5.360  15.971  0.00  0.00    +0.000 C 
ENDBRANCH  27  29
BRANCH  27  30
ATOM     30  C   UNL     1       7.448   5.366  18.394  0.00  0.00    +0.000 C 
ATOM     31  C   UNL     1       7.759   6.847  18.186  0.00  0.00    +0.000 C 
ENDBRANCH  27  30
ENDBRANCH  26  27
ENDBRANCH  25  26
ENDBRANCH  21  25
ENDBRANCH   1  22
TORSDOF 8
ENDMDL
MODEL 7
REMARK VINA RESULT:      -7.2      4.990      7.889
REMARK  Name = 
REMARK  10 active torsions:
REMARK  status: ('A' for Active; 'I' for Inactive)
REMARK    1  A    between atoms: C_1  and  C_2
REMARK    2  A    between atoms: C_2  and  N_3
REMARK    3  A    between atoms: N_3  and  C_4
REMARK    4  A    between atoms: N_3  and  C_6
REMARK    5  A    between atoms: C_4  and  C_5
REMARK    6  A    between atoms: C_6  and  C_7
REMARK    7  A    between atoms: C_7  and  N_8
REMARK    8  A    between atoms: C_9  and  C_11
REMARK    9  A    between atoms: C_15  and  C_16
REMARK   10  A    between atoms: C_22  and  C_23
REMARK                            x       y       z     vdW  Elec       q    Type
REMARK                         _______ _______ _______ _____ _____    ______ ____
ROOT
ATOM      1  C   UNL     1       2.159   7.370  19.554  0.00  0.00    +0.000 A 
ATOM      2  C   UNL     1       2.353   7.662  18.196  0.00  0.00    +0.000 A 
ATOM      3  C   UNL     1       1.899   8.866  17.672  0.00  0.00    +0.000 A 
ATOM      4  C   UNL     1       1.264   9.791  18.499  0.00  0.00    +0.000 A 
ATOM      5  C   UNL     1       1.066   9.526  19.863  0.00  0.00    +0.000 A 
ATOM      6  C   UNL     1       1.531   8.308  20.382  0.00  0.00    +0.000 A 
ENDROOT
BRANCH   5   7
ATOM      7  C   UNL     1       0.421  10.532  20.714  0.00  0.00    +0.000 A 
ATOM      8  C   UNL     1      -0.665  10.411  21.570  0.00  0.00    +0.000 A 
ATOM      9  N   UNL     1      -0.963  11.588  22.201  0.00  0.00    +0.000 NA
ATOM     10  C   UNL     1      -0.075  12.444  21.751  0.00  0.00    +0.000 A 
ATOM     11  C   UNL     1       0.110  13.807  22.048  0.00  0.00    +0.000 A 
ATOM     12  C   UNL     1       1.098  14.481  21.451  0.00  0.00    +0.000 A 
ATOM     13  C   UNL     1       1.973  13.738  20.490  0.00  0.00    +0.000 A 
ATOM     14  N   UNL     1       1.841  12.475  20.209  0.00  0.00    +0.000 NA
ATOM     15  N   UNL     1       0.798  11.857  20.849  0.00  0.00    +0.000 N 
BRANCH  13  16
ATOM     16  C   UNL     1       3.022  14.513  19.853  0.00  0.00    +0.000 A 
ATOM     17  C   UNL     1       4.104  15.158  20.431  0.00  0.00    +0.000 A 
ATOM     18  C   UNL     1       4.950  15.782  19.473  0.00  0.00    +0.000 A 
ATOM     19  C   UNL     1       4.502  15.574  18.192  0.00  0.00    +0.000 A 
ATOM     20  S   UNL     1       3.033  14.700  18.150  0.00  0.00    +0.000 S 
ENDBRANCH  13  16
ENDBRANCH   5   7
BRANCH   1  22
ATOM     21  N   UNL     1       1.906   5.359  20.938  0.00  0.00    +0.000 N 
ATOM     22  C   UNL     1       2.703   6.092  20.082  0.00  0.00    +0.000 C 
ATOM     23  O   UNL     1       3.823   5.726  19.736  0.00  0.00    +0.000 OA
ATOM     24  H   UNL     1       0.905   5.531  20.979  0.00  0.00    +0.000 HD
BRANCH  21  25
ATOM     25  C   UNL     1       2.383   4.078  21.419  0.00  0.00    +0.000 C 
BRANCH  25  26
ATOM     26  C   UNL     1       1.476   2.894  21.039  0.00  0.00    +0.000 C 
BRANCH  26  27
ATOM     27  N   UNL     1       1.741   2.260  19.726  0.00  0.00    +0.000 NA
BRANCH  27  29
ATOM     28  C   UNL     1       1.433   3.818  17.731  0.00  0.00    +0.000 C 
ATOM     29  C   UNL     1       0.839   2.794  18.690  0.00  0.00    +0.000 C 
ENDBRANCH  27  29
BRANCH  27  30
ATOM     30  C   UNL     1       3.178   2.360  19.395  0.00  0.00    +0.000 C 
ATOM     31  C   UNL     1       3.784   1.233  18.560  0.00  0.00    +0.000 C 
ENDBRANCH  27  30
ENDBRANCH  26  27
ENDBRANCH  25  26
ENDBRANCH  21  25
ENDBRANCH   1  22
TORSDOF 8
ENDMDL
MODEL 8
REMARK VINA RESULT:      -7.2      4.026      7.441
REMARK  Name = 
REMARK  10 active torsions:
REMARK  status: ('A' for Active; 'I' for Inactive)
REMARK    1  A    between atoms: C_1  and  C_2
REMARK    2  A    between atoms: C_2  and  N_3
REMARK    3  A    between atoms: N_3  and  C_4
REMARK    4  A    between atoms: N_3  and  C_6
REMARK    5  A    between atoms: C_4  and  C_5
REMARK    6  A    between atoms: C_6  and  C_7
REMARK    7  A    between atoms: C_7  and  N_8
REMARK    8  A    between atoms: C_9  and  C_11
REMARK    9  A    between atoms: C_15  and  C_16
REMARK   10  A    between atoms: C_22  and  C_23
REMARK                            x       y       z     vdW  Elec       q    Type
REMARK                         _______ _______ _______ _____ _____    ______ ____
ROOT
ATOM      1  C   UNL     1       2.252   7.738  19.027  0.00  0.00    +0.000 A 
ATOM      2  C   UNL     1       1.992   7.272  20.324  0.00  0.00    +0.000 A 
ATOM      3  C   UNL     1       1.157   7.995  21.168  0.00  0.00    +0.000 A 
ATOM      4  C   UNL     1       0.565   9.175  20.720  0.00  0.00    +0.000 A 
ATOM      5  C   UNL     1       0.803   9.657  19.423  0.00  0.00    +0.000 A 
ATOM      6  C   UNL     1       1.646   8.917  18.578  0.00  0.00    +0.000 A 
ENDROOT
BRANCH   5   7
ATOM      7  C   UNL     1       0.142  10.885  18.969  0.00  0.00    +0.000 A 
ATOM      8  C   UNL     1      -1.089  11.060  18.354  0.00  0.00    +0.000 A 
ATOM      9  N   UNL     1      -1.357  12.376  18.090  0.00  0.00    +0.000 NA
ATOM     10  C   UNL     1      -0.307  13.027  18.535  0.00  0.00    +0.000 A 
ATOM     11  C   UNL     1      -0.021  14.405  18.535  0.00  0.00    +0.000 A 
ATOM     12  C   UNL     1       1.135  14.836  19.049  0.00  0.00    +0.000 A 
ATOM     13  C   UNL     1       2.076  13.816  19.613  0.00  0.00    +0.000 A 
ATOM     14  N   UNL     1       1.833  12.538  19.645  0.00  0.00    +0.000 NA
ATOM     15  N   UNL     1       0.636  12.174  19.087  0.00  0.00    +0.000 N 
BRANCH  13  16
ATOM     16  C   UNL     1       3.326  14.327  20.145  0.00  0.00    +0.000 A 
ATOM     17  C   UNL     1       3.820  14.249  21.437  0.00  0.00    +0.000 A 
ATOM     18  C   UNL     1       5.111  14.830  21.569  0.00  0.00    +0.000 A 
ATOM     19  C   UNL     1       5.574  15.311  20.369  0.00  0.00    +0.000 A 
ATOM     20  S   UNL     1       4.429  15.133  19.112  0.00  0.00    +0.000 S 
ENDBRANCH  13  16
ENDBRANCH   5   7
BRANCH   1  22
ATOM     21  N   UNL     1       3.167   5.551  18.389  0.00  0.00    +0.000 N 
ATOM     22  C   UNL     1       3.112   6.909  18.143  0.00  0.00    +0.000 C 
ATOM     23  O   UNL     1       3.729   7.446  17.227  0.00  0.00    +0.000 OA
ATOM     24  H   UNL     1       2.447   5.103  18.949  0.00  0.00    +0.000 HD
BRANCH  21  25
ATOM     25  C   UNL     1       3.947   4.708  17.505  0.00  0.00    +0.000 C 
BRANCH  25  26
ATOM     26  C   UNL     1       5.402   4.504  17.963  0.00  0.00    +0.000 C 
BRANCH  26  27
ATOM     27  N   UNL     1       6.430   4.491  16.896  0.00  0.00    +0.000 NA
BRANCH  27  29
ATOM     28  C   UNL     1       6.514   4.296  14.354  0.00  0.00    +0.000 C 
ATOM     29  C   UNL     1       5.919   3.835  15.679  0.00  0.00    +0.000 C 
ENDBRANCH  27  29
BRANCH  27  30
ATOM     30  C   UNL     1       6.953   5.856  16.679  0.00  0.00    +0.000 C 
ATOM     31  C   UNL     1       7.444   6.621  17.906  0.00  0.00    +0.000 C 
ENDBRANCH  27  30
ENDBRANCH  26  27
ENDBRANCH  25  26
ENDBRANCH  21  25
ENDBRANCH   1  22
TORSDOF 8
ENDMDL
MODEL 9
REMARK VINA RESULT:      -7.1      4.226     10.251
REMARK  Name = 
REMARK  10 active torsions:
REMARK  status: ('A' for Active; 'I' for Inactive)
REMARK    1  A    between atoms: C_1  and  C_2
REMARK    2  A    between atoms: C_2  and  N_3
REMARK    3  A    between atoms: N_3  and  C_4
REMARK    4  A    between atoms: N_3  and  C_6
REMARK    5  A    between atoms: C_4  and  C_5
REMARK    6  A    between atoms: C_6  and  C_7
REMARK    7  A    between atoms: C_7  and  N_8
REMARK    8  A    between atoms: C_9  and  C_11
REMARK    9  A    between atoms: C_15  and  C_16
REMARK   10  A    between atoms: C_22  and  C_23
REMARK                            x       y       z     vdW  Elec       q    Type
REMARK                         _______ _______ _______ _____ _____    ______ ____
ROOT
ATOM      1  C   UNL     1       1.129   9.393  20.247  0.00  0.00    +0.000 A 
ATOM      2  C   UNL     1       1.401   9.821  18.940  0.00  0.00    +0.000 A 
ATOM      3  C   UNL     1       1.972   8.945  18.025  0.00  0.00    +0.000 A 
ATOM      4  C   UNL     1       2.261   7.634  18.403  0.00  0.00    +0.000 A 
ATOM      5  C   UNL     1       1.989   7.179  19.702  0.00  0.00    +0.000 A 
ATOM      6  C   UNL     1       1.410   8.072  20.617  0.00  0.00    +0.000 A 
ENDROOT
BRANCH   5   7
ATOM      7  C   UNL     1       2.276   5.786  20.061  0.00  0.00    +0.000 A 
ATOM      8  C   UNL     1       1.793   5.018  21.111  0.00  0.00    +0.000 A 
ATOM      9  N   UNL     1       2.298   3.746  21.102  0.00  0.00    +0.000 NA
ATOM     10  C   UNL     1       3.091   3.709  20.056  0.00  0.00    +0.000 A 
ATOM     11  C   UNL     1       3.879   2.660  19.546  0.00  0.00    +0.000 A 
ATOM     12  C   UNL     1       4.618   2.866  18.452  0.00  0.00    +0.000 A 
ATOM     13  C   UNL     1       4.562   4.218  17.812  0.00  0.00    +0.000 A 
ATOM     14  N   UNL     1       3.830   5.202  18.247  0.00  0.00    +0.000 NA
ATOM     15  N   UNL     1       3.113   4.918  19.379  0.00  0.00    +0.000 N 
BRANCH  13  16
ATOM     16  C   UNL     1       5.393   4.402  16.636  0.00  0.00    +0.000 A 
ATOM     17  C   UNL     1       5.029   4.380  15.299  0.00  0.00    +0.000 A 
ATOM     18  C   UNL     1       6.120   4.648  14.427  0.00  0.00    +0.000 A 
ATOM     19  C   UNL     1       7.277   4.891  15.125  0.00  0.00    +0.000 A 
ATOM     20  S   UNL     1       7.067   4.720  16.813  0.00  0.00    +0.000 S 
ENDBRANCH  13  16
ENDBRANCH   5   7
BRANCH   1  22
ATOM     21  N   UNL     1      -0.406  11.267  20.640  0.00  0.00    +0.000 N 
ATOM     22  C   UNL     1       0.474  10.349  21.177  0.00  0.00    +0.000 C 
ATOM     23  O   UNL     1       0.722  10.286  22.378  0.00  0.00    +0.000 OA
ATOM     24  H   UNL     1      -0.804  11.117  19.718  0.00  0.00    +0.000 HD
BRANCH  21  25
ATOM     25  C   UNL     1      -1.109  12.170  21.530  0.00  0.00    +0.000 C 
BRANCH  25  26
ATOM     26  C   UNL     1      -2.567  12.442  21.117  0.00  0.00    +0.000 C 
BRANCH  26  27
ATOM     27  N   UNL     1      -3.599  12.185  22.149  0.00  0.00    +0.000 NA
BRANCH  27  29
ATOM     28  C   UNL     1      -4.139  12.658  24.597  0.00  0.00    +0.000 C 
ATOM     29  C   UNL     1      -3.097  12.526  23.493  0.00  0.00    +0.000 C 
ENDBRANCH  27  29
BRANCH  27  30
ATOM     30  C   UNL     1      -4.863  12.857  21.782  0.00  0.00    +0.000 C 
ATOM     31  C   UNL     1      -5.114  13.111  20.297  0.00  0.00    +0.000 C 
ENDBRANCH  27  30
ENDBRANCH  26  27
ENDBRANCH  25  26
ENDBRANCH  21  25
ENDBRANCH   1  22
TORSDOF 8
ENDMDL
