MODEL 1
REMARK VINA RESULT:      -7.4      0.000      0.000
REMARK  Name = 
REMARK  4 active torsions:
REMARK  status: ('A' for Active; 'I' for Inactive)
REMARK    1  A    between atoms: C_1  and  C_2
REMARK    2  A    between atoms: C_2  and  C_3
REMARK    3  A    between atoms: C_2  and  C_4
REMARK    4  A    between atoms: C_2  and  N_5
REMARK                            x       y       z     vdW  Elec       q    Type
REMARK                         _______ _______ _______ _____ _____    ______ ____
ROOT
ATOM      1  N   UNL     1       3.848   3.279  19.175  0.00  0.00    +0.000 N 
ATOM      2  C   UNL     1       4.818   4.168  18.900  0.00  0.00    +0.000 C 
ATOM      3  O   UNL     1       5.534   4.272  19.899  0.00  0.00    +0.000 OA
ATOM      4  N   UNL     1       5.172   4.546  17.629  0.00  0.00    +0.000 N 
ATOM      5  C   UNL     1       6.586   4.684  17.601  0.00  0.00    +0.000 C 
ATOM      6  C   UNL     1       6.854   4.466  16.101  0.00  0.00    +0.000 C 
ATOM      7  C   UNL     1       5.676   5.110  15.360  0.00  0.00    +0.000 C 
ATOM      8  C   UNL     1       4.767   5.558  16.532  0.00  0.00    +0.000 C 
ATOM      9  C   UNL     1       5.261   7.103  16.725  0.00  0.00    +0.000 C 
ATOM     10  C   UNL     1       6.579   7.210  17.476  0.00  0.00    +0.000 C 
ATOM     11  C   UNL     1       7.575   8.065  17.611  0.00  0.00    +0.000 C 
ATOM     12  C   UNL     1       8.542   8.253  18.665  0.00  0.00    +0.000 C 
ATOM     13  C   UNL     1       8.399   9.181  17.452  0.00  0.00    +0.000 C 
ATOM     14  C   UNL     1       6.755   6.031  18.352  0.00  0.00    +0.000 C 
ATOM     15  H   UNL     1       3.974   3.009  20.137  0.00  0.00    +0.000 HD
ENDROOT
BRANCH   1  17
ATOM     16  C   UNL     1       2.794   2.066  17.339  0.00  0.00    +0.000 C 
ATOM     17  C   UNL     1       2.591   2.931  18.583  0.00  0.00    +0.000 C 
ATOM     18  C   UNL     1       1.855   4.227  18.311  0.00  0.00    +0.000 C 
ATOM     19  C   UNL     1       1.832   2.110  19.645  0.00  0.00    +0.000 C 
ENDBRANCH   1  17
TORSDOF 1
ENDMDL
MODEL 2
REMARK VINA RESULT:      -7.3      0.069      1.012
REMARK  Name = 
REMARK  4 active torsions:
REMARK  status: ('A' for Active; 'I' for Inactive)
REMARK    1  A    between atoms: C_1  and  C_2
REMARK    2  A    between atoms: C_2  and  C_3
REMARK    3  A    between atoms: C_2  and  C_4
REMARK    4  A    between atoms: C_2  and  N_5
REMARK                            x       y       z     vdW  Elec       q    Type
REMARK                         _______ _______ _______ _____ _____    ______ ____
ROOT
ATOM      1  N   UNL     1       3.817   3.280  19.232  0.00  0.00    +0.000 N 
ATOM      2  C   UNL     1       4.790   4.163  18.945  0.00  0.00    +0.000 C 
ATOM      3  O   UNL     1       5.518   4.263  19.936  0.00  0.00    +0.000 OA
ATOM      4  N   UNL     1       5.131   4.538  17.670  0.00  0.00    +0.000 N 
ATOM      5  C   UNL     1       6.546   4.667  17.626  0.00  0.00    +0.000 C 
ATOM      6  C   UNL     1       6.795   4.446  16.122  0.00  0.00    +0.000 C 
ATOM      7  C   UNL     1       5.612   5.098  15.395  0.00  0.00    +0.000 C 
ATOM      8  C   UNL     1       4.720   5.552  16.578  0.00  0.00    +0.000 C 
ATOM      9  C   UNL     1       5.226   7.094  16.764  0.00  0.00    +0.000 C 
ATOM     10  C   UNL     1       6.554   7.193  17.499  0.00  0.00    +0.000 C 
ATOM     11  C   UNL     1       7.556   8.041  17.623  0.00  0.00    +0.000 C 
ATOM     12  C   UNL     1       8.537   8.223  18.665  0.00  0.00    +0.000 C 
ATOM     13  C   UNL     1       8.386   9.152  17.453  0.00  0.00    +0.000 C 
ATOM     14  C   UNL     1       6.732   6.013  18.374  0.00  0.00    +0.000 C 
ATOM     15  H   UNL     1       3.953   3.009  20.192  0.00  0.00    +0.000 HD
ENDROOT
BRANCH   1  17
ATOM     16  C   UNL     1       1.814   4.191  18.179  0.00  0.00    +0.000 C 
ATOM     17  C   UNL     1       2.551   2.940  18.655  0.00  0.00    +0.000 C 
ATOM     18  C   UNL     1       1.790   2.143  19.696  0.00  0.00    +0.000 C 
ATOM     19  C   UNL     1       2.863   2.047  17.437  0.00  0.00    +0.000 C 
ENDBRANCH   1  17
TORSDOF 1
ENDMDL
MODEL 3
REMARK VINA RESULT:      -7.3      0.090      1.035
REMARK  Name = 
REMARK  4 active torsions:
REMARK  status: ('A' for Active; 'I' for Inactive)
REMARK    1  A    between atoms: C_1  and  C_2
REMARK    2  A    between atoms: C_2  and  C_3
REMARK    3  A    between atoms: C_2  and  C_4
REMARK    4  A    between atoms: C_2  and  N_5
REMARK                            x       y       z     vdW  Elec       q    Type
REMARK                         _______ _______ _______ _____ _____    ______ ____
ROOT
ATOM      1  N   UNL     1       3.837   3.224  19.256  0.00  0.00    +0.000 N 
ATOM      2  C   UNL     1       4.803   4.113  18.963  0.00  0.00    +0.000 C 
ATOM      3  O   UNL     1       5.535   4.220  19.950  0.00  0.00    +0.000 OA
ATOM      4  N   UNL     1       5.135   4.487  17.685  0.00  0.00    +0.000 N 
ATOM      5  C   UNL     1       6.549   4.625  17.634  0.00  0.00    +0.000 C 
ATOM      6  C   UNL     1       6.792   4.403  16.130  0.00  0.00    +0.000 C 
ATOM      7  C   UNL     1       5.602   5.044  15.407  0.00  0.00    +0.000 C 
ATOM      8  C   UNL     1       4.713   5.496  16.593  0.00  0.00    +0.000 C 
ATOM      9  C   UNL     1       5.209   7.042  16.773  0.00  0.00    +0.000 C 
ATOM     10  C   UNL     1       6.540   7.151  17.501  0.00  0.00    +0.000 C 
ATOM     11  C   UNL     1       7.537   8.006  17.618  0.00  0.00    +0.000 C 
ATOM     12  C   UNL     1       8.522   8.198  18.655  0.00  0.00    +0.000 C 
ATOM     13  C   UNL     1       8.358   9.122  17.442  0.00  0.00    +0.000 C 
ATOM     14  C   UNL     1       6.730   5.974  18.378  0.00  0.00    +0.000 C 
ATOM     15  H   UNL     1       3.980   2.957  20.217  0.00  0.00    +0.000 HD
ENDROOT
BRANCH   1  17
ATOM     16  C   UNL     1       1.710   2.114  19.695  0.00  0.00    +0.000 C 
ATOM     17  C   UNL     1       2.571   2.874  18.686  0.00  0.00    +0.000 C 
ATOM     18  C   UNL     1       2.856   2.094  17.419  0.00  0.00    +0.000 C 
ATOM     19  C   UNL     1       1.877   4.206  18.338  0.00  0.00    +0.000 C 
ENDBRANCH   1  17
TORSDOF 1
ENDMDL
MODEL 4
REMARK VINA RESULT:      -6.6      6.299     10.344
REMARK  Name = 
REMARK  4 active torsions:
REMARK  status: ('A' for Active; 'I' for Inactive)
REMARK    1  A    between atoms: C_1  and  C_2
REMARK    2  A    between atoms: C_2  and  C_3
REMARK    3  A    between atoms: C_2  and  C_4
REMARK    4  A    between atoms: C_2  and  N_5
REMARK                            x       y       z     vdW  Elec       q    Type
REMARK                         _______ _______ _______ _____ _____    ______ ____
ROOT
ATOM      1  N   UNL     1       9.197  15.338  18.959  0.00  0.00    +0.000 N 
ATOM      2  C   UNL     1       9.116  14.029  18.664  0.00  0.00    +0.000 C 
ATOM      3  O   UNL     1       8.259  13.888  17.787  0.00  0.00    +0.000 OA
ATOM      4  N   UNL     1      10.089  13.113  18.976  0.00  0.00    +0.000 N 
ATOM      5  C   UNL     1      10.186  12.204  17.887  0.00  0.00    +0.000 C 
ATOM      6  C   UNL     1      11.632  11.708  18.072  0.00  0.00    +0.000 C 
ATOM      7  C   UNL     1      11.866  11.633  19.586  0.00  0.00    +0.000 C 
ATOM      8  C   UNL     1      10.538  12.205  20.143  0.00  0.00    +0.000 C 
ATOM      9  C   UNL     1       9.693  10.828  20.385  0.00  0.00    +0.000 C 
ATOM     10  C   UNL     1       9.112  10.261  19.098  0.00  0.00    +0.000 C 
ATOM     11  C   UNL     1       8.689   9.104  18.629  0.00  0.00    +0.000 C 
ATOM     12  C   UNL     1       7.771   8.776  17.566  0.00  0.00    +0.000 C 
ATOM     13  C   UNL     1       8.386   7.744  18.519  0.00  0.00    +0.000 C 
ATOM     14  C   UNL     1       8.912  11.349  18.116  0.00  0.00    +0.000 C 
ATOM     15  H   UNL     1       8.491  15.798  18.406  0.00  0.00    +0.000 HD
ENDROOT
BRANCH   1  17
ATOM     16  C   UNL     1      11.284  16.097  19.968  0.00  0.00    +0.000 C 
ATOM     17  C   UNL     1       9.757  16.106  20.030  0.00  0.00    +0.000 C 
ATOM     18  C   UNL     1       9.196  15.543  21.320  0.00  0.00    +0.000 C 
ATOM     19  C   UNL     1       9.256  17.550  19.827  0.00  0.00    +0.000 C 
ENDBRANCH   1  17
TORSDOF 1
ENDMDL
MODEL 5
REMARK VINA RESULT:      -6.6      2.056      3.739
REMARK  Name = 
REMARK  4 active torsions:
REMARK  status: ('A' for Active; 'I' for Inactive)
REMARK    1  A    between atoms: C_1  and  C_2
REMARK    2  A    between atoms: C_2  and  C_3
REMARK    3  A    between atoms: C_2  and  C_4
REMARK    4  A    between atoms: C_2  and  N_5
REMARK                            x       y       z     vdW  Elec       q    Type
REMARK                         _______ _______ _______ _____ _____    ______ ____
ROOT
ATOM      1  N   UNL     1       2.274   3.280  19.143  0.00  0.00    +0.000 N 
ATOM      2  C   UNL     1       3.013   3.615  18.070  0.00  0.00    +0.000 C 
ATOM      3  O   UNL     1       2.441   3.185  17.065  0.00  0.00    +0.000 OA
ATOM      4  N   UNL     1       3.972   4.596  18.078  0.00  0.00    +0.000 N 
ATOM      5  C   UNL     1       3.892   5.282  16.836  0.00  0.00    +0.000 C 
ATOM      6  C   UNL     1       4.502   6.639  17.232  0.00  0.00    +0.000 C 
ATOM      7  C   UNL     1       5.613   6.328  18.242  0.00  0.00    +0.000 C 
ATOM      8  C   UNL     1       5.467   4.795  18.415  0.00  0.00    +0.000 C 
ATOM      9  C   UNL     1       6.557   4.262  17.320  0.00  0.00    +0.000 C 
ATOM     10  C   UNL     1       6.035   4.326  15.893  0.00  0.00    +0.000 C 
ATOM     11  C   UNL     1       6.515   4.379  14.666  0.00  0.00    +0.000 C 
ATOM     12  C   UNL     1       5.946   4.002  13.395  0.00  0.00    +0.000 C 
ATOM     13  C   UNL     1       7.398   4.457  13.586  0.00  0.00    +0.000 C 
ATOM     14  C   UNL     1       4.558   4.245  15.894  0.00  0.00    +0.000 C 
ATOM     15  H   UNL     1       1.503   2.733  18.797  0.00  0.00    +0.000 HD
ENDROOT
BRANCH   1  17
ATOM     16  C   UNL     1       2.542   4.633  21.155  0.00  0.00    +0.000 C 
ATOM     17  C   UNL     1       2.500   3.228  20.556  0.00  0.00    +0.000 C 
ATOM     18  C   UNL     1       3.774   2.435  20.771  0.00  0.00    +0.000 C 
ATOM     19  C   UNL     1       1.301   2.464  21.152  0.00  0.00    +0.000 C 
ENDBRANCH   1  17
TORSDOF 1
ENDMDL
MODEL 6
REMARK VINA RESULT:      -6.6      6.433     10.514
REMARK  Name = 
REMARK  4 active torsions:
REMARK  status: ('A' for Active; 'I' for Inactive)
REMARK    1  A    between atoms: C_1  and  C_2
REMARK    2  A    between atoms: C_2  and  C_3
REMARK    3  A    between atoms: C_2  and  C_4
REMARK    4  A    between atoms: C_2  and  N_5
REMARK                            x       y       z     vdW  Elec       q    Type
REMARK                         _______ _______ _______ _____ _____    ______ ____
ROOT
ATOM      1  N   UNL     1       9.427  15.488  19.088  0.00  0.00    +0.000 N 
ATOM      2  C   UNL     1       9.297  14.190  18.763  0.00  0.00    +0.000 C 
ATOM      3  O   UNL     1       8.409  14.097  17.910  0.00  0.00    +0.000 OA
ATOM      4  N   UNL     1      10.251  13.238  19.020  0.00  0.00    +0.000 N 
ATOM      5  C   UNL     1      10.286  12.355  17.907  0.00  0.00    +0.000 C 
ATOM      6  C   UNL     1      11.721  11.811  18.033  0.00  0.00    +0.000 C 
ATOM      7  C   UNL     1      11.999  11.690  19.537  0.00  0.00    +0.000 C 
ATOM      8  C   UNL     1      10.707  12.286  20.150  0.00  0.00    +0.000 C 
ATOM      9  C   UNL     1       9.828  10.929  20.383  0.00  0.00    +0.000 C 
ATOM     10  C   UNL     1       9.191  10.414  19.102  0.00  0.00    +0.000 C 
ATOM     11  C   UNL     1       8.718   9.282  18.617  0.00  0.00    +0.000 C 
ATOM     12  C   UNL     1       7.758   9.009  17.576  0.00  0.00    +0.000 C 
ATOM     13  C   UNL     1       8.371   7.936  18.484  0.00  0.00    +0.000 C 
ATOM     14  C   UNL     1       8.994  11.533  18.154  0.00  0.00    +0.000 C 
ATOM     15  H   UNL     1       8.719  15.983  18.570  0.00  0.00    +0.000 HD
ENDROOT
BRANCH   1  17
ATOM     16  C   UNL     1       9.712  15.574  21.508  0.00  0.00    +0.000 C 
ATOM     17  C   UNL     1      10.043  16.211  20.160  0.00  0.00    +0.000 C 
ATOM     18  C   UNL     1       9.592  17.652  20.039  0.00  0.00    +0.000 C 
ATOM     19  C   UNL     1      11.563  16.116  19.920  0.00  0.00    +0.000 C 
ENDBRANCH   1  17
TORSDOF 1
ENDMDL
MODEL 7
REMARK VINA RESULT:      -6.5      2.018      3.686
REMARK  Name = 
REMARK  4 active torsions:
REMARK  status: ('A' for Active; 'I' for Inactive)
REMARK    1  A    between atoms: C_1  and  C_2
REMARK    2  A    between atoms: C_2  and  C_3
REMARK    3  A    between atoms: C_2  and  C_4
REMARK    4  A    between atoms: C_2  and  N_5
REMARK                            x       y       z     vdW  Elec       q    Type
REMARK                         _______ _______ _______ _____ _____    ______ ____
ROOT
ATOM      1  N   UNL     1       2.349   3.288  18.985  0.00  0.00    +0.000 N 
ATOM      2  C   UNL     1       3.101   3.634  17.925  0.00  0.00    +0.000 C 
ATOM      3  O   UNL     1       2.529   3.236  16.907  0.00  0.00    +0.000 OA
ATOM      4  N   UNL     1       4.076   4.598  17.961  0.00  0.00    +0.000 N 
ATOM      5  C   UNL     1       4.017   5.313  16.734  0.00  0.00    +0.000 C 
ATOM      6  C   UNL     1       4.646   6.650  17.165  0.00  0.00    +0.000 C 
ATOM      7  C   UNL     1       5.745   6.298  18.175  0.00  0.00    +0.000 C 
ATOM      8  C   UNL     1       5.573   4.764  18.313  0.00  0.00    +0.000 C 
ATOM      9  C   UNL     1       6.660   4.237  17.214  0.00  0.00    +0.000 C 
ATOM     10  C   UNL     1       6.150   4.342  15.785  0.00  0.00    +0.000 C 
ATOM     11  C   UNL     1       6.639   4.413  14.562  0.00  0.00    +0.000 C 
ATOM     12  C   UNL     1       6.072   4.075  13.279  0.00  0.00    +0.000 C 
ATOM     13  C   UNL     1       7.531   4.501  13.490  0.00  0.00    +0.000 C 
ATOM     14  C   UNL     1       4.672   4.286  15.774  0.00  0.00    +0.000 C 
ATOM     15  H   UNL     1       1.571   2.761  18.623  0.00  0.00    +0.000 HD
ENDROOT
BRANCH   1  17
ATOM     16  C   UNL     1       3.893   2.511  20.706  0.00  0.00    +0.000 C 
ATOM     17  C   UNL     1       2.565   3.200  20.399  0.00  0.00    +0.000 C 
ATOM     18  C   UNL     1       1.360   2.493  20.987  0.00  0.00    +0.000 C 
ATOM     19  C   UNL     1       2.622   4.653  20.913  0.00  0.00    +0.000 C 
ENDBRANCH   1  17
TORSDOF 1
ENDMDL
MODEL 8
REMARK VINA RESULT:      -6.5      6.467     10.536
REMARK  Name = 
REMARK  4 active torsions:
REMARK  status: ('A' for Active; 'I' for Inactive)
REMARK    1  A    between atoms: C_1  and  C_2
REMARK    2  A    between atoms: C_2  and  C_3
REMARK    3  A    between atoms: C_2  and  C_4
REMARK    4  A    between atoms: C_2  and  N_5
REMARK                            x       y       z     vdW  Elec       q    Type
REMARK                         _______ _______ _______ _____ _____    ______ ____
ROOT
ATOM      1  N   UNL     1       9.569  15.481  19.220  0.00  0.00    +0.000 N 
ATOM      2  C   UNL     1       9.413  14.193  18.867  0.00  0.00    +0.000 C 
ATOM      3  O   UNL     1       8.545  14.140  17.992  0.00  0.00    +0.000 OA
ATOM      4  N   UNL     1      10.336  13.211  19.129  0.00  0.00    +0.000 N 
ATOM      5  C   UNL     1      10.375  12.349  18.000  0.00  0.00    +0.000 C 
ATOM      6  C   UNL     1      11.792  11.765  18.150  0.00  0.00    +0.000 C 
ATOM      7  C   UNL     1      12.030  11.608  19.656  0.00  0.00    +0.000 C 
ATOM      8  C   UNL     1      10.740  12.227  20.251  0.00  0.00    +0.000 C 
ATOM      9  C   UNL     1       9.820  10.890  20.437  0.00  0.00    +0.000 C 
ATOM     10  C   UNL     1       9.201  10.416  19.131  0.00  0.00    +0.000 C 
ATOM     11  C   UNL     1       8.711   9.306  18.614  0.00  0.00    +0.000 C 
ATOM     12  C   UNL     1       7.769   9.078  17.545  0.00  0.00    +0.000 C 
ATOM     13  C   UNL     1       8.332   7.972  18.446  0.00  0.00    +0.000 C 
ATOM     14  C   UNL     1       9.056  11.557  18.201  0.00  0.00    +0.000 C 
ATOM     15  H   UNL     1       8.887  16.004  18.695  0.00  0.00    +0.000 HD
ENDROOT
BRANCH   1  17
ATOM     16  C   UNL     1       9.815  17.651  20.306  0.00  0.00    +0.000 C 
ATOM     17  C   UNL     1      10.178  16.167  20.320  0.00  0.00    +0.000 C 
ATOM     18  C   UNL     1      11.668  15.903  20.236  0.00  0.00    +0.000 C 
ATOM     19  C   UNL     1       9.602  15.522  21.596  0.00  0.00    +0.000 C 
ENDBRANCH   1  17
TORSDOF 1
ENDMDL
MODEL 9
REMARK VINA RESULT:      -6.5      2.047      3.707
REMARK  Name = 
REMARK  4 active torsions:
REMARK  status: ('A' for Active; 'I' for Inactive)
REMARK    1  A    between atoms: C_1  and  C_2
REMARK    2  A    between atoms: C_2  and  C_3
REMARK    3  A    between atoms: C_2  and  C_4
REMARK    4  A    between atoms: C_2  and  N_5
REMARK                            x       y       z     vdW  Elec       q    Type
REMARK                         _______ _______ _______ _____ _____    ______ ____
ROOT
ATOM      1  N   UNL     1       2.258   3.341  19.079  0.00  0.00    +0.000 N 
ATOM      2  C   UNL     1       3.009   3.654  18.008  0.00  0.00    +0.000 C 
ATOM      3  O   UNL     1       2.433   3.231  17.002  0.00  0.00    +0.000 OA
ATOM      4  N   UNL     1       3.989   4.614  18.015  0.00  0.00    +0.000 N 
ATOM      5  C   UNL     1       3.931   5.295  16.769  0.00  0.00    +0.000 C 
ATOM      6  C   UNL     1       4.567   6.641  17.161  0.00  0.00    +0.000 C 
ATOM      7  C   UNL     1       5.666   6.311  18.178  0.00  0.00    +0.000 C 
ATOM      8  C   UNL     1       5.487   4.783  18.359  0.00  0.00    +0.000 C 
ATOM      9  C   UNL     1       6.570   4.220  17.272  0.00  0.00    +0.000 C 
ATOM     10  C   UNL     1       6.057   4.288  15.842  0.00  0.00    +0.000 C 
ATOM     11  C   UNL     1       6.544   4.323  14.617  0.00  0.00    +0.000 C 
ATOM     12  C   UNL     1       5.973   3.952  13.345  0.00  0.00    +0.000 C 
ATOM     13  C   UNL     1       7.434   4.377  13.541  0.00  0.00    +0.000 C 
ATOM     14  C   UNL     1       4.579   4.239  15.836  0.00  0.00    +0.000 C 
ATOM     15  H   UNL     1       1.477   2.809  18.732  0.00  0.00    +0.000 HD
ENDROOT
BRANCH   1  17
ATOM     16  C   UNL     1       1.359   2.517  21.191  0.00  0.00    +0.000 C 
ATOM     17  C   UNL     1       2.476   3.292  20.493  0.00  0.00    +0.000 C 
ATOM     18  C   UNL     1       2.615   4.723  20.970  0.00  0.00    +0.000 C 
ATOM     19  C   UNL     1       3.808   2.541  20.693  0.00  0.00    +0.000 C 
ENDBRANCH   1  17
TORSDOF 1
ENDMDL
