MODEL 1
REMARK VINA RESULT:      -6.3      0.000      0.000
REMARK  Name = 
REMARK  3 active torsions:
REMARK  status: ('A' for Active; 'I' for Inactive)
REMARK    1  A    between atoms: C_1  and  O_2
REMARK    2  A    between atoms: O_2  and  C_3
REMARK    3  A    between atoms: C_6  and  N_7
REMARK                            x       y       z     vdW  Elec       q    Type
REMARK                         _______ _______ _______ _____ _____    ______ ____
ROOT
ATOM      1  N   UNL     1      -4.979  11.561  19.137  0.00  0.00    +0.000 N 
ATOM      2  C   UNL     1      -6.292  11.218  19.426  0.00  0.00    +0.000 A 
ATOM      3  O   UNL     1      -7.079  10.593  18.727  0.00  0.00    +0.000 OA
ATOM      4  C   UNL     1      -6.781  11.612  20.796  0.00  0.00    +0.000 A 
ATOM      5  N   UNL     1      -6.089  12.282  21.659  0.00  0.00    +0.000 NA
ATOM      6  C   UNL     1      -4.795  12.669  21.264  0.00  0.00    +0.000 A 
ATOM      7  C   UNL     1      -4.001  13.434  22.085  0.00  0.00    +0.000 A 
ATOM      8  N   UNL     1      -2.759  13.856  21.766  0.00  0.00    +0.000 NA
ATOM      9  C   UNL     1      -2.279  13.523  20.560  0.00  0.00    +0.000 A 
ATOM     10  N   UNL     1      -1.041  13.965  20.191  0.00  0.00    +0.000 N 
ATOM     11  C   UNL     1      -0.490  13.719  18.859  0.00  0.00    +0.000 C 
ATOM     12  C   UNL     1       0.849  12.976  18.985  0.00  0.00    +0.000 C 
ATOM     13  O   UNL     1       1.759  13.666  19.860  0.00  0.00    +0.000 OA
ATOM     14  C   UNL     1       1.190  13.796  21.175  0.00  0.00    +0.000 C 
ATOM     15  C   UNL     1      -0.130  14.586  21.146  0.00  0.00    +0.000 C 
ATOM     16  N   UNL     1      -2.975  12.768  19.704  0.00  0.00    +0.000 NA
ATOM     17  C   UNL     1      -4.209  12.335  20.055  0.00  0.00    +0.000 A 
ENDROOT
BRANCH   1  21
ATOM     18  C   UNL     1      -3.131  10.326  15.532  0.00  0.00    +0.000 A 
ATOM     19  C   UNL     1      -4.067  11.361  15.524  0.00  0.00    +0.000 A 
ATOM     20  C   UNL     1      -4.693  11.766  16.709  0.00  0.00    +0.000 A 
ATOM     21  C   UNL     1      -4.364  11.153  17.923  0.00  0.00    +0.000 A 
ATOM     22  C   UNL     1      -3.444  10.095  17.916  0.00  0.00    +0.000 A 
ATOM     23  C   UNL     1      -2.840   9.676  16.729  0.00  0.00    +0.000 A 
BRANCH  18  25
ATOM     24  C   UNL     1      -3.534   9.878  13.247  0.00  0.00    +0.000 C 
ATOM     25  O   UNL     1      -2.598  10.004  14.314  0.00  0.00    +0.000 OA
ENDBRANCH  18  25
ENDBRANCH   1  21
TORSDOF 2
ENDMDL
MODEL 2
REMARK VINA RESULT:      -6.0      2.517      7.399
REMARK  Name = 
REMARK  3 active torsions:
REMARK  status: ('A' for Active; 'I' for Inactive)
REMARK    1  A    between atoms: C_1  and  O_2
REMARK    2  A    between atoms: O_2  and  C_3
REMARK    3  A    between atoms: C_6  and  N_7
REMARK                            x       y       z     vdW  Elec       q    Type
REMARK                         _______ _______ _______ _____ _____    ______ ____
ROOT
ATOM      1  N   UNL     1      -0.472  12.258  20.485  0.00  0.00    +0.000 N 
ATOM      2  C   UNL     1       0.895  12.033  20.395  0.00  0.00    +0.000 A 
ATOM      3  O   UNL     1       1.776  12.446  21.137  0.00  0.00    +0.000 OA
ATOM      4  C   UNL     1       1.331  11.113  19.284  0.00  0.00    +0.000 A 
ATOM      5  N   UNL     1       0.537  10.594  18.405  0.00  0.00    +0.000 NA
ATOM      6  C   UNL     1      -0.824  10.935  18.508  0.00  0.00    +0.000 A 
ATOM      7  C   UNL     1      -1.740  10.484  17.587  0.00  0.00    +0.000 A 
ATOM      8  N   UNL     1      -3.056  10.783  17.613  0.00  0.00    +0.000 NA
ATOM      9  C   UNL     1      -3.492  11.592  18.588  0.00  0.00    +0.000 A 
ATOM     10  N   UNL     1      -4.810  11.946  18.621  0.00  0.00    +0.000 N 
ATOM     11  C   UNL     1      -5.339  12.895  19.599  0.00  0.00    +0.000 C 
ATOM     12  C   UNL     1      -6.470  12.232  20.400  0.00  0.00    +0.000 C 
ATOM     13  O   UNL     1      -7.480  11.680  19.537  0.00  0.00    +0.000 OA
ATOM     14  C   UNL     1      -6.908  10.692  18.662  0.00  0.00    +0.000 C 
ATOM     15  C   UNL     1      -5.804  11.291  17.775  0.00  0.00    +0.000 C 
ATOM     16  N   UNL     1      -2.674  12.065  19.534  0.00  0.00    +0.000 NA
ATOM     17  C   UNL     1      -1.363  11.731  19.504  0.00  0.00    +0.000 A 
ENDROOT
BRANCH   1  21
ATOM     18  C   UNL     1      -2.118  14.500  23.678  0.00  0.00    +0.000 A 
ATOM     19  C   UNL     1      -1.599  15.150  22.557  0.00  0.00    +0.000 A 
ATOM     20  C   UNL     1      -1.041  14.416  21.503  0.00  0.00    +0.000 A 
ATOM     21  C   UNL     1      -1.022  13.018  21.552  0.00  0.00    +0.000 A 
ATOM     22  C   UNL     1      -1.519  12.377  22.695  0.00  0.00    +0.000 A 
ATOM     23  C   UNL     1      -2.053  13.111  23.756  0.00  0.00    +0.000 A 
BRANCH  18  25
ATOM     24  C   UNL     1      -1.782  15.513  25.787  0.00  0.00    +0.000 C 
ATOM     25  O   UNL     1      -2.621  15.318  24.652  0.00  0.00    +0.000 OA
ENDBRANCH  18  25
ENDBRANCH   1  21
TORSDOF 2
ENDMDL
MODEL 3
REMARK VINA RESULT:      -6.0      2.452      6.927
REMARK  Name = 
REMARK  3 active torsions:
REMARK  status: ('A' for Active; 'I' for Inactive)
REMARK    1  A    between atoms: C_1  and  O_2
REMARK    2  A    between atoms: O_2  and  C_3
REMARK    3  A    between atoms: C_6  and  N_7
REMARK                            x       y       z     vdW  Elec       q    Type
REMARK                         _______ _______ _______ _____ _____    ______ ____
ROOT
ATOM      1  N   UNL     1      -2.191  12.570  19.419  0.00  0.00    +0.000 N 
ATOM      2  C   UNL     1      -1.400  12.287  18.315  0.00  0.00    +0.000 A 
ATOM      3  O   UNL     1      -0.223  12.569  18.139  0.00  0.00    +0.000 OA
ATOM      4  C   UNL     1      -2.063  11.474  17.232  0.00  0.00    +0.000 A 
ATOM      5  N   UNL     1      -3.300  11.096  17.249  0.00  0.00    +0.000 NA
ATOM      6  C   UNL     1      -4.063  11.493  18.362  0.00  0.00    +0.000 A 
ATOM      7  C   UNL     1      -5.402  11.194  18.446  0.00  0.00    +0.000 A 
ATOM      8  N   UNL     1      -6.200  11.556  19.473  0.00  0.00    +0.000 NA
ATOM      9  C   UNL     1      -5.653  12.273  20.464  0.00  0.00    +0.000 A 
ATOM     10  N   UNL     1      -6.441  12.688  21.499  0.00  0.00    +0.000 N 
ATOM     11  C   UNL     1      -5.935  13.550  22.566  0.00  0.00    +0.000 C 
ATOM     12  C   UNL     1      -6.142  12.862  23.924  0.00  0.00    +0.000 C 
ATOM     13  O   UNL     1      -7.510  12.461  24.114  0.00  0.00    +0.000 OA
ATOM     14  C   UNL     1      -7.914  11.547  23.080  0.00  0.00    +0.000 C 
ATOM     15  C   UNL     1      -7.797  12.183  21.684  0.00  0.00    +0.000 C 
ATOM     16  N   UNL     1      -4.356  12.597  20.471  0.00  0.00    +0.000 NA
ATOM     17  C   UNL     1      -3.569  12.201  19.443  0.00  0.00    +0.000 A 
ENDROOT
BRANCH   1  21
ATOM     18  C   UNL     1      -0.592  14.529  22.817  0.00  0.00    +0.000 A 
ATOM     19  C   UNL     1      -0.902  15.256  21.667  0.00  0.00    +0.000 A 
ATOM     20  C   UNL     1      -1.418  14.614  20.534  0.00  0.00    +0.000 A 
ATOM     21  C   UNL     1      -1.655  13.235  20.554  0.00  0.00    +0.000 A 
ATOM     22  C   UNL     1      -1.313  12.509  21.705  0.00  0.00    +0.000 A 
ATOM     23  C   UNL     1      -0.776  13.148  22.823  0.00  0.00    +0.000 A 
BRANCH  18  25
ATOM     24  C   UNL     1      -1.035  15.795  24.762  0.00  0.00    +0.000 C 
ATOM     25  O   UNL     1      -0.078  15.257  23.854  0.00  0.00    +0.000 OA
ENDBRANCH  18  25
ENDBRANCH   1  21
TORSDOF 2
ENDMDL
MODEL 4
REMARK VINA RESULT:      -5.9      2.537      7.410
REMARK  Name = 
REMARK  3 active torsions:
REMARK  status: ('A' for Active; 'I' for Inactive)
REMARK    1  A    between atoms: C_1  and  O_2
REMARK    2  A    between atoms: O_2  and  C_3
REMARK    3  A    between atoms: C_6  and  N_7
REMARK                            x       y       z     vdW  Elec       q    Type
REMARK                         _______ _______ _______ _____ _____    ______ ____
ROOT
ATOM      1  N   UNL     1      -0.439  12.349  20.390  0.00  0.00    +0.000 N 
ATOM      2  C   UNL     1       0.922  12.092  20.301  0.00  0.00    +0.000 A 
ATOM      3  O   UNL     1       1.825  12.569  20.977  0.00  0.00    +0.000 OA
ATOM      4  C   UNL     1       1.322  11.049  19.289  0.00  0.00    +0.000 A 
ATOM      5  N   UNL     1       0.503  10.450  18.487  0.00  0.00    +0.000 NA
ATOM      6  C   UNL     1      -0.851  10.823  18.577  0.00  0.00    +0.000 A 
ATOM      7  C   UNL     1      -1.791  10.290  17.728  0.00  0.00    +0.000 A 
ATOM      8  N   UNL     1      -3.102  10.613  17.745  0.00  0.00    +0.000 NA
ATOM      9  C   UNL     1      -3.506  11.530  18.633  0.00  0.00    +0.000 A 
ATOM     10  N   UNL     1      -4.818  11.908  18.651  0.00  0.00    +0.000 N 
ATOM     11  C   UNL     1      -5.313  12.967  19.529  0.00  0.00    +0.000 C 
ATOM     12  C   UNL     1      -6.437  12.416  20.418  0.00  0.00    +0.000 C 
ATOM     13  O   UNL     1      -7.473  11.790  19.639  0.00  0.00    +0.000 OA
ATOM     14  C   UNL     1      -6.933  10.703  18.868  0.00  0.00    +0.000 C 
ATOM     15  C   UNL     1      -5.837  11.182  17.901  0.00  0.00    +0.000 C 
ATOM     16  N   UNL     1      -2.663  12.090  19.506  0.00  0.00    +0.000 NA
ATOM     17  C   UNL     1      -1.357  11.733  19.489  0.00  0.00    +0.000 A 
ENDROOT
BRANCH   1  21
ATOM     18  C   UNL     1      -1.979  14.998  23.313  0.00  0.00    +0.000 A 
ATOM     19  C   UNL     1      -1.784  13.650  23.619  0.00  0.00    +0.000 A 
ATOM     20  C   UNL     1      -1.288  12.765  22.653  0.00  0.00    +0.000 A 
ATOM     21  C   UNL     1      -0.956  13.230  21.377  0.00  0.00    +0.000 A 
ATOM     22  C   UNL     1      -1.183  14.580  21.071  0.00  0.00    +0.000 A 
ATOM     23  C   UNL     1      -1.701  15.455  22.028  0.00  0.00    +0.000 A 
BRANCH  18  25
ATOM     24  C   UNL     1      -2.133  15.352  25.645  0.00  0.00    +0.000 C 
ATOM     25  O   UNL     1      -2.484  15.764  24.327  0.00  0.00    +0.000 OA
ENDBRANCH  18  25
ENDBRANCH   1  21
TORSDOF 2
ENDMDL
MODEL 5
REMARK VINA RESULT:      -5.9      2.273      5.489
REMARK  Name = 
REMARK  3 active torsions:
REMARK  status: ('A' for Active; 'I' for Inactive)
REMARK    1  A    between atoms: C_1  and  O_2
REMARK    2  A    between atoms: O_2  and  C_3
REMARK    3  A    between atoms: C_6  and  N_7
REMARK                            x       y       z     vdW  Elec       q    Type
REMARK                         _______ _______ _______ _____ _____    ______ ____
ROOT
ATOM      1  N   UNL     1      -2.979  11.721  18.330  0.00  0.00    +0.000 N 
ATOM      2  C   UNL     1      -3.031  11.399  16.981  0.00  0.00    +0.000 A 
ATOM      3  O   UNL     1      -2.095  11.218  16.214  0.00  0.00    +0.000 OA
ATOM      4  C   UNL     1      -4.411  11.184  16.417  0.00  0.00    +0.000 A 
ATOM      5  N   UNL     1      -5.510  11.340  17.081  0.00  0.00    +0.000 NA
ATOM      6  C   UNL     1      -5.382  11.750  18.420  0.00  0.00    +0.000 A 
ATOM      7  C   UNL     1      -6.490  12.001  19.194  0.00  0.00    +0.000 A 
ATOM      8  N   UNL     1      -6.444  12.413  20.479  0.00  0.00    +0.000 NA
ATOM      9  C   UNL     1      -5.238  12.610  21.027  0.00  0.00    +0.000 A 
ATOM     10  N   UNL     1      -5.155  13.064  22.312  0.00  0.00    +0.000 N 
ATOM     11  C   UNL     1      -3.878  13.388  22.945  0.00  0.00    +0.000 C 
ATOM     12  C   UNL     1      -3.712  12.556  24.225  0.00  0.00    +0.000 C 
ATOM     13  O   UNL     1      -4.839  12.706  25.107  0.00  0.00    +0.000 OA
ATOM     14  C   UNL     1      -6.048  12.287  24.450  0.00  0.00    +0.000 C 
ATOM     15  C   UNL     1      -6.324  13.117  23.185  0.00  0.00    +0.000 C 
ATOM     16  N   UNL     1      -4.107  12.377  20.353  0.00  0.00    +0.000 NA
ATOM     17  C   UNL     1      -4.176  11.940  19.074  0.00  0.00    +0.000 A 
ENDROOT
BRANCH   1  21
ATOM     18  C   UNL     1       0.724  12.060  20.358  0.00  0.00    +0.000 A 
ATOM     19  C   UNL     1       0.152  13.177  19.747  0.00  0.00    +0.000 A 
ATOM     20  C   UNL     1      -1.066  13.070  19.063  0.00  0.00    +0.000 A 
ATOM     21  C   UNL     1      -1.737  11.844  19.008  0.00  0.00    +0.000 A 
ATOM     22  C   UNL     1      -1.139  10.722  19.601  0.00  0.00    +0.000 A 
ATOM     23  C   UNL     1       0.086  10.826  20.261  0.00  0.00    +0.000 A 
BRANCH  18  25
ATOM     24  C   UNL     1       2.521  13.547  20.735  0.00  0.00    +0.000 C 
ATOM     25  O   UNL     1       1.921  12.279  20.982  0.00  0.00    +0.000 OA
ENDBRANCH  18  25
ENDBRANCH   1  21
TORSDOF 2
ENDMDL
MODEL 6
REMARK VINA RESULT:      -5.9      8.629     10.093
REMARK  Name = 
REMARK  3 active torsions:
REMARK  status: ('A' for Active; 'I' for Inactive)
REMARK    1  A    between atoms: C_1  and  O_2
REMARK    2  A    between atoms: O_2  and  C_3
REMARK    3  A    between atoms: C_6  and  N_7
REMARK                            x       y       z     vdW  Elec       q    Type
REMARK                         _______ _______ _______ _____ _____    ______ ____
ROOT
ATOM      1  N   UNL     1       4.053   4.160  19.344  0.00  0.00    +0.000 N 
ATOM      2  C   UNL     1       4.186   2.919  19.951  0.00  0.00    +0.000 A 
ATOM      3  O   UNL     1       4.972   2.024  19.671  0.00  0.00    +0.000 OA
ATOM      4  C   UNL     1       3.295   2.680  21.143  0.00  0.00    +0.000 A 
ATOM      5  N   UNL     1       2.403   3.511  21.573  0.00  0.00    +0.000 NA
ATOM      6  C   UNL     1       2.266   4.714  20.855  0.00  0.00    +0.000 A 
ATOM      7  C   UNL     1       1.306   5.638  21.194  0.00  0.00    +0.000 A 
ATOM      8  N   UNL     1       1.106   6.802  20.542  0.00  0.00    +0.000 NA
ATOM      9  C   UNL     1       1.881   7.063  19.481  0.00  0.00    +0.000 A 
ATOM     10  N   UNL     1       1.679   8.214  18.775  0.00  0.00    +0.000 N 
ATOM     11  C   UNL     1       2.423   8.522  17.555  0.00  0.00    +0.000 C 
ATOM     12  C   UNL     1       3.151   9.864  17.720  0.00  0.00    +0.000 C 
ATOM     13  O   UNL     1       2.250  10.912  18.118  0.00  0.00    +0.000 OA
ATOM     14  C   UNL     1       1.619  10.584  19.368  0.00  0.00    +0.000 C 
ATOM     15  C   UNL     1       0.813   9.278  19.271  0.00  0.00    +0.000 C 
ATOM     16  N   UNL     1       2.849   6.228  19.089  0.00  0.00    +0.000 NA
ATOM     17  C   UNL     1       3.049   5.077  19.773  0.00  0.00    +0.000 A 
ENDROOT
BRANCH   1  21
ATOM     18  C   UNL     1       6.622   5.340  16.190  0.00  0.00    +0.000 A 
ATOM     19  C   UNL     1       5.450   4.634  15.916  0.00  0.00    +0.000 A 
ATOM     20  C   UNL     1       4.602   4.228  16.954  0.00  0.00    +0.000 A 
ATOM     21  C   UNL     1       4.909   4.552  18.280  0.00  0.00    +0.000 A 
ATOM     22  C   UNL     1       6.104   5.236  18.547  0.00  0.00    +0.000 A 
ATOM     23  C   UNL     1       6.960   5.617  17.512  0.00  0.00    +0.000 A 
BRANCH  18  25
ATOM     24  C   UNL     1       7.146   4.890  13.930  0.00  0.00    +0.000 C 
ATOM     25  O   UNL     1       7.380   5.668  15.101  0.00  0.00    +0.000 OA
ENDBRANCH  18  25
ENDBRANCH   1  21
TORSDOF 2
ENDMDL
MODEL 7
REMARK VINA RESULT:      -5.9     10.868     12.994
REMARK  Name = 
REMARK  3 active torsions:
REMARK  status: ('A' for Active; 'I' for Inactive)
REMARK    1  A    between atoms: C_1  and  O_2
REMARK    2  A    between atoms: O_2  and  C_3
REMARK    3  A    between atoms: C_6  and  N_7
REMARK                            x       y       z     vdW  Elec       q    Type
REMARK                         _______ _______ _______ _____ _____    ______ ____
ROOT
ATOM      1  N   UNL     1       9.917  14.110  18.764  0.00  0.00    +0.000 N 
ATOM      2  C   UNL     1      10.709  14.674  17.773  0.00  0.00    +0.000 A 
ATOM      3  O   UNL     1      11.227  14.117  16.815  0.00  0.00    +0.000 OA
ATOM      4  C   UNL     1      10.892  16.167  17.860  0.00  0.00    +0.000 A 
ATOM      5  N   UNL     1      10.423  16.913  18.806  0.00  0.00    +0.000 NA
ATOM      6  C   UNL     1       9.702  16.259  19.822  0.00  0.00    +0.000 A 
ATOM      7  C   UNL     1       9.212  16.952  20.904  0.00  0.00    +0.000 A 
ATOM      8  N   UNL     1       8.528  16.390  21.922  0.00  0.00    +0.000 NA
ATOM      9  C   UNL     1       8.333  15.065  21.885  0.00  0.00    +0.000 A 
ATOM     10  N   UNL     1       7.678  14.459  22.919  0.00  0.00    +0.000 N 
ATOM     11  C   UNL     1       7.509  13.009  22.991  0.00  0.00    +0.000 C 
ATOM     12  C   UNL     1       6.014  12.669  23.085  0.00  0.00    +0.000 C 
ATOM     13  O   UNL     1       5.376  13.372  24.166  0.00  0.00    +0.000 OA
ATOM     14  C   UNL     1       5.505  14.794  23.985  0.00  0.00    +0.000 C 
ATOM     15  C   UNL     1       6.979  15.228  23.943  0.00  0.00    +0.000 C 
ATOM     16  N   UNL     1       8.761  14.315  20.865  0.00  0.00    +0.000 NA
ATOM     17  C   UNL     1       9.423  14.903  19.842  0.00  0.00    +0.000 A 
ENDROOT
BRANCH   1  21
ATOM     18  C   UNL     1       8.888  10.003  18.660  0.00  0.00    +0.000 A 
ATOM     19  C   UNL     1       9.865  10.461  19.545  0.00  0.00    +0.000 A 
ATOM     20  C   UNL     1      10.221  11.815  19.576  0.00  0.00    +0.000 A 
ATOM     21  C   UNL     1       9.578  12.731  18.736  0.00  0.00    +0.000 A 
ATOM     22  C   UNL     1       8.618  12.256  17.830  0.00  0.00    +0.000 A 
ATOM     23  C   UNL     1       8.283  10.902  17.784  0.00  0.00    +0.000 A 
BRANCH  18  25
ATOM     24  C   UNL     1       7.843   8.146  17.639  0.00  0.00    +0.000 C 
ATOM     25  O   UNL     1       8.635   8.660  18.706  0.00  0.00    +0.000 OA
ENDBRANCH  18  25
ENDBRANCH   1  21
TORSDOF 2
ENDMDL
MODEL 8
REMARK VINA RESULT:      -5.8      2.476      7.017
REMARK  Name = 
REMARK  3 active torsions:
REMARK  status: ('A' for Active; 'I' for Inactive)
REMARK    1  A    between atoms: C_1  and  O_2
REMARK    2  A    between atoms: O_2  and  C_3
REMARK    3  A    between atoms: C_6  and  N_7
REMARK                            x       y       z     vdW  Elec       q    Type
REMARK                         _______ _______ _______ _____ _____    ______ ____
ROOT
ATOM      1  N   UNL     1      -2.166  12.688  19.430  0.00  0.00    +0.000 N 
ATOM      2  C   UNL     1      -1.341  12.405  18.352  0.00  0.00    +0.000 A 
ATOM      3  O   UNL     1      -0.173  12.732  18.190  0.00  0.00    +0.000 OA
ATOM      4  C   UNL     1      -1.945  11.530  17.283  0.00  0.00    +0.000 A 
ATOM      5  N   UNL     1      -3.165  11.100  17.287  0.00  0.00    +0.000 NA
ATOM      6  C   UNL     1      -3.968  11.498  18.371  0.00  0.00    +0.000 A 
ATOM      7  C   UNL     1      -5.294  11.143  18.439  0.00  0.00    +0.000 A 
ATOM      8  N   UNL     1      -6.128  11.503  19.438  0.00  0.00    +0.000 NA
ATOM      9  C   UNL     1      -5.634  12.274  20.415  0.00  0.00    +0.000 A 
ATOM     10  N   UNL     1      -6.460  12.687  21.421  0.00  0.00    +0.000 N 
ATOM     11  C   UNL     1      -6.015  13.602  22.470  0.00  0.00    +0.000 C 
ATOM     12  C   UNL     1      -6.220  12.949  23.845  0.00  0.00    +0.000 C 
ATOM     13  O   UNL     1      -7.574  12.495  24.021  0.00  0.00    +0.000 OA
ATOM     14  C   UNL     1      -7.917  11.533  23.008  0.00  0.00    +0.000 C 
ATOM     15  C   UNL     1      -7.797  12.129  21.596  0.00  0.00    +0.000 C 
ATOM     16  N   UNL     1      -4.352  12.653  20.438  0.00  0.00    +0.000 NA
ATOM     17  C   UNL     1      -3.527  12.260  19.439  0.00  0.00    +0.000 A 
ENDROOT
BRANCH   1  21
ATOM     18  C   UNL     1      -0.731  14.867  22.766  0.00  0.00    +0.000 A 
ATOM     19  C   UNL     1      -0.767  13.472  22.800  0.00  0.00    +0.000 A 
ATOM     20  C   UNL     1      -1.253  12.745  21.706  0.00  0.00    +0.000 A 
ATOM     21  C   UNL     1      -1.683  13.411  20.554  0.00  0.00    +0.000 A 
ATOM     22  C   UNL     1      -1.670  14.813  20.541  0.00  0.00    +0.000 A 
ATOM     23  C   UNL     1      -1.209  15.537  21.642  0.00  0.00    +0.000 A 
BRANCH  18  25
ATOM     24  C   UNL     1       0.340  16.753  23.706  0.00  0.00    +0.000 C 
ATOM     25  O   UNL     1      -0.253  15.472  23.896  0.00  0.00    +0.000 OA
ENDBRANCH  18  25
ENDBRANCH   1  21
TORSDOF 2
ENDMDL
MODEL 9
REMARK VINA RESULT:      -5.8      2.368      5.484
REMARK  Name = 
REMARK  3 active torsions:
REMARK  status: ('A' for Active; 'I' for Inactive)
REMARK    1  A    between atoms: C_1  and  O_2
REMARK    2  A    between atoms: O_2  and  C_3
REMARK    3  A    between atoms: C_6  and  N_7
REMARK                            x       y       z     vdW  Elec       q    Type
REMARK                         _______ _______ _______ _____ _____    ______ ____
ROOT
ATOM      1  N   UNL     1      -4.829  12.599  19.722  0.00  0.00    +0.000 N 
ATOM      2  C   UNL     1      -6.100  12.405  19.198  0.00  0.00    +0.000 A 
ATOM      3  O   UNL     1      -7.171  12.767  19.666  0.00  0.00    +0.000 OA
ATOM      4  C   UNL     1      -6.152  11.722  17.856  0.00  0.00    +0.000 A 
ATOM      5  N   UNL     1      -5.121  11.267  17.221  0.00  0.00    +0.000 NA
ATOM      6  C   UNL     1      -3.874  11.424  17.853  0.00  0.00    +0.000 A 
ATOM      7  C   UNL     1      -2.725  10.922  17.290  0.00  0.00    +0.000 A 
ATOM      8  N   UNL     1      -1.499  11.020  17.846  0.00  0.00    +0.000 NA
ATOM      9  C   UNL     1      -1.401  11.627  19.036  0.00  0.00    +0.000 A 
ATOM     10  N   UNL     1      -0.182  11.708  19.645  0.00  0.00    +0.000 N 
ATOM     11  C   UNL     1      -0.014  12.274  20.982  0.00  0.00    +0.000 C 
ATOM     12  C   UNL     1       0.987  13.438  20.927  0.00  0.00    +0.000 C 
ATOM     13  O   UNL     1       2.228  13.043  20.315  0.00  0.00    +0.000 OA
ATOM     14  C   UNL     1       2.000  12.581  18.972  0.00  0.00    +0.000 C 
ATOM     15  C   UNL     1       1.052  11.370  18.943  0.00  0.00    +0.000 C 
ATOM     16  N   UNL     1      -2.464  12.157  19.650  0.00  0.00    +0.000 NA
ATOM     17  C   UNL     1      -3.681  12.070  19.062  0.00  0.00    +0.000 A 
ENDROOT
BRANCH   1  21
ATOM     18  C   UNL     1      -4.248  14.787  23.301  0.00  0.00    +0.000 A 
ATOM     19  C   UNL     1      -4.461  13.408  23.346  0.00  0.00    +0.000 A 
ATOM     20  C   UNL     1      -4.667  12.680  22.168  0.00  0.00    +0.000 A 
ATOM     21  C   UNL     1      -4.636  13.325  20.928  0.00  0.00    +0.000 A 
ATOM     22  C   UNL     1      -4.451  14.715  20.895  0.00  0.00    +0.000 A 
ATOM     23  C   UNL     1      -4.270  15.442  22.072  0.00  0.00    +0.000 A 
BRANCH  18  25
ATOM     24  C   UNL     1      -2.964  14.942  25.279  0.00  0.00    +0.000 C 
ATOM     25  O   UNL     1      -4.076  15.396  24.513  0.00  0.00    +0.000 OA
ENDBRANCH  18  25
ENDBRANCH   1  21
TORSDOF 2
ENDMDL
