MODEL 1
REMARK VINA RESULT:      -7.0      0.000      0.000
REMARK  Name = 
REMARK  5 active torsions:
REMARK  status: ('A' for Active; 'I' for Inactive)
REMARK    1  A    between atoms: C_1  and  C_2
REMARK    2  A    between atoms: C_3  and  N_4
REMARK    3  A    between atoms: N_8  and  C_9
REMARK    4  A    between atoms: C_14  and  N_15
REMARK    5  A    between atoms: C_22  and  C_23
REMARK                            x       y       z     vdW  Elec       q    Type
REMARK                         _______ _______ _______ _____ _____    ______ ____
ROOT
ATOM      1  N   UNL     1      -4.666  14.506  21.372  0.00  0.00    +0.000 N 
ATOM      2  C   UNL     1      -5.569  13.476  21.283  0.00  0.00    +0.000 A 
ATOM      3  N   UNL     1      -6.562  13.266  22.143  0.00  0.00    +0.000 NA
ATOM      4  C   UNL     1      -7.249  12.178  21.692  0.00  0.00    +0.000 A 
ATOM      5  C   UNL     1      -6.679  11.687  20.547  0.00  0.00    +0.000 A 
ATOM      6  C   UNL     1      -6.974  10.605  19.700  0.00  0.00    +0.000 A 
ATOM      7  C   UNL     1      -6.175  10.353  18.677  0.00  0.00    +0.000 A 
ATOM      8  C   UNL     1      -4.978  11.243  18.457  0.00  0.00    +0.000 A 
ATOM      9  N   UNL     1      -4.704  12.292  19.198  0.00  0.00    +0.000 NA
ATOM     10  N   UNL     1      -5.592  12.498  20.262  0.00  0.00    +0.000 N 
ATOM     11  H   UNL     1      -4.032  14.699  20.603  0.00  0.00    +0.000 HD
ENDROOT
BRANCH   8  12
ATOM     12  C   UNL     1      -4.110  10.789  17.292  0.00  0.00    +0.000 A 
ATOM     13  N   UNL     1      -4.592  11.084  16.040  0.00  0.00    +0.000 NA
ATOM     14  C   UNL     1      -3.868  10.692  14.964  0.00  0.00    +0.000 A 
ATOM     15  C   UNL     1      -2.671  10.011  15.059  0.00  0.00    +0.000 A 
ATOM     16  C   UNL     1      -2.191   9.715  16.332  0.00  0.00    +0.000 A 
ATOM     17  C   UNL     1      -2.917  10.105  17.465  0.00  0.00    +0.000 A 
ATOM     18  F   UNL     1      -2.423   9.807  18.670  0.00  0.00    +0.000 F 
ENDBRANCH   8  12
BRANCH   1  24
ATOM     19  C   UNL     1      -2.968  14.956  23.196  0.00  0.00    +0.000 A 
ATOM     20  C   UNL     1      -2.776  15.571  24.456  0.00  0.00    +0.000 A 
ATOM     21  C   UNL     1      -3.793  16.274  25.083  0.00  0.00    +0.000 A 
ATOM     22  N   UNL     1      -4.996  16.472  24.540  0.00  0.00    +0.000 NA
ATOM     23  C   UNL     1      -5.185  15.917  23.316  0.00  0.00    +0.000 A 
ATOM     24  C   UNL     1      -4.262  15.117  22.604  0.00  0.00    +0.000 A 
BRANCH  19  31
ATOM     25  C   UNL     1      -1.617  11.731  23.071  0.00  0.00    +0.000 C 
ATOM     26  C   UNL     1      -2.115  12.829  22.108  0.00  0.00    +0.000 C 
ATOM     27  C   UNL     1      -1.370  12.703  20.746  0.00  0.00    +0.000 C 
ATOM     28  C   UNL     1       0.101  13.137  20.904  0.00  0.00    +0.000 C 
ATOM     29  C   UNL     1       0.357  14.374  21.787  0.00  0.00    +0.000 C 
ATOM     30  C   UNL     1      -0.531  14.498  23.029  0.00  0.00    +0.000 C 
ATOM     31  N   UNL     1      -1.914  14.211  22.640  0.00  0.00    +0.000 N 
BRANCH  27  32
ATOM     32  N   UNL     1      -2.047  13.379  19.623  0.00  0.00    +0.000 NA
ATOM     33  H   UNL     1      -2.949  12.952  19.425  0.00  0.00    +0.000 HD
ATOM     34  H   UNL     1      -1.495  13.272  18.771  0.00  0.00    +0.000 HD
ENDBRANCH  27  32
ENDBRANCH  19  31
ENDBRANCH   1  24
TORSDOF 4
ENDMDL
MODEL 2
REMARK VINA RESULT:      -6.8      2.725      6.081
REMARK  Name = 
REMARK  5 active torsions:
REMARK  status: ('A' for Active; 'I' for Inactive)
REMARK    1  A    between atoms: C_1  and  C_2
REMARK    2  A    between atoms: C_3  and  N_4
REMARK    3  A    between atoms: N_8  and  C_9
REMARK    4  A    between atoms: C_14  and  N_15
REMARK    5  A    between atoms: C_22  and  C_23
REMARK                            x       y       z     vdW  Elec       q    Type
REMARK                         _______ _______ _______ _____ _____    ______ ____
ROOT
ATOM      1  N   UNL     1      -3.225  12.804  19.246  0.00  0.00    +0.000 N 
ATOM      2  C   UNL     1      -2.416  11.771  18.843  0.00  0.00    +0.000 A 
ATOM      3  N   UNL     1      -2.856  10.603  18.384  0.00  0.00    +0.000 NA
ATOM      4  C   UNL     1      -1.754   9.869  18.058  0.00  0.00    +0.000 A 
ATOM      5  C   UNL     1      -0.609  10.570  18.327  0.00  0.00    +0.000 A 
ATOM      6  C   UNL     1       0.761  10.286  18.193  0.00  0.00    +0.000 A 
ATOM      7  C   UNL     1       1.646  11.176  18.608  0.00  0.00    +0.000 A 
ATOM      8  C   UNL     1       1.148  12.467  19.205  0.00  0.00    +0.000 A 
ATOM      9  N   UNL     1      -0.122  12.786  19.297  0.00  0.00    +0.000 NA
ATOM     10  N   UNL     1      -1.002  11.796  18.839  0.00  0.00    +0.000 N 
ATOM     11  H   UNL     1      -2.830  13.719  19.438  0.00  0.00    +0.000 HD
ENDROOT
BRANCH   8  12
ATOM     12  C   UNL     1       2.275  13.360  19.706  0.00  0.00    +0.000 A 
ATOM     13  N   UNL     1       2.506  13.323  21.060  0.00  0.00    +0.000 NA
ATOM     14  C   UNL     1       3.489  14.107  21.565  0.00  0.00    +0.000 A 
ATOM     15  C   UNL     1       4.270  14.943  20.792  0.00  0.00    +0.000 A 
ATOM     16  C   UNL     1       4.027  14.975  19.421  0.00  0.00    +0.000 A 
ATOM     17  C   UNL     1       3.017  14.177  18.868  0.00  0.00    +0.000 A 
ATOM     18  F   UNL     1       2.815  14.231  17.548  0.00  0.00    +0.000 F 
ENDBRANCH   8  12
BRANCH   1  24
ATOM     19  C   UNL     1      -4.874  12.840  21.168  0.00  0.00    +0.000 A 
ATOM     20  C   UNL     1      -6.206  12.543  21.540  0.00  0.00    +0.000 A 
ATOM     21  C   UNL     1      -7.126  12.062  20.621  0.00  0.00    +0.000 A 
ATOM     22  N   UNL     1      -6.854  11.893  19.325  0.00  0.00    +0.000 NA
ATOM     23  C   UNL     1      -5.590  12.205  18.946  0.00  0.00    +0.000 A 
ATOM     24  C   UNL     1      -4.540  12.631  19.790  0.00  0.00    +0.000 A 
BRANCH  19  31
ATOM     25  C   UNL     1      -4.132  12.508  24.571  0.00  0.00    +0.000 C 
ATOM     26  C   UNL     1      -3.441  12.343  23.202  0.00  0.00    +0.000 C 
ATOM     27  C   UNL     1      -1.911  12.594  23.358  0.00  0.00    +0.000 C 
ATOM     28  C   UNL     1      -1.642  14.091  23.613  0.00  0.00    +0.000 C 
ATOM     29  C   UNL     1      -2.485  15.085  22.790  0.00  0.00    +0.000 C 
ATOM     30  C   UNL     1      -3.943  14.681  22.552  0.00  0.00    +0.000 C 
ATOM     31  N   UNL     1      -3.976  13.271  22.159  0.00  0.00    +0.000 N 
BRANCH  27  32
ATOM     32  N   UNL     1      -1.095  12.046  22.259  0.00  0.00    +0.000 NA
ATOM     33  H   UNL     1      -1.342  12.470  21.368  0.00  0.00    +0.000 HD
ATOM     34  H   UNL     1      -1.281  11.047  22.153  0.00  0.00    +0.000 HD
ENDBRANCH  27  32
ENDBRANCH  19  31
ENDBRANCH   1  24
TORSDOF 4
ENDMDL
MODEL 3
REMARK VINA RESULT:      -6.7      2.891      5.839
REMARK  Name = 
REMARK  5 active torsions:
REMARK  status: ('A' for Active; 'I' for Inactive)
REMARK    1  A    between atoms: C_1  and  C_2
REMARK    2  A    between atoms: C_3  and  N_4
REMARK    3  A    between atoms: N_8  and  C_9
REMARK    4  A    between atoms: C_14  and  N_15
REMARK    5  A    between atoms: C_22  and  C_23
REMARK                            x       y       z     vdW  Elec       q    Type
REMARK                         _______ _______ _______ _____ _____    ______ ____
ROOT
ATOM      1  N   UNL     1      -3.990  11.952  19.866  0.00  0.00    +0.000 N 
ATOM      2  C   UNL     1      -2.886  12.722  20.138  0.00  0.00    +0.000 A 
ATOM      3  N   UNL     1      -2.925  14.019  20.432  0.00  0.00    +0.000 NA
ATOM      4  C   UNL     1      -1.640  14.406  20.671  0.00  0.00    +0.000 A 
ATOM      5  C   UNL     1      -0.780  13.352  20.513  0.00  0.00    +0.000 A 
ATOM      6  C   UNL     1       0.614  13.206  20.625  0.00  0.00    +0.000 A 
ATOM      7  C   UNL     1       1.163  12.037  20.343  0.00  0.00    +0.000 A 
ATOM      8  C   UNL     1       0.268  10.901  19.917  0.00  0.00    +0.000 A 
ATOM      9  N   UNL     1      -1.040  10.988  19.853  0.00  0.00    +0.000 NA
ATOM     10  N   UNL     1      -1.552  12.255  20.164  0.00  0.00    +0.000 N 
ATOM     11  H   UNL     1      -3.907  10.943  19.802  0.00  0.00    +0.000 HD
ENDROOT
BRANCH   8  12
ATOM     12  C   UNL     1       1.044   9.642  19.554  0.00  0.00    +0.000 A 
ATOM     13  N   UNL     1       1.503   9.578  18.261  0.00  0.00    +0.000 NA
ATOM     14  C   UNL     1       2.188   8.475  17.877  0.00  0.00    +0.000 A 
ATOM     15  C   UNL     1       2.451   7.410  18.716  0.00  0.00    +0.000 A 
ATOM     16  C   UNL     1       1.980   7.483  20.024  0.00  0.00    +0.000 A 
ATOM     17  C   UNL     1       1.266   8.610  20.452  0.00  0.00    +0.000 A 
ATOM     18  F   UNL     1       0.833   8.646  21.716  0.00  0.00    +0.000 F 
ENDBRANCH   8  12
BRANCH   1  24
ATOM     19  C   UNL     1      -6.164  13.244  19.995  0.00  0.00    +0.000 A 
ATOM     20  C   UNL     1      -7.337  13.586  19.282  0.00  0.00    +0.000 A 
ATOM     21  C   UNL     1      -7.542  13.165  17.977  0.00  0.00    +0.000 A 
ATOM     22  N   UNL     1      -6.646  12.461  17.280  0.00  0.00    +0.000 NA
ATOM     23  C   UNL     1      -5.501  12.155  17.939  0.00  0.00    +0.000 A 
ATOM     24  C   UNL     1      -5.200  12.457  19.286  0.00  0.00    +0.000 A 
BRANCH  19  31
ATOM     25  C   UNL     1      -7.660  12.922  23.141  0.00  0.00    +0.000 C 
ATOM     26  C   UNL     1      -6.283  12.722  22.474  0.00  0.00    +0.000 C 
ATOM     27  C   UNL     1      -5.159  12.925  23.533  0.00  0.00    +0.000 C 
ATOM     28  C   UNL     1      -5.053  14.414  23.917  0.00  0.00    +0.000 C 
ATOM     29  C   UNL     1      -5.188  15.427  22.763  0.00  0.00    +0.000 C 
ATOM     30  C   UNL     1      -6.212  15.068  21.681  0.00  0.00    +0.000 C 
ATOM     31  N   UNL     1      -6.043  13.656  21.333  0.00  0.00    +0.000 N 
BRANCH  27  32
ATOM     32  N   UNL     1      -3.859  12.340  23.152  0.00  0.00    +0.000 NA
ATOM     33  H   UNL     1      -3.413  12.879  22.414  0.00  0.00    +0.000 HD
ATOM     34  H   UNL     1      -4.000  11.404  22.767  0.00  0.00    +0.000 HD
ENDBRANCH  27  32
ENDBRANCH  19  31
ENDBRANCH   1  24
TORSDOF 4
ENDMDL
MODEL 4
REMARK VINA RESULT:      -6.7      4.421      5.849
REMARK  Name = 
REMARK  5 active torsions:
REMARK  status: ('A' for Active; 'I' for Inactive)
REMARK    1  A    between atoms: C_1  and  C_2
REMARK    2  A    between atoms: C_3  and  N_4
REMARK    3  A    between atoms: N_8  and  C_9
REMARK    4  A    between atoms: C_14  and  N_15
REMARK    5  A    between atoms: C_22  and  C_23
REMARK                            x       y       z     vdW  Elec       q    Type
REMARK                         _______ _______ _______ _____ _____    ______ ____
ROOT
ATOM      1  N   UNL     1      -0.807  13.370  20.080  0.00  0.00    +0.000 N 
ATOM      2  C   UNL     1      -0.858  12.482  21.126  0.00  0.00    +0.000 A 
ATOM      3  N   UNL     1      -1.427  12.734  22.302  0.00  0.00    +0.000 NA
ATOM      4  C   UNL     1      -1.303  11.601  23.049  0.00  0.00    +0.000 A 
ATOM      5  C   UNL     1      -0.638  10.630  22.348  0.00  0.00    +0.000 A 
ATOM      6  C   UNL     1      -0.243   9.314  22.643  0.00  0.00    +0.000 A 
ATOM      7  C   UNL     1       0.457   8.637  21.749  0.00  0.00    +0.000 A 
ATOM      8  C   UNL     1       0.800   9.305  20.442  0.00  0.00    +0.000 A 
ATOM      9  N   UNL     1       0.403  10.512  20.114  0.00  0.00    +0.000 NA
ATOM     10  N   UNL     1      -0.333  11.170  21.109  0.00  0.00    +0.000 N 
ATOM     11  H   UNL     1      -0.497  13.063  19.163  0.00  0.00    +0.000 HD
ENDROOT
BRANCH   8  12
ATOM     12  C   UNL     1       1.670   8.436  19.545  0.00  0.00    +0.000 A 
ATOM     13  N   UNL     1       2.074   7.239  20.085  0.00  0.00    +0.000 NA
ATOM     14  C   UNL     1       2.862   6.430  19.337  0.00  0.00    +0.000 A 
ATOM     15  C   UNL     1       3.282   6.743  18.060  0.00  0.00    +0.000 A 
ATOM     16  C   UNL     1       2.869   7.959  17.521  0.00  0.00    +0.000 A 
ATOM     17  C   UNL     1       2.055   8.819  18.269  0.00  0.00    +0.000 A 
ATOM     18  F   UNL     1       1.675   9.976  17.718  0.00  0.00    +0.000 F 
ENDBRANCH   8  12
BRANCH   1  24
ATOM     19  C   UNL     1       0.391  15.600  20.154  0.00  0.00    +0.000 A 
ATOM     20  C   UNL     1       0.226  16.981  20.411  0.00  0.00    +0.000 A 
ATOM     21  C   UNL     1      -1.011  17.515  20.737  0.00  0.00    +0.000 A 
ATOM     22  N   UNL     1      -2.136  16.797  20.783  0.00  0.00    +0.000 NA
ATOM     23  C   UNL     1      -1.999  15.476  20.506  0.00  0.00    +0.000 A 
ATOM     24  C   UNL     1      -0.791  14.795  20.233  0.00  0.00    +0.000 A 
BRANCH  19  31
ATOM     25  C   UNL     1       2.139  13.375  18.096  0.00  0.00    +0.000 C 
ATOM     26  C   UNL     1       2.159  14.867  18.488  0.00  0.00    +0.000 C 
ATOM     27  C   UNL     1       3.608  15.421  18.350  0.00  0.00    +0.000 C 
ATOM     28  C   UNL     1       4.506  14.842  19.462  0.00  0.00    +0.000 C 
ATOM     29  C   UNL     1       3.874  14.736  20.863  0.00  0.00    +0.000 C 
ATOM     30  C   UNL     1       2.396  14.334  20.897  0.00  0.00    +0.000 C 
ATOM     31  N   UNL     1       1.682  15.113  19.883  0.00  0.00    +0.000 N 
BRANCH  27  32
ATOM     32  N   UNL     1       3.686  16.891  18.261  0.00  0.00    +0.000 NA
ATOM     33  H   UNL     1       4.443  17.256  18.833  0.00  0.00    +0.000 HD
ATOM     34  H   UNL     1       2.830  17.307  18.634  0.00  0.00    +0.000 HD
ENDBRANCH  27  32
ENDBRANCH  19  31
ENDBRANCH   1  24
TORSDOF 4
ENDMDL
MODEL 5
REMARK VINA RESULT:      -6.6     11.465     13.966
REMARK  Name = 
REMARK  5 active torsions:
REMARK  status: ('A' for Active; 'I' for Inactive)
REMARK    1  A    between atoms: C_1  and  C_2
REMARK    2  A    between atoms: C_3  and  N_4
REMARK    3  A    between atoms: N_8  and  C_9
REMARK    4  A    between atoms: C_14  and  N_15
REMARK    5  A    between atoms: C_22  and  C_23
REMARK                            x       y       z     vdW  Elec       q    Type
REMARK                         _______ _______ _______ _____ _____    ______ ____
ROOT
ATOM      1  N   UNL     1       8.360  15.189  19.747  0.00  0.00    +0.000 N 
ATOM      2  C   UNL     1       8.130  16.121  20.729  0.00  0.00    +0.000 A 
ATOM      3  N   UNL     1       8.289  17.432  20.577  0.00  0.00    +0.000 NA
ATOM      4  C   UNL     1       7.927  18.012  21.757  0.00  0.00    +0.000 A 
ATOM      5  C   UNL     1       7.550  17.060  22.667  0.00  0.00    +0.000 A 
ATOM      6  C   UNL     1       7.109  17.109  24.000  0.00  0.00    +0.000 A 
ATOM      7  C   UNL     1       6.873  15.977  24.642  0.00  0.00    +0.000 A 
ATOM      8  C   UNL     1       7.082  14.675  23.912  0.00  0.00    +0.000 A 
ATOM      9  N   UNL     1       7.443  14.595  22.652  0.00  0.00    +0.000 NA
ATOM     10  N   UNL     1       7.676  15.832  22.037  0.00  0.00    +0.000 N 
ATOM     11  H   UNL     1       8.073  14.224  19.879  0.00  0.00    +0.000 HD
ENDROOT
BRANCH   8  12
ATOM     12  C   UNL     1       6.846  13.458  24.795  0.00  0.00    +0.000 A 
ATOM     13  N   UNL     1       7.337  13.546  26.074  0.00  0.00    +0.000 NA
ATOM     14  C   UNL     1       7.168  12.487  26.902  0.00  0.00    +0.000 A 
ATOM     15  C   UNL     1       6.528  11.322  26.528  0.00  0.00    +0.000 A 
ATOM     16  C   UNL     1       6.034  11.241  25.229  0.00  0.00    +0.000 A 
ATOM     17  C   UNL     1       6.194  12.318  24.348  0.00  0.00    +0.000 A 
ATOM     18  F   UNL     1       5.704  12.206  23.109  0.00  0.00    +0.000 F 
ENDBRANCH   8  12
BRANCH   1  24
ATOM     19  C   UNL     1      10.180  14.318  18.217  0.00  0.00    +0.000 A 
ATOM     20  C   UNL     1      11.110  14.687  17.217  0.00  0.00    +0.000 A 
ATOM     21  C   UNL     1      11.182  15.986  16.737  0.00  0.00    +0.000 A 
ATOM     22  N   UNL     1      10.362  16.964  17.131  0.00  0.00    +0.000 NA
ATOM     23  C   UNL     1       9.442  16.617  18.065  0.00  0.00    +0.000 A 
ATOM     24  C   UNL     1       9.311  15.355  18.688  0.00  0.00    +0.000 A 
BRANCH  19  31
ATOM     25  C   UNL     1      12.241  11.964  19.784  0.00  0.00    +0.000 C 
ATOM     26  C   UNL     1      10.866  12.633  19.986  0.00  0.00    +0.000 C 
ATOM     27  C   UNL     1       9.932  11.672  20.781  0.00  0.00    +0.000 C 
ATOM     28  C   UNL     1       9.519  10.480  19.896  0.00  0.00    +0.000 C 
ATOM     29  C   UNL     1       9.184  10.804  18.427  0.00  0.00    +0.000 C 
ATOM     30  C   UNL     1      10.058  11.877  17.768  0.00  0.00    +0.000 C 
ATOM     31  N   UNL     1      10.196  12.998  18.700  0.00  0.00    +0.000 N 
BRANCH  27  32
ATOM     32  N   UNL     1       8.779  12.340  21.415  0.00  0.00    +0.000 NA
ATOM     33  H   UNL     1       9.061  12.856  22.244  0.00  0.00    +0.000 HD
ATOM     34  H   UNL     1       8.108  11.640  21.737  0.00  0.00    +0.000 HD
ENDBRANCH  27  32
ENDBRANCH  19  31
ENDBRANCH   1  24
TORSDOF 4
ENDMDL
MODEL 6
REMARK VINA RESULT:      -6.6      2.940      5.948
REMARK  Name = 
REMARK  5 active torsions:
REMARK  status: ('A' for Active; 'I' for Inactive)
REMARK    1  A    between atoms: C_1  and  C_2
REMARK    2  A    between atoms: C_3  and  N_4
REMARK    3  A    between atoms: N_8  and  C_9
REMARK    4  A    between atoms: C_14  and  N_15
REMARK    5  A    between atoms: C_22  and  C_23
REMARK                            x       y       z     vdW  Elec       q    Type
REMARK                         _______ _______ _______ _____ _____    ______ ____
ROOT
ATOM      1  N   UNL     1      -3.927  11.944  19.817  0.00  0.00    +0.000 N 
ATOM      2  C   UNL     1      -2.806  12.685  20.097  0.00  0.00    +0.000 A 
ATOM      3  N   UNL     1      -2.809  13.991  20.351  0.00  0.00    +0.000 NA
ATOM      4  C   UNL     1      -1.519  14.343  20.614  0.00  0.00    +0.000 A 
ATOM      5  C   UNL     1      -0.691  13.256  20.513  0.00  0.00    +0.000 A 
ATOM      6  C   UNL     1       0.693  13.068  20.668  0.00  0.00    +0.000 A 
ATOM      7  C   UNL     1       1.210  11.874  20.437  0.00  0.00    +0.000 A 
ATOM      8  C   UNL     1       0.290  10.755  20.020  0.00  0.00    +0.000 A 
ATOM      9  N   UNL     1      -1.013  10.883  19.916  0.00  0.00    +0.000 NA
ATOM     10  N   UNL     1      -1.490  12.175  20.175  0.00  0.00    +0.000 N 
ATOM     11  H   UNL     1      -3.877  10.931  19.786  0.00  0.00    +0.000 HD
ENDROOT
BRANCH   8  12
ATOM     12  C   UNL     1       1.032   9.461  19.717  0.00  0.00    +0.000 A 
ATOM     13  N   UNL     1       1.111   8.563  20.753  0.00  0.00    +0.000 NA
ATOM     14  C   UNL     1       1.772   7.399  20.545  0.00  0.00    +0.000 A 
ATOM     15  C   UNL     1       2.372   7.066  19.347  0.00  0.00    +0.000 A 
ATOM     16  C   UNL     1       2.288   7.984  18.303  0.00  0.00    +0.000 A 
ATOM     17  C   UNL     1       1.613   9.198  18.486  0.00  0.00    +0.000 A 
ATOM     18  F   UNL     1       1.550  10.052  17.460  0.00  0.00    +0.000 F 
ENDBRANCH   8  12
BRANCH   1  24
ATOM     19  C   UNL     1      -6.076  13.285  19.854  0.00  0.00    +0.000 A 
ATOM     20  C   UNL     1      -7.213  13.646  19.095  0.00  0.00    +0.000 A 
ATOM     21  C   UNL     1      -7.379  13.218  17.787  0.00  0.00    +0.000 A 
ATOM     22  N   UNL     1      -6.474  12.489  17.129  0.00  0.00    +0.000 NA
ATOM     23  C   UNL     1      -5.361  12.163  17.833  0.00  0.00    +0.000 A 
ATOM     24  C   UNL     1      -5.103  12.470  19.189  0.00  0.00    +0.000 A 
BRANCH  19  31
ATOM     25  C   UNL     1      -7.709  13.046  22.939  0.00  0.00    +0.000 C 
ATOM     26  C   UNL     1      -6.314  12.791  22.331  0.00  0.00    +0.000 C 
ATOM     27  C   UNL     1      -5.227  12.967  23.433  0.00  0.00    +0.000 C 
ATOM     28  C   UNL     1      -5.086  14.456  23.808  0.00  0.00    +0.000 C 
ATOM     29  C   UNL     1      -5.139  15.461  22.641  0.00  0.00    +0.000 C 
ATOM     30  C   UNL     1      -6.129  15.126  21.521  0.00  0.00    +0.000 C 
ATOM     31  N   UNL     1      -5.995  13.706  21.193  0.00  0.00    +0.000 N 
BRANCH  27  32
ATOM     32  N   UNL     1      -3.934  12.334  23.111  0.00  0.00    +0.000 NA
ATOM     33  H   UNL     1      -3.154  12.936  23.366  0.00  0.00    +0.000 HD
ATOM     34  H   UNL     1      -3.859  12.193  22.102  0.00  0.00    +0.000 HD
ENDBRANCH  27  32
ENDBRANCH  19  31
ENDBRANCH   1  24
TORSDOF 4
ENDMDL
MODEL 7
REMARK VINA RESULT:      -6.6      5.537      8.093
REMARK  Name = 
REMARK  5 active torsions:
REMARK  status: ('A' for Active; 'I' for Inactive)
REMARK    1  A    between atoms: C_1  and  C_2
REMARK    2  A    between atoms: C_3  and  N_4
REMARK    3  A    between atoms: N_8  and  C_9
REMARK    4  A    between atoms: C_14  and  N_15
REMARK    5  A    between atoms: C_22  and  C_23
REMARK                            x       y       z     vdW  Elec       q    Type
REMARK                         _______ _______ _______ _____ _____    ______ ____
ROOT
ATOM      1  N   UNL     1       0.787  10.332  18.341  0.00  0.00    +0.000 N 
ATOM      2  C   UNL     1       0.941   9.417  19.353  0.00  0.00    +0.000 A 
ATOM      3  N   UNL     1       0.381   9.520  20.555  0.00  0.00    +0.000 NA
ATOM      4  C   UNL     1       0.742   8.406  21.253  0.00  0.00    +0.000 A 
ATOM      5  C   UNL     1       1.547   7.600  20.494  0.00  0.00    +0.000 A 
ATOM      6  C   UNL     1       2.189   6.371  20.724  0.00  0.00    +0.000 A 
ATOM      7  C   UNL     1       2.967   5.865  19.782  0.00  0.00    +0.000 A 
ATOM      8  C   UNL     1       3.130   6.627  18.492  0.00  0.00    +0.000 A 
ATOM      9  N   UNL     1       2.504   7.750  18.224  0.00  0.00    +0.000 NA
ATOM     10  N   UNL     1       1.699   8.226  19.267  0.00  0.00    +0.000 N 
ATOM     11  H   UNL     1       1.112  10.118  17.403  0.00  0.00    +0.000 HD
ENDROOT
BRANCH   8  12
ATOM     12  C   UNL     1       4.110   5.964  17.534  0.00  0.00    +0.000 A 
ATOM     13  N   UNL     1       5.201   6.720  17.181  0.00  0.00    +0.000 NA
ATOM     14  C   UNL     1       6.101   6.188  16.320  0.00  0.00    +0.000 A 
ATOM     15  C   UNL     1       5.980   4.924  15.777  0.00  0.00    +0.000 A 
ATOM     16  C   UNL     1       4.870   4.165  16.139  0.00  0.00    +0.000 A 
ATOM     17  C   UNL     1       3.920   4.688  17.026  0.00  0.00    +0.000 A 
ATOM     18  F   UNL     1       2.870   3.930  17.354  0.00  0.00    +0.000 F 
ENDBRANCH   8  12
BRANCH   1  24
ATOM     19  C   UNL     1      -0.701  12.381  18.273  0.00  0.00    +0.000 A 
ATOM     20  C   UNL     1      -0.730  13.781  18.465  0.00  0.00    +0.000 A 
ATOM     21  C   UNL     1       0.393  14.481  18.882  0.00  0.00    +0.000 A 
ATOM     22  N   UNL     1       1.556  13.897  19.182  0.00  0.00    +0.000 NA
ATOM     23  C   UNL     1       1.590  12.549  19.035  0.00  0.00    +0.000 A 
ATOM     24  C   UNL     1       0.545  11.729  18.550  0.00  0.00    +0.000 A 
BRANCH  19  31
ATOM     25  C   UNL     1      -2.656   9.511  18.702  0.00  0.00    +0.000 C 
ATOM     26  C   UNL     1      -2.813  11.046  18.712  0.00  0.00    +0.000 C 
ATOM     27  C   UNL     1      -4.266  11.422  18.297  0.00  0.00    +0.000 C 
ATOM     28  C   UNL     1      -4.479  11.144  16.796  0.00  0.00    +0.000 C 
ATOM     29  C   UNL     1      -3.312  11.518  15.861  0.00  0.00    +0.000 C 
ATOM     30  C   UNL     1      -1.908  11.256  16.415  0.00  0.00    +0.000 C 
ATOM     31  N   UNL     1      -1.857  11.740  17.796  0.00  0.00    +0.000 N 
BRANCH  27  32
ATOM     32  N   UNL     1      -4.671  12.786  18.689  0.00  0.00    +0.000 NA
ATOM     33  H   UNL     1      -3.864  13.397  18.785  0.00  0.00    +0.000 HD
ATOM     34  H   UNL     1      -5.116  12.764  19.608  0.00  0.00    +0.000 HD
ENDBRANCH  27  32
ENDBRANCH  19  31
ENDBRANCH   1  24
TORSDOF 4
ENDMDL
MODEL 8
REMARK VINA RESULT:      -6.6      2.676      6.464
REMARK  Name = 
REMARK  5 active torsions:
REMARK  status: ('A' for Active; 'I' for Inactive)
REMARK    1  A    between atoms: C_1  and  C_2
REMARK    2  A    between atoms: C_3  and  N_4
REMARK    3  A    between atoms: N_8  and  C_9
REMARK    4  A    between atoms: C_14  and  N_15
REMARK    5  A    between atoms: C_22  and  C_23
REMARK                            x       y       z     vdW  Elec       q    Type
REMARK                         _______ _______ _______ _____ _____    ______ ____
ROOT
ATOM      1  N   UNL     1      -3.491  12.402  18.571  0.00  0.00    +0.000 N 
ATOM      2  C   UNL     1      -2.341  11.652  18.578  0.00  0.00    +0.000 A 
ATOM      3  N   UNL     1      -2.306  10.326  18.476  0.00  0.00    +0.000 NA
ATOM      4  C   UNL     1      -0.991   9.967  18.486  0.00  0.00    +0.000 A 
ATOM      5  C   UNL     1      -0.189  11.070  18.610  0.00  0.00    +0.000 A 
ATOM      6  C   UNL     1       1.202  11.261  18.681  0.00  0.00    +0.000 A 
ATOM      7  C   UNL     1       1.676  12.482  18.863  0.00  0.00    +0.000 A 
ATOM      8  C   UNL     1       0.701  13.626  18.983  0.00  0.00    +0.000 A 
ATOM      9  N   UNL     1      -0.600  13.490  18.869  0.00  0.00    +0.000 NA
ATOM     10  N   UNL     1      -1.030  12.170  18.678  0.00  0.00    +0.000 N 
ATOM     11  H   UNL     1      -3.442  13.413  18.496  0.00  0.00    +0.000 HD
ENDROOT
BRANCH   8  12
ATOM     12  C   UNL     1       1.384  14.956  19.265  0.00  0.00    +0.000 A 
ATOM     13  N   UNL     1       0.882  15.670  20.325  0.00  0.00    +0.000 NA
ATOM     14  C   UNL     1       1.442  16.869  20.616  0.00  0.00    +0.000 A 
ATOM     15  C   UNL     1       2.490  17.414  19.901  0.00  0.00    +0.000 A 
ATOM     16  C   UNL     1       2.991  16.684  18.826  0.00  0.00    +0.000 A 
ATOM     17  C   UNL     1       2.433  15.441  18.500  0.00  0.00    +0.000 A 
ATOM     18  F   UNL     1       2.943  14.767  17.464  0.00  0.00    +0.000 F 
ENDBRANCH   8  12
BRANCH   1  24
ATOM     19  C   UNL     1      -5.332  12.276  20.306  0.00  0.00    +0.000 A 
ATOM     20  C   UNL     1      -6.559  11.653  20.629  0.00  0.00    +0.000 A 
ATOM     21  C   UNL     1      -7.164  10.748  19.769  0.00  0.00    +0.000 A 
ATOM     22  N   UNL     1      -6.676  10.436  18.566  0.00  0.00    +0.000 NA
ATOM     23  C   UNL     1      -5.515  11.052  18.227  0.00  0.00    +0.000 A 
ATOM     24  C   UNL     1      -4.762  11.932  19.037  0.00  0.00    +0.000 A 
BRANCH  19  31
ATOM     25  C   UNL     1      -3.032  12.355  22.942  0.00  0.00    +0.000 C 
ATOM     26  C   UNL     1      -3.293  13.062  21.595  0.00  0.00    +0.000 C 
ATOM     27  C   UNL     1      -2.712  14.506  21.645  0.00  0.00    +0.000 C 
ATOM     28  C   UNL     1      -3.564  15.390  22.578  0.00  0.00    +0.000 C 
ATOM     29  C   UNL     1      -5.091  15.199  22.491  0.00  0.00    +0.000 C 
ATOM     30  C   UNL     1      -5.569  13.758  22.285  0.00  0.00    +0.000 C 
ATOM     31  N   UNL     1      -4.744  13.140  21.245  0.00  0.00    +0.000 N 
BRANCH  27  32
ATOM     32  N   UNL     1      -2.497  15.116  20.319  0.00  0.00    +0.000 NA
ATOM     33  H   UNL     1      -2.391  16.125  20.389  0.00  0.00    +0.000 HD
ATOM     34  H   UNL     1      -3.318  14.963  19.730  0.00  0.00    +0.000 HD
ENDBRANCH  27  32
ENDBRANCH  19  31
ENDBRANCH   1  24
TORSDOF 4
ENDMDL
MODEL 9
REMARK VINA RESULT:      -6.6      4.303      5.546
REMARK  Name = 
REMARK  5 active torsions:
REMARK  status: ('A' for Active; 'I' for Inactive)
REMARK    1  A    between atoms: C_1  and  C_2
REMARK    2  A    between atoms: C_3  and  N_4
REMARK    3  A    between atoms: N_8  and  C_9
REMARK    4  A    between atoms: C_14  and  N_15
REMARK    5  A    between atoms: C_22  and  C_23
REMARK                            x       y       z     vdW  Elec       q    Type
REMARK                         _______ _______ _______ _____ _____    ______ ____
ROOT
ATOM      1  N   UNL     1      -0.980  13.924  20.071  0.00  0.00    +0.000 N 
ATOM      2  C   UNL     1      -1.070  13.095  21.162  0.00  0.00    +0.000 A 
ATOM      3  N   UNL     1      -1.614  13.438  22.326  0.00  0.00    +0.000 NA
ATOM      4  C   UNL     1      -1.544  12.339  23.131  0.00  0.00    +0.000 A 
ATOM      5  C   UNL     1      -0.939  11.299  22.476  0.00  0.00    +0.000 A 
ATOM      6  C   UNL     1      -0.614   9.980  22.836  0.00  0.00    +0.000 A 
ATOM      7  C   UNL     1       0.041   9.220  21.973  0.00  0.00    +0.000 A 
ATOM      8  C   UNL     1       0.407   9.801  20.631  0.00  0.00    +0.000 A 
ATOM      9  N   UNL     1       0.073  11.011  20.244  0.00  0.00    +0.000 NA
ATOM     10  N   UNL     1      -0.617  11.757  21.209  0.00  0.00    +0.000 N 
ATOM     11  H   UNL     1      -0.696  13.555  19.170  0.00  0.00    +0.000 HD
ENDROOT
BRANCH   8  12
ATOM     12  C   UNL     1       1.221   8.842  19.775  0.00  0.00    +0.000 A 
ATOM     13  N   UNL     1       1.794   7.787  20.442  0.00  0.00    +0.000 NA
ATOM     14  C   UNL     1       2.542   6.907  19.734  0.00  0.00    +0.000 A 
ATOM     15  C   UNL     1       2.759   7.014  18.374  0.00  0.00    +0.000 A 
ATOM     16  C   UNL     1       2.175   8.088  17.706  0.00  0.00    +0.000 A 
ATOM     17  C   UNL     1       1.398   9.015  18.411  0.00  0.00    +0.000 A 
ATOM     18  F   UNL     1       0.851  10.030  17.735  0.00  0.00    +0.000 F 
ENDBRANCH   8  12
BRANCH   1  24
ATOM     19  C   UNL     1       0.313  16.095  19.899  0.00  0.00    +0.000 A 
ATOM     20  C   UNL     1       0.237  17.492  20.105  0.00  0.00    +0.000 A 
ATOM     21  C   UNL     1      -0.930  18.100  20.541  0.00  0.00    +0.000 A 
ATOM     22  N   UNL     1      -2.072  17.439  20.749  0.00  0.00    +0.000 NA
ATOM     23  C   UNL     1      -2.025  16.102  20.524  0.00  0.00    +0.000 A 
ATOM     24  C   UNL     1      -0.886  15.352  20.151  0.00  0.00    +0.000 A 
BRANCH  19  31
ATOM     25  C   UNL     1       3.166  14.516  21.166  0.00  0.00    +0.000 C 
ATOM     26  C   UNL     1       2.064  14.272  20.115  0.00  0.00    +0.000 C 
ATOM     27  C   UNL     1       2.622  13.366  18.978  0.00  0.00    +0.000 C 
ATOM     28  C   UNL     1       3.636  14.151  18.122  0.00  0.00    +0.000 C 
ATOM     29  C   UNL     1       3.272  15.614  17.803  0.00  0.00    +0.000 C 
ATOM     30  C   UNL     1       2.583  16.387  18.932  0.00  0.00    +0.000 C 
ATOM     31  N   UNL     1       1.541  15.535  19.509  0.00  0.00    +0.000 N 
BRANCH  27  32
ATOM     32  N   UNL     1       1.581  12.705  18.167  0.00  0.00    +0.000 NA
ATOM     33  H   UNL     1       1.581  13.053  17.211  0.00  0.00    +0.000 HD
ATOM     34  H   UNL     1       0.657  12.926  18.543  0.00  0.00    +0.000 HD
ENDBRANCH  27  32
ENDBRANCH  19  31
ENDBRANCH   1  24
TORSDOF 4
ENDMDL
