MODEL 1
REMARK VINA RESULT:      -7.6      0.000      0.000
REMARK  Name = 
REMARK  4 active torsions:
REMARK  status: ('A' for Active; 'I' for Inactive)
REMARK    1  A    between atoms: C_2  and  C_3
REMARK    2  A    between atoms: C_8  and  C_9
REMARK    3  A    between atoms: C_11  and  C_12
REMARK    4  A    between atoms: N_19  and  C_20
REMARK                            x       y       z     vdW  Elec       q    Type
REMARK                         _______ _______ _______ _____ _____    ______ ____
ROOT
ATOM      1  C   UNL     1       4.338   5.856  17.125  0.00  0.00    +0.000 A 
ATOM      2  C   UNL     1       3.864   7.104  17.242  0.00  0.00    +0.000 A 
ATOM      3  C   UNL     1       2.855   7.461  18.228  0.00  0.00    +0.000 A 
ATOM      4  C   UNL     1       2.409   6.483  19.045  0.00  0.00    +0.000 A 
ATOM      5  N   UNL     1       2.849   5.164  18.959  0.00  0.00    +0.000 N 
ATOM      6  C   UNL     1       3.839   4.779  18.040  0.00  0.00    +0.000 A 
ATOM      7  O   UNL     1       4.349   3.662  17.954  0.00  0.00    +0.000 OA
ENDROOT
BRANCH   1  13
ATOM      8  C   UNL     1       6.698   5.809  16.254  0.00  0.00    +0.000 A 
ATOM      9  N   UNL     1       7.640   5.514  15.317  0.00  0.00    +0.000 NA
ATOM     10  C   UNL     1       7.206   4.956  14.168  0.00  0.00    +0.000 A 
ATOM     11  C   UNL     1       5.879   4.655  13.912  0.00  0.00    +0.000 A 
ATOM     12  C   UNL     1       4.932   4.949  14.890  0.00  0.00    +0.000 A 
ATOM     13  C   UNL     1       5.336   5.539  16.092  0.00  0.00    +0.000 A 
BRANCH   8  15
ATOM     14  N   UNL     1       7.666   6.888  18.415  0.00  0.00    +0.000 NA
ATOM     15  C   UNL     1       7.217   6.389  17.469  0.00  0.00    +0.000 C 
ENDBRANCH   8  15
ENDBRANCH   1  13
BRANCH   3  16
ATOM     16  C   UNL     1       2.319   8.843  18.377  0.00  0.00    +0.000 A 
ATOM     17  C   UNL     1       1.313   9.141  19.297  0.00  0.00    +0.000 A 
ATOM     18  C   UNL     1       0.803  10.436  19.356  0.00  0.00    +0.000 A 
ATOM     19  C   UNL     1       1.325  11.410  18.519  0.00  0.00    +0.000 A 
ATOM     20  C   UNL     1       2.339  11.044  17.651  0.00  0.00    +0.000 A 
ATOM     21  N   UNL     1       2.840   9.792  17.560  0.00  0.00    +0.000 NA
ENDBRANCH   3  16
BRANCH   5  22
ATOM     22  C   UNL     1       2.341   4.153  19.832  0.00  0.00    +0.000 A 
ATOM     23  C   UNL     1       1.357   3.260  19.396  0.00  0.00    +0.000 A 
ATOM     24  C   UNL     1       0.773   2.366  20.301  0.00  0.00    +0.000 A 
ATOM     25  C   UNL     1       1.204   2.327  21.628  0.00  0.00    +0.000 A 
ATOM     26  C   UNL     1       2.224   3.174  22.053  0.00  0.00    +0.000 A 
ATOM     27  C   UNL     1       2.781   4.091  21.163  0.00  0.00    +0.000 A 
ENDBRANCH   5  22
TORSDOF 4
ENDMDL
MODEL 2
REMARK VINA RESULT:      -7.5      0.552      1.319
REMARK  Name = 
REMARK  4 active torsions:
REMARK  status: ('A' for Active; 'I' for Inactive)
REMARK    1  A    between atoms: C_2  and  C_3
REMARK    2  A    between atoms: C_8  and  C_9
REMARK    3  A    between atoms: C_11  and  C_12
REMARK    4  A    between atoms: N_19  and  C_20
REMARK                            x       y       z     vdW  Elec       q    Type
REMARK                         _______ _______ _______ _____ _____    ______ ____
ROOT
ATOM      1  C   UNL     1       4.267   5.958  17.193  0.00  0.00    +0.000 A 
ATOM      2  C   UNL     1       3.815   7.219  17.258  0.00  0.00    +0.000 A 
ATOM      3  C   UNL     1       2.797   7.629  18.215  0.00  0.00    +0.000 A 
ATOM      4  C   UNL     1       2.319   6.689  19.058  0.00  0.00    +0.000 A 
ATOM      5  N   UNL     1       2.735   5.360  19.024  0.00  0.00    +0.000 N 
ATOM      6  C   UNL     1       3.733   4.924  18.136  0.00  0.00    +0.000 A 
ATOM      7  O   UNL     1       4.222   3.795  18.098  0.00  0.00    +0.000 OA
ENDROOT
BRANCH   1  13
ATOM      8  C   UNL     1       6.645   5.785  16.389  0.00  0.00    +0.000 A 
ATOM      9  N   UNL     1       7.595   5.438  15.479  0.00  0.00    +0.000 NA
ATOM     10  C   UNL     1       7.164   4.901  14.318  0.00  0.00    +0.000 A 
ATOM     11  C   UNL     1       5.830   4.672  14.025  0.00  0.00    +0.000 A 
ATOM     12  C   UNL     1       4.874   5.017  14.976  0.00  0.00    +0.000 A 
ATOM     13  C   UNL     1       5.275   5.587  16.189  0.00  0.00    +0.000 A 
BRANCH   8  15
ATOM     14  N   UNL     1       7.616   6.803  18.577  0.00  0.00    +0.000 NA
ATOM     15  C   UNL     1       7.159   6.339  17.617  0.00  0.00    +0.000 C 
ENDBRANCH   8  15
ENDBRANCH   1  13
BRANCH   3  16
ATOM     16  C   UNL     1       2.286   9.025  18.306  0.00  0.00    +0.000 A 
ATOM     17  C   UNL     1       2.905  10.075  17.625  0.00  0.00    +0.000 A 
ATOM     18  C   UNL     1       2.426  11.373  17.790  0.00  0.00    +0.000 A 
ATOM     19  C   UNL     1       1.327  11.592  18.606  0.00  0.00    +0.000 A 
ATOM     20  C   UNL     1       0.752  10.498  19.228  0.00  0.00    +0.000 A 
ATOM     21  N   UNL     1       1.207   9.231  19.100  0.00  0.00    +0.000 NA
ENDBRANCH   3  16
BRANCH   5  22
ATOM     22  C   UNL     1       2.193   4.390  19.924  0.00  0.00    +0.000 A 
ATOM     23  C   UNL     1       2.666   4.291  21.238  0.00  0.00    +0.000 A 
ATOM     24  C   UNL     1       2.223   3.251  22.063  0.00  0.00    +0.000 A 
ATOM     25  C   UNL     1       1.273   2.341  21.599  0.00  0.00    +0.000 A 
ATOM     26  C   UNL     1       0.756   2.469  20.312  0.00  0.00    +0.000 A 
ATOM     27  C   UNL     1       1.223   3.482  19.475  0.00  0.00    +0.000 A 
ENDBRANCH   5  22
TORSDOF 4
ENDMDL
MODEL 3
REMARK VINA RESULT:      -7.0      4.563      8.650
REMARK  Name = 
REMARK  4 active torsions:
REMARK  status: ('A' for Active; 'I' for Inactive)
REMARK    1  A    between atoms: C_2  and  C_3
REMARK    2  A    between atoms: C_8  and  C_9
REMARK    3  A    between atoms: C_11  and  C_12
REMARK    4  A    between atoms: N_19  and  C_20
REMARK                            x       y       z     vdW  Elec       q    Type
REMARK                         _______ _______ _______ _____ _____    ______ ____
ROOT
ATOM      1  C   UNL     1      -1.536  11.857  18.590  0.00  0.00    +0.000 A 
ATOM      2  C   UNL     1      -0.826  12.990  18.501  0.00  0.00    +0.000 A 
ATOM      3  C   UNL     1       0.627  13.003  18.586  0.00  0.00    +0.000 A 
ATOM      4  C   UNL     1       1.252  11.818  18.751  0.00  0.00    +0.000 A 
ATOM      5  N   UNL     1       0.567  10.610  18.869  0.00  0.00    +0.000 N 
ATOM      6  C   UNL     1      -0.832  10.547  18.767  0.00  0.00    +0.000 A 
ATOM      7  O   UNL     1      -1.510   9.519  18.771  0.00  0.00    +0.000 OA
ENDROOT
BRANCH   1  13
ATOM      8  C   UNL     1      -3.720  11.550  17.377  0.00  0.00    +0.000 A 
ATOM      9  N   UNL     1      -5.078  11.572  17.301  0.00  0.00    +0.000 NA
ATOM     10  C   UNL     1      -5.747  11.981  18.399  0.00  0.00    +0.000 A 
ATOM     11  C   UNL     1      -5.129  12.353  19.581  0.00  0.00    +0.000 A 
ATOM     12  C   UNL     1      -3.739  12.308  19.646  0.00  0.00    +0.000 A 
ATOM     13  C   UNL     1      -3.005  11.899  18.527  0.00  0.00    +0.000 A 
BRANCH   8  15
ATOM     14  N   UNL     1      -2.536  10.668  15.235  0.00  0.00    +0.000 NA
ATOM     15  C   UNL     1      -3.055  11.090  16.183  0.00  0.00    +0.000 C 
ENDBRANCH   8  15
ENDBRANCH   1  13
BRANCH   3  16
ATOM     16  C   UNL     1       1.434  14.251  18.485  0.00  0.00    +0.000 A 
ATOM     17  C   UNL     1       0.906  15.492  18.843  0.00  0.00    +0.000 A 
ATOM     18  C   UNL     1       1.680  16.639  18.674  0.00  0.00    +0.000 A 
ATOM     19  C   UNL     1       2.970  16.520  18.179  0.00  0.00    +0.000 A 
ATOM     20  C   UNL     1       3.431  15.253  17.869  0.00  0.00    +0.000 A 
ATOM     21  N   UNL     1       2.697  14.126  18.007  0.00  0.00    +0.000 NA
ENDBRANCH   3  16
BRANCH   5  22
ATOM     22  C   UNL     1       1.266   9.377  19.057  0.00  0.00    +0.000 A 
ATOM     23  C   UNL     1       1.912   8.751  17.986  0.00  0.00    +0.000 A 
ATOM     24  C   UNL     1       2.474   7.480  18.154  0.00  0.00    +0.000 A 
ATOM     25  C   UNL     1       2.437   6.856  19.402  0.00  0.00    +0.000 A 
ATOM     26  C   UNL     1       1.847   7.499  20.486  0.00  0.00    +0.000 A 
ATOM     27  C   UNL     1       1.254   8.749  20.311  0.00  0.00    +0.000 A 
ENDBRANCH   5  22
TORSDOF 4
ENDMDL
MODEL 4
REMARK VINA RESULT:      -6.9      4.323      8.875
REMARK  Name = 
REMARK  4 active torsions:
REMARK  status: ('A' for Active; 'I' for Inactive)
REMARK    1  A    between atoms: C_2  and  C_3
REMARK    2  A    between atoms: C_8  and  C_9
REMARK    3  A    between atoms: C_11  and  C_12
REMARK    4  A    between atoms: N_19  and  C_20
REMARK                            x       y       z     vdW  Elec       q    Type
REMARK                         _______ _______ _______ _____ _____    ______ ____
ROOT
ATOM      1  C   UNL     1       1.276  12.643  18.780  0.00  0.00    +0.000 A 
ATOM      2  C   UNL     1       1.854  11.442  18.924  0.00  0.00    +0.000 A 
ATOM      3  C   UNL     1       1.114  10.200  18.756  0.00  0.00    +0.000 A 
ATOM      4  C   UNL     1      -0.193  10.292  18.434  0.00  0.00    +0.000 A 
ATOM      5  N   UNL     1      -0.854  11.511  18.291  0.00  0.00    +0.000 N 
ATOM      6  C   UNL     1      -0.175  12.734  18.419  0.00  0.00    +0.000 A 
ATOM      7  O   UNL     1      -0.655  13.850  18.222  0.00  0.00    +0.000 OA
ENDROOT
BRANCH   1  13
ATOM      8  C   UNL     1       2.023  14.592  20.185  0.00  0.00    +0.000 A 
ATOM      9  N   UNL     1       2.748  15.722  20.403  0.00  0.00    +0.000 NA
ATOM     10  C   UNL     1       3.517  16.163  19.385  0.00  0.00    +0.000 A 
ATOM     11  C   UNL     1       3.616  15.521  18.163  0.00  0.00    +0.000 A 
ATOM     12  C   UNL     1       2.879  14.355  17.964  0.00  0.00    +0.000 A 
ATOM     13  C   UNL     1       2.060  13.869  18.989  0.00  0.00    +0.000 A 
BRANCH   8  15
ATOM     14  N   UNL     1       0.608  13.853  22.239  0.00  0.00    +0.000 NA
ATOM     15  C   UNL     1       1.232  14.157  21.310  0.00  0.00    +0.000 C 
ENDBRANCH   8  15
ENDBRANCH   1  13
BRANCH   3  16
ATOM     16  C   UNL     1       1.740   8.857  18.907  0.00  0.00    +0.000 A 
ATOM     17  C   UNL     1       2.446   8.259  17.861  0.00  0.00    +0.000 A 
ATOM     18  C   UNL     1       2.962   6.975  18.031  0.00  0.00    +0.000 A 
ATOM     19  C   UNL     1       2.787   6.329  19.246  0.00  0.00    +0.000 A 
ATOM     20  C   UNL     1       2.097   6.996  20.242  0.00  0.00    +0.000 A 
ATOM     21  N   UNL     1       1.571   8.233  20.099  0.00  0.00    +0.000 NA
ENDBRANCH   3  16
BRANCH   5  22
ATOM     22  C   UNL     1      -2.244  11.567  17.964  0.00  0.00    +0.000 A 
ATOM     23  C   UNL     1      -3.195  11.891  18.938  0.00  0.00    +0.000 A 
ATOM     24  C   UNL     1      -4.559  11.809  18.638  0.00  0.00    +0.000 A 
ATOM     25  C   UNL     1      -4.976  11.455  17.354  0.00  0.00    +0.000 A 
ATOM     26  C   UNL     1      -4.034  11.188  16.365  0.00  0.00    +0.000 A 
ATOM     27  C   UNL     1      -2.675  11.233  16.671  0.00  0.00    +0.000 A 
ENDBRANCH   5  22
TORSDOF 4
ENDMDL
MODEL 5
REMARK VINA RESULT:      -6.9      4.575      8.719
REMARK  Name = 
REMARK  4 active torsions:
REMARK  status: ('A' for Active; 'I' for Inactive)
REMARK    1  A    between atoms: C_2  and  C_3
REMARK    2  A    between atoms: C_8  and  C_9
REMARK    3  A    between atoms: C_11  and  C_12
REMARK    4  A    between atoms: N_19  and  C_20
REMARK                            x       y       z     vdW  Elec       q    Type
REMARK                         _______ _______ _______ _____ _____    ______ ____
ROOT
ATOM      1  C   UNL     1      -1.608  11.823  18.541  0.00  0.00    +0.000 A 
ATOM      2  C   UNL     1      -0.876  12.944  18.485  0.00  0.00    +0.000 A 
ATOM      3  C   UNL     1       0.576  12.927  18.589  0.00  0.00    +0.000 A 
ATOM      4  C   UNL     1       1.177  11.728  18.737  0.00  0.00    +0.000 A 
ATOM      5  N   UNL     1       0.468  10.531  18.821  0.00  0.00    +0.000 N 
ATOM      6  C   UNL     1      -0.931  10.496  18.700  0.00  0.00    +0.000 A 
ATOM      7  O   UNL     1      -1.628   9.482  18.673  0.00  0.00    +0.000 OA
ENDROOT
BRANCH   1  13
ATOM      8  C   UNL     1      -3.783  11.545  17.306  0.00  0.00    +0.000 A 
ATOM      9  N   UNL     1      -5.140  11.593  17.214  0.00  0.00    +0.000 NA
ATOM     10  C   UNL     1      -5.813  12.032  18.298  0.00  0.00    +0.000 A 
ATOM     11  C   UNL     1      -5.202  12.406  19.482  0.00  0.00    +0.000 A 
ATOM     12  C   UNL     1      -3.813  12.333  19.564  0.00  0.00    +0.000 A 
ATOM     13  C   UNL     1      -3.075  11.895  18.460  0.00  0.00    +0.000 A 
BRANCH   8  15
ATOM     14  N   UNL     1      -2.614  10.687  15.147  0.00  0.00    +0.000 NA
ATOM     15  C   UNL     1      -3.115  11.055  16.126  0.00  0.00    +0.000 C 
ENDBRANCH   8  15
ENDBRANCH   1  13
BRANCH   3  16
ATOM     16  C   UNL     1       1.408  14.161  18.525  0.00  0.00    +0.000 A 
ATOM     17  C   UNL     1       2.749  14.118  18.142  0.00  0.00    +0.000 A 
ATOM     18  C   UNL     1       3.502  15.291  18.155  0.00  0.00    +0.000 A 
ATOM     19  C   UNL     1       2.894  16.483  18.521  0.00  0.00    +0.000 A 
ATOM     20  C   UNL     1       1.554  16.449  18.864  0.00  0.00    +0.000 A 
ATOM     21  N   UNL     1       0.806  15.324  18.877  0.00  0.00    +0.000 NA
ENDBRANCH   3  16
BRANCH   5  22
ATOM     22  C   UNL     1       1.140   9.281  18.992  0.00  0.00    +0.000 A 
ATOM     23  C   UNL     1       1.180   8.656  20.244  0.00  0.00    +0.000 A 
ATOM     24  C   UNL     1       1.954   7.505  20.426  0.00  0.00    +0.000 A 
ATOM     25  C   UNL     1       2.647   6.947  19.351  0.00  0.00    +0.000 A 
ATOM     26  C   UNL     1       2.564   7.531  18.090  0.00  0.00    +0.000 A 
ATOM     27  C   UNL     1       1.823   8.699  17.914  0.00  0.00    +0.000 A 
ENDBRANCH   5  22
TORSDOF 4
ENDMDL
MODEL 6
REMARK VINA RESULT:      -6.9      4.182      7.846
REMARK  Name = 
REMARK  4 active torsions:
REMARK  status: ('A' for Active; 'I' for Inactive)
REMARK    1  A    between atoms: C_2  and  C_3
REMARK    2  A    between atoms: C_8  and  C_9
REMARK    3  A    between atoms: C_11  and  C_12
REMARK    4  A    between atoms: N_19  and  C_20
REMARK                            x       y       z     vdW  Elec       q    Type
REMARK                         _______ _______ _______ _____ _____    ______ ____
ROOT
ATOM      1  C   UNL     1       0.658  10.498  18.847  0.00  0.00    +0.000 A 
ATOM      2  C   UNL     1       1.373  11.629  18.781  0.00  0.00    +0.000 A 
ATOM      3  C   UNL     1       0.750  12.931  18.590  0.00  0.00    +0.000 A 
ATOM      4  C   UNL     1      -0.595  12.969  18.490  0.00  0.00    +0.000 A 
ATOM      5  N   UNL     1      -1.390  11.825  18.531  0.00  0.00    +0.000 N 
ATOM      6  C   UNL     1      -0.835  10.552  18.739  0.00  0.00    +0.000 A 
ATOM      7  O   UNL     1      -1.466   9.504  18.877  0.00  0.00    +0.000 OA
ENDROOT
BRANCH   1  13
ATOM      8  C   UNL     1       1.519   8.603  20.261  0.00  0.00    +0.000 A 
ATOM      9  N   UNL     1       2.134   7.402  20.434  0.00  0.00    +0.000 NA
ATOM     10  C   UNL     1       2.608   6.790  19.328  0.00  0.00    +0.000 A 
ATOM     11  C   UNL     1       2.481   7.307  18.050  0.00  0.00    +0.000 A 
ATOM     12  C   UNL     1       1.833   8.530  17.890  0.00  0.00    +0.000 A 
ATOM     13  C   UNL     1       1.337   9.203  19.012  0.00  0.00    +0.000 A 
BRANCH   8  15
ATOM     14  N   UNL     1       0.603   9.734  22.416  0.00  0.00    +0.000 NA
ATOM     15  C   UNL     1       1.019   9.205  21.471  0.00  0.00    +0.000 C 
ENDBRANCH   8  15
ENDBRANCH   1  13
BRANCH   3  16
ATOM     16  C   UNL     1       1.528  14.199  18.520  0.00  0.00    +0.000 A 
ATOM     17  C   UNL     1       2.867  14.213  18.129  0.00  0.00    +0.000 A 
ATOM     18  C   UNL     1       3.569  15.417  18.136  0.00  0.00    +0.000 A 
ATOM     19  C   UNL     1       2.914  16.582  18.506  0.00  0.00    +0.000 A 
ATOM     20  C   UNL     1       1.579  16.492  18.858  0.00  0.00    +0.000 A 
ATOM     21  N   UNL     1       0.879  15.335  18.876  0.00  0.00    +0.000 NA
ENDBRANCH   3  16
BRANCH   5  22
ATOM     22  C   UNL     1      -2.812  11.906  18.405  0.00  0.00    +0.000 A 
ATOM     23  C   UNL     1      -3.603  12.310  19.486  0.00  0.00    +0.000 A 
ATOM     24  C   UNL     1      -4.999  12.253  19.391  0.00  0.00    +0.000 A 
ATOM     25  C   UNL     1      -5.606  11.844  18.203  0.00  0.00    +0.000 A 
ATOM     26  C   UNL     1      -4.824  11.496  17.105  0.00  0.00    +0.000 A 
ATOM     27  C   UNL     1      -3.434  11.516  17.210  0.00  0.00    +0.000 A 
ENDBRANCH   5  22
TORSDOF 4
ENDMDL
MODEL 7
REMARK VINA RESULT:      -6.9      4.196      7.830
REMARK  Name = 
REMARK  4 active torsions:
REMARK  status: ('A' for Active; 'I' for Inactive)
REMARK    1  A    between atoms: C_2  and  C_3
REMARK    2  A    between atoms: C_8  and  C_9
REMARK    3  A    between atoms: C_11  and  C_12
REMARK    4  A    between atoms: N_19  and  C_20
REMARK                            x       y       z     vdW  Elec       q    Type
REMARK                         _______ _______ _______ _____ _____    ______ ____
ROOT
ATOM      1  C   UNL     1       0.608  10.521  18.856  0.00  0.00    +0.000 A 
ATOM      2  C   UNL     1       1.306  11.663  18.787  0.00  0.00    +0.000 A 
ATOM      3  C   UNL     1       0.662  12.957  18.617  0.00  0.00    +0.000 A 
ATOM      4  C   UNL     1      -0.685  12.977  18.539  0.00  0.00    +0.000 A 
ATOM      5  N   UNL     1      -1.464  11.822  18.584  0.00  0.00    +0.000 N 
ATOM      6  C   UNL     1      -0.887  10.555  18.773  0.00  0.00    +0.000 A 
ATOM      7  O   UNL     1      -1.501   9.497  18.914  0.00  0.00    +0.000 OA
ENDROOT
BRANCH   1  13
ATOM      8  C   UNL     1       1.508   8.622  20.240  0.00  0.00    +0.000 A 
ATOM      9  N   UNL     1       2.142   7.428  20.394  0.00  0.00    +0.000 NA
ATOM     10  C   UNL     1       2.617   6.837  19.277  0.00  0.00    +0.000 A 
ATOM     11  C   UNL     1       2.473   7.369  18.006  0.00  0.00    +0.000 A 
ATOM     12  C   UNL     1       1.805   8.583  17.867  0.00  0.00    +0.000 A 
ATOM     13  C   UNL     1       1.307   9.235  19.000  0.00  0.00    +0.000 A 
BRANCH   8  15
ATOM     14  N   UNL     1       0.655   9.686  22.455  0.00  0.00    +0.000 NA
ATOM     15  C   UNL     1       1.007   9.201  21.462  0.00  0.00    +0.000 C 
ENDBRANCH   8  15
ENDBRANCH   1  13
BRANCH   3  16
ATOM     16  C   UNL     1       1.421  14.237  18.543  0.00  0.00    +0.000 A 
ATOM     17  C   UNL     1       0.841  15.451  18.912  0.00  0.00    +0.000 A 
ATOM     18  C   UNL     1       1.571  16.629  18.769  0.00  0.00    +0.000 A 
ATOM     19  C   UNL     1       2.870  16.568  18.287  0.00  0.00    +0.000 A 
ATOM     20  C   UNL     1       3.384  15.324  17.965  0.00  0.00    +0.000 A 
ATOM     21  N   UNL     1       2.693  14.168  18.078  0.00  0.00    +0.000 NA
ENDBRANCH   3  16
BRANCH   5  22
ATOM     22  C   UNL     1      -2.888  11.883  18.483  0.00  0.00    +0.000 A 
ATOM     23  C   UNL     1      -3.536  11.539  17.292  0.00  0.00    +0.000 A 
ATOM     24  C   UNL     1      -4.916  11.733  17.165  0.00  0.00    +0.000 A 
ATOM     25  C   UNL     1      -5.659  12.222  18.240  0.00  0.00    +0.000 A 
ATOM     26  C   UNL     1      -5.028  12.511  19.448  0.00  0.00    +0.000 A 
ATOM     27  C   UNL     1      -3.648  12.353  19.564  0.00  0.00    +0.000 A 
ENDBRANCH   5  22
TORSDOF 4
ENDMDL
MODEL 8
REMARK VINA RESULT:      -6.6      4.538      8.692
REMARK  Name = 
REMARK  4 active torsions:
REMARK  status: ('A' for Active; 'I' for Inactive)
REMARK    1  A    between atoms: C_2  and  C_3
REMARK    2  A    between atoms: C_8  and  C_9
REMARK    3  A    between atoms: C_11  and  C_12
REMARK    4  A    between atoms: N_19  and  C_20
REMARK                            x       y       z     vdW  Elec       q    Type
REMARK                         _______ _______ _______ _____ _____    ______ ____
ROOT
ATOM      1  C   UNL     1      -1.485  11.841  18.501  0.00  0.00    +0.000 A 
ATOM      2  C   UNL     1      -0.770  12.974  18.444  0.00  0.00    +0.000 A 
ATOM      3  C   UNL     1       0.679  12.984  18.582  0.00  0.00    +0.000 A 
ATOM      4  C   UNL     1       1.296  11.798  18.763  0.00  0.00    +0.000 A 
ATOM      5  N   UNL     1       0.606  10.590  18.850  0.00  0.00    +0.000 N 
ATOM      6  C   UNL     1      -0.789  10.529  18.697  0.00  0.00    +0.000 A 
ATOM      7  O   UNL     1      -1.467   9.502  18.670  0.00  0.00    +0.000 OA
ENDROOT
BRANCH   1  13
ATOM      8  C   UNL     1      -3.779  12.259  19.446  0.00  0.00    +0.000 A 
ATOM      9  N   UNL     1      -5.135  12.318  19.356  0.00  0.00    +0.000 NA
ATOM     10  C   UNL     1      -5.687  11.966  18.176  0.00  0.00    +0.000 A 
ATOM     11  C   UNL     1      -4.951  11.577  17.069  0.00  0.00    +0.000 A 
ATOM     12  C   UNL     1      -3.563  11.540  17.175  0.00  0.00    +0.000 A 
ATOM     13  C   UNL     1      -2.950  11.886  18.384  0.00  0.00    +0.000 A 
BRANCH   8  15
ATOM     14  N   UNL     1      -2.780  12.936  21.751  0.00  0.00    +0.000 NA
ATOM     15  C   UNL     1      -3.241  12.660  20.722  0.00  0.00    +0.000 C 
ENDBRANCH   8  15
ENDBRANCH   1  13
BRANCH   3  16
ATOM     16  C   UNL     1       1.490  14.232  18.517  0.00  0.00    +0.000 A 
ATOM     17  C   UNL     1       0.960  15.467  18.893  0.00  0.00    +0.000 A 
ATOM     18  C   UNL     1       1.740  16.615  18.758  0.00  0.00    +0.000 A 
ATOM     19  C   UNL     1       3.035  16.502  18.278  0.00  0.00    +0.000 A 
ATOM     20  C   UNL     1       3.498  15.240  17.949  0.00  0.00    +0.000 A 
ATOM     21  N   UNL     1       2.759  14.113  18.054  0.00  0.00    +0.000 NA
ENDBRANCH   3  16
BRANCH   5  22
ATOM     22  C   UNL     1       1.296   9.355  19.057  0.00  0.00    +0.000 A 
ATOM     23  C   UNL     1       1.950   8.715  17.999  0.00  0.00    +0.000 A 
ATOM     24  C   UNL     1       2.503   7.444  18.185  0.00  0.00    +0.000 A 
ATOM     25  C   UNL     1       2.450   6.831  19.438  0.00  0.00    +0.000 A 
ATOM     26  C   UNL     1       1.852   7.488  20.509  0.00  0.00    +0.000 A 
ATOM     27  C   UNL     1       1.267   8.739  20.317  0.00  0.00    +0.000 A 
ENDBRANCH   5  22
TORSDOF 4
ENDMDL
MODEL 9
REMARK VINA RESULT:      -6.6      4.416      9.734
REMARK  Name = 
REMARK  4 active torsions:
REMARK  status: ('A' for Active; 'I' for Inactive)
REMARK    1  A    between atoms: C_2  and  C_3
REMARK    2  A    between atoms: C_8  and  C_9
REMARK    3  A    between atoms: C_11  and  C_12
REMARK    4  A    between atoms: N_19  and  C_20
REMARK                            x       y       z     vdW  Elec       q    Type
REMARK                         _______ _______ _______ _____ _____    ______ ____
ROOT
ATOM      1  C   UNL     1      -0.953  11.449  18.245  0.00  0.00    +0.000 A 
ATOM      2  C   UNL     1      -0.355  10.258  18.388  0.00  0.00    +0.000 A 
ATOM      3  C   UNL     1       1.062  10.135  18.698  0.00  0.00    +0.000 A 
ATOM      4  C   UNL     1       1.768  11.274  18.851  0.00  0.00    +0.000 A 
ATOM      5  N   UNL     1       1.207  12.540  18.696  0.00  0.00    +0.000 N 
ATOM      6  C   UNL     1      -0.161  12.708  18.423  0.00  0.00    +0.000 A 
ATOM      7  O   UNL     1      -0.757  13.783  18.358  0.00  0.00    +0.000 OA
ENDROOT
BRANCH   1  13
ATOM      8  C   UNL     1      -3.361  11.884  18.833  0.00  0.00    +0.000 A 
ATOM      9  N   UNL     1      -4.686  11.968  18.535  0.00  0.00    +0.000 NA
ATOM     10  C   UNL     1      -5.052  11.654  17.274  0.00  0.00    +0.000 A 
ATOM     11  C   UNL     1      -4.157  11.279  16.286  0.00  0.00    +0.000 A 
ATOM     12  C   UNL     1      -2.803  11.215  16.605  0.00  0.00    +0.000 A 
ATOM     13  C   UNL     1      -2.382  11.522  17.904  0.00  0.00    +0.000 A 
BRANCH   8  15
ATOM     14  N   UNL     1      -2.736  12.584  21.259  0.00  0.00    +0.000 NA
ATOM     15  C   UNL     1      -3.023  12.245  20.188  0.00  0.00    +0.000 C 
ENDBRANCH   8  15
ENDBRANCH   1  13
BRANCH   3  16
ATOM     16  C   UNL     1       1.743   8.821  18.865  0.00  0.00    +0.000 A 
ATOM     17  C   UNL     1       2.502   8.256  17.838  0.00  0.00    +0.000 A 
ATOM     18  C   UNL     1       3.071   6.997  18.020  0.00  0.00    +0.000 A 
ATOM     19  C   UNL     1       2.894   6.342  19.229  0.00  0.00    +0.000 A 
ATOM     20  C   UNL     1       2.149   6.976  20.208  0.00  0.00    +0.000 A 
ATOM     21  N   UNL     1       1.572   8.189  20.052  0.00  0.00    +0.000 NA
ENDBRANCH   3  16
BRANCH   5  22
ATOM     22  C   UNL     1       1.992  13.724  18.852  0.00  0.00    +0.000 A 
ATOM     23  C   UNL     1       1.950  14.459  20.043  0.00  0.00    +0.000 A 
ATOM     24  C   UNL     1       2.617  15.686  20.131  0.00  0.00    +0.000 A 
ATOM     25  C   UNL     1       3.368  16.157  19.053  0.00  0.00    +0.000 A 
ATOM     26  C   UNL     1       3.461  15.402  17.887  0.00  0.00    +0.000 A 
ATOM     27  C   UNL     1       2.767  14.198  17.783  0.00  0.00    +0.000 A 
ENDBRANCH   5  22
TORSDOF 4
ENDMDL
